MODEL 1
REMARK VINA RESULT:      -7.4      0.000      0.000
REMARK  Name = 
REMARK  8 active torsions:
REMARK  status: ('A' for Active; 'I' for Inactive)
REMARK    1  A    between atoms: C_3  and  N_4
REMARK    2  A    between atoms: N_4  and  C_5
REMARK    3  A    between atoms: C_5  and  C_6
REMARK    4  A    between atoms: C_6  and  N_7
REMARK    5  A    between atoms: C_17  and  N_18
REMARK    6  A    between atoms: N_18  and  C_19
REMARK    7  A    between atoms: C_19  and  C_20
REMARK    8  A    between atoms: C_20  and  N_21
REMARK                            x       y       z     vdW  Elec       q    Type
REMARK                         _______ _______ _______ _____ _____    ______ ____
ROOT
ATOM      1  C   UNL     1       7.840   5.408  19.682  0.00  0.00    +0.000 A 
ATOM      2  C   UNL     1       8.285   6.640  19.293  0.00  0.00    +0.000 A 
ATOM      3  C   UNL     1       7.730   7.220  18.150  0.00  0.00    +0.000 A 
ATOM      4  C   UNL     1       6.673   6.568  17.465  0.00  0.00    +0.000 A 
ATOM      5  N   UNL     1       6.044   7.173  16.427  0.00  0.00    +0.000 NA
ATOM      6  C   UNL     1       5.116   6.478  15.747  0.00  0.00    +0.000 A 
ATOM      7  C   UNL     1       4.772   5.174  16.039  0.00  0.00    +0.000 A 
ATOM      8  C   UNL     1       5.355   4.556  17.147  0.00  0.00    +0.000 A 
ATOM      9  C   UNL     1       6.336   5.265  17.902  0.00  0.00    +0.000 A 
ATOM     10  N   UNL     1       6.916   4.727  19.000  0.00  0.00    +0.000 NA
ENDROOT
BRANCH   3  11
ATOM     11  N   UNL     1       8.180   8.471  17.682  0.00  0.00    +0.000 N 
ATOM     12  H   UNL     1       7.544   8.835  16.975  0.00  0.00    +0.000 HD
BRANCH  11  13
ATOM     13  C   UNL     1       8.745   9.459  18.592  0.00  0.00    +0.000 C 
BRANCH  13  14
ATOM     14  C   UNL     1       8.890  10.843  17.907  0.00  0.00    +0.000 C 
BRANCH  14  15
ATOM     15  N   UNL     1       9.319  11.909  18.839  0.00  0.00    +0.000 NA
ATOM     16  C   UNL     1       9.584  13.202  18.176  0.00  0.00    +0.000 C 
ATOM     17  C   UNL     1      10.872  13.201  17.343  0.00  0.00    +0.000 C 
ATOM     18  O   UNL     1      12.000  12.933  18.180  0.00  0.00    +0.000 OA
ATOM     19  C   UNL     1      11.861  11.658  18.825  0.00  0.00    +0.000 C 
ATOM     20  C   UNL     1      10.533  11.529  19.600  0.00  0.00    +0.000 C 
ENDBRANCH  14  15
ENDBRANCH  13  14
ENDBRANCH  11  13
ENDBRANCH   3  11
BRANCH   8  21
ATOM     21  N   UNL     1       5.016   3.164  17.361  0.00  0.00    +0.000 N 
ATOM     22  H   UNL     1       5.716   2.559  16.940  0.00  0.00    +0.000 HD
BRANCH  21  23
ATOM     23  C   UNL     1       3.654   2.812  16.935  0.00  0.00    +0.000 C 
BRANCH  23  24
ATOM     24  C   UNL     1       2.741   2.259  18.045  0.00  0.00    +0.000 C 
BRANCH  24  25
ATOM     25  N   UNL     1       1.462   3.010  18.082  0.00  0.00    +0.000 NA
ATOM     26  C   UNL     1       1.653   4.472  18.046  0.00  0.00    +0.000 C 
ATOM     27  C   UNL     1       2.123   5.080  19.381  0.00  0.00    +0.000 C 
ATOM     28  O   UNL     1       1.329   4.660  20.500  0.00  0.00    +0.000 OA
ATOM     29  C   UNL     1       1.228   3.233  20.560  0.00  0.00    +0.000 C 
ATOM     30  C   UNL     1       0.622   2.697  19.259  0.00  0.00    +0.000 C 
ENDBRANCH  24  25
ENDBRANCH  23  24
ENDBRANCH  21  23
ENDBRANCH   8  21
TORSDOF 8
ENDMDL
MODEL 2
REMARK VINA RESULT:      -7.4      1.050      1.353
REMARK  Name = 
REMARK  8 active torsions:
REMARK  status: ('A' for Active; 'I' for Inactive)
REMARK    1  A    between atoms: C_3  and  N_4
REMARK    2  A    between atoms: N_4  and  C_5
REMARK    3  A    between atoms: C_5  and  C_6
REMARK    4  A    between atoms: C_6  and  N_7
REMARK    5  A    between atoms: C_17  and  N_18
REMARK    6  A    between atoms: N_18  and  C_19
REMARK    7  A    between atoms: C_19  and  C_20
REMARK    8  A    between atoms: C_20  and  N_21
REMARK                            x       y       z     vdW  Elec       q    Type
REMARK                         _______ _______ _______ _____ _____    ______ ____
ROOT
ATOM      1  C   UNL     1       7.573   5.418  19.710  0.00  0.00    +0.000 A 
ATOM      2  C   UNL     1       8.106   6.572  19.211  0.00  0.00    +0.000 A 
ATOM      3  C   UNL     1       7.671   7.023  17.963  0.00  0.00    +0.000 A 
ATOM      4  C   UNL     1       6.640   6.331  17.277  0.00  0.00    +0.000 A 
ATOM      5  N   UNL     1       6.124   6.823  16.124  0.00  0.00    +0.000 NA
ATOM      6  C   UNL     1       5.219   6.084  15.460  0.00  0.00    +0.000 A 
ATOM      7  C   UNL     1       4.790   4.841  15.881  0.00  0.00    +0.000 A 
ATOM      8  C   UNL     1       5.254   4.347  17.102  0.00  0.00    +0.000 A 
ATOM      9  C   UNL     1       6.207   5.108  17.843  0.00  0.00    +0.000 A 
ATOM     10  N   UNL     1       6.672   4.692  19.043  0.00  0.00    +0.000 NA
ENDROOT
BRANCH   3  11
ATOM     11  N   UNL     1       8.217   8.187  17.383  0.00  0.00    +0.000 N 
ATOM     12  H   UNL     1       8.143   8.145  16.368  0.00  0.00    +0.000 HD
BRANCH  11  13
ATOM     13  C   UNL     1       8.004   9.499  17.979  0.00  0.00    +0.000 C 
BRANCH  13  14
ATOM     14  C   UNL     1       9.288  10.019  18.678  0.00  0.00    +0.000 C 
BRANCH  14  15
ATOM     15  N   UNL     1       9.542  11.455  18.429  0.00  0.00    +0.000 NA
ATOM     16  C   UNL     1      10.900  11.735  17.921  0.00  0.00    +0.000 C 
ATOM     17  C   UNL     1      11.990  11.569  18.989  0.00  0.00    +0.000 C 
ATOM     18  O   UNL     1      11.762  12.478  20.069  0.00  0.00    +0.000 OA
ATOM     19  C   UNL     1      10.481  12.240  20.672  0.00  0.00    +0.000 C 
ATOM     20  C   UNL     1       9.330  12.277  19.645  0.00  0.00    +0.000 C 
ENDBRANCH  14  15
ENDBRANCH  13  14
ENDBRANCH  11  13
ENDBRANCH   3  11
BRANCH   8  21
ATOM     21  N   UNL     1       4.832   3.008  17.456  0.00  0.00    +0.000 N 
ATOM     22  H   UNL     1       5.313   2.321  16.884  0.00  0.00    +0.000 HD
BRANCH  21  23
ATOM     23  C   UNL     1       3.375   2.820  17.438  0.00  0.00    +0.000 C 
BRANCH  23  24
ATOM     24  C   UNL     1       2.566   3.878  18.211  0.00  0.00    +0.000 C 
BRANCH  24  25
ATOM     25  N   UNL     1       1.576   3.222  19.101  0.00  0.00    +0.000 NA
ATOM     26  C   UNL     1       0.990   4.150  20.087  0.00  0.00    +0.000 C 
ATOM     27  C   UNL     1       1.921   4.489  21.266  0.00  0.00    +0.000 C 
ATOM     28  O   UNL     1       2.495   3.326  21.882  0.00  0.00    +0.000 OA
ATOM     29  C   UNL     1       3.130   2.484  20.914  0.00  0.00    +0.000 C 
ATOM     30  C   UNL     1       2.118   2.063  19.843  0.00  0.00    +0.000 C 
ENDBRANCH  24  25
ENDBRANCH  23  24
ENDBRANCH  21  23
ENDBRANCH   8  21
TORSDOF 8
ENDMDL
MODEL 3
REMARK VINA RESULT:      -7.4      0.965      9.292
REMARK  Name = 
REMARK  8 active torsions:
REMARK  status: ('A' for Active; 'I' for Inactive)
REMARK    1  A    between atoms: C_3  and  N_4
REMARK    2  A    between atoms: N_4  and  C_5
REMARK    3  A    between atoms: C_5  and  C_6
REMARK    4  A    between atoms: C_6  and  N_7
REMARK    5  A    between atoms: C_17  and  N_18
REMARK    6  A    between atoms: N_18  and  C_19
REMARK    7  A    between atoms: C_19  and  C_20
REMARK    8  A    between atoms: C_20  and  N_21
REMARK                            x       y       z     vdW  Elec       q    Type
REMARK                         _______ _______ _______ _____ _____    ______ ____
ROOT
ATOM      1  C   UNL     1       5.395   5.554  14.981  0.00  0.00    +0.000 A 
ATOM      2  C   UNL     1       4.858   4.389  15.453  0.00  0.00    +0.000 A 
ATOM      3  C   UNL     1       5.191   3.975  16.744  0.00  0.00    +0.000 A 
ATOM      4  C   UNL     1       6.006   4.796  17.564  0.00  0.00    +0.000 A 
ATOM      5  N   UNL     1       6.239   4.467  18.859  0.00  0.00    +0.000 NA
ATOM      6  C   UNL     1       7.096   5.221  19.568  0.00  0.00    +0.000 A 
ATOM      7  C   UNL     1       7.764   6.312  19.049  0.00  0.00    +0.000 A 
ATOM      8  C   UNL     1       7.485   6.712  17.740  0.00  0.00    +0.000 A 
ATOM      9  C   UNL     1       6.571   5.943  16.959  0.00  0.00    +0.000 A 
ATOM     10  N   UNL     1       6.243   6.297  15.695  0.00  0.00    +0.000 NA
ENDROOT
BRANCH   3  11
ATOM     11  N   UNL     1       4.697   2.762  17.265  0.00  0.00    +0.000 N 
ATOM     12  H   UNL     1       5.361   2.364  17.927  0.00  0.00    +0.000 HD
BRANCH  11  13
ATOM     13  C   UNL     1       3.290   2.605  17.609  0.00  0.00    +0.000 C 
BRANCH  13  14
ATOM     14  C   UNL     1       3.115   2.116  19.071  0.00  0.00    +0.000 C 
BRANCH  14  15
ATOM     15  N   UNL     1       1.760   2.371  19.609  0.00  0.00    +0.000 NA
ATOM     16  C   UNL     1       1.160   3.630  19.122  0.00  0.00    +0.000 C 
ATOM     17  C   UNL     1       1.804   4.882  19.731  0.00  0.00    +0.000 C 
ATOM     18  O   UNL     1       1.645   4.876  21.152  0.00  0.00    +0.000 OA
ATOM     19  C   UNL     1       2.257   3.711  21.726  0.00  0.00    +0.000 C 
ATOM     20  C   UNL     1       1.745   2.401  21.091  0.00  0.00    +0.000 C 
ENDBRANCH  14  15
ENDBRANCH  13  14
ENDBRANCH  11  13
ENDBRANCH   3  11
BRANCH   8  21
ATOM     21  N   UNL     1       8.269   7.814  17.223  0.00  0.00    +0.000 N 
ATOM     22  H   UNL     1       9.258   7.579  17.228  0.00  0.00    +0.000 HD
BRANCH  21  23
ATOM     23  C   UNL     1       8.003   9.097  17.888  0.00  0.00    +0.000 C 
BRANCH  23  24
ATOM     24  C   UNL     1       9.162   9.647  18.739  0.00  0.00    +0.000 C 
BRANCH  24  25
ATOM     25  N   UNL     1       8.899  11.058  19.119  0.00  0.00    +0.000 NA
ATOM     26  C   UNL     1       9.032  11.991  17.984  0.00  0.00    +0.000 C 
ATOM     27  C   UNL     1      10.488  12.301  17.589  0.00  0.00    +0.000 C 
ATOM     28  O   UNL     1      11.306  12.679  18.707  0.00  0.00    +0.000 OA
ATOM     29  C   UNL     1      11.223  11.715  19.762  0.00  0.00    +0.000 C 
ATOM     30  C   UNL     1       9.767  11.553  20.210  0.00  0.00    +0.000 C 
ENDBRANCH  24  25
ENDBRANCH  23  24
ENDBRANCH  21  23
ENDBRANCH   8  21
TORSDOF 8
ENDMDL
MODEL 4
REMARK VINA RESULT:      -7.2      0.823      1.110
REMARK  Name = 
REMARK  8 active torsions:
REMARK  status: ('A' for Active; 'I' for Inactive)
REMARK    1  A    between atoms: C_3  and  N_4
REMARK    2  A    between atoms: N_4  and  C_5
REMARK    3  A    between atoms: C_5  and  C_6
REMARK    4  A    between atoms: C_6  and  N_7
REMARK    5  A    between atoms: C_17  and  N_18
REMARK    6  A    between atoms: N_18  and  C_19
REMARK    7  A    between atoms: C_19  and  C_20
REMARK    8  A    between atoms: C_20  and  N_21
REMARK                            x       y       z     vdW  Elec       q    Type
REMARK                         _______ _______ _______ _____ _____    ______ ____
ROOT
ATOM      1  C   UNL     1       7.617   5.405  19.645  0.00  0.00    +0.000 A 
ATOM      2  C   UNL     1       8.107   6.597  19.192  0.00  0.00    +0.000 A 
ATOM      3  C   UNL     1       7.633   7.096  17.977  0.00  0.00    +0.000 A 
ATOM      4  C   UNL     1       6.608   6.410  17.279  0.00  0.00    +0.000 A 
ATOM      5  N   UNL     1       6.054   6.942  16.162  0.00  0.00    +0.000 NA
ATOM      6  C   UNL     1       5.155   6.211  15.480  0.00  0.00    +0.000 A 
ATOM      7  C   UNL     1       4.769   4.937  15.848  0.00  0.00    +0.000 A 
ATOM      8  C   UNL     1       5.273   4.398  17.034  0.00  0.00    +0.000 A 
ATOM      9  C   UNL     1       6.220   5.149  17.792  0.00  0.00    +0.000 A 
ATOM     10  N   UNL     1       6.722   4.688  18.960  0.00  0.00    +0.000 NA
ENDROOT
BRANCH   3  11
ATOM     11  N   UNL     1       8.135   8.301  17.444  0.00  0.00    +0.000 N 
ATOM     12  H   UNL     1       7.889   8.383  16.459  0.00  0.00    +0.000 HD
BRANCH  11  13
ATOM     13  C   UNL     1       8.096   9.540  18.210  0.00  0.00    +0.000 C 
BRANCH  13  14
ATOM     14  C   UNL     1       9.247  10.496  17.801  0.00  0.00    +0.000 C 
BRANCH  14  15
ATOM     15  N   UNL     1      10.101  10.896  18.941  0.00  0.00    +0.000 NA
ATOM     16  C   UNL     1       9.401  11.730  19.939  0.00  0.00    +0.000 C 
ATOM     17  C   UNL     1       9.125  13.157  19.447  0.00  0.00    +0.000 C 
ATOM     18  O   UNL     1      10.356  13.821  19.150  0.00  0.00    +0.000 OA
ATOM     19  C   UNL     1      11.084  13.112  18.136  0.00  0.00    +0.000 C 
ATOM     20  C   UNL     1      11.311  11.630  18.500  0.00  0.00    +0.000 C 
ENDBRANCH  14  15
ENDBRANCH  13  14
ENDBRANCH  11  13
ENDBRANCH   3  11
BRANCH   8  21
ATOM     21  N   UNL     1       4.894   3.032  17.330  0.00  0.00    +0.000 N 
ATOM     22  H   UNL     1       5.383   2.387  16.716  0.00  0.00    +0.000 HD
BRANCH  21  23
ATOM     23  C   UNL     1       3.443   2.803  17.329  0.00  0.00    +0.000 C 
BRANCH  23  24
ATOM     24  C   UNL     1       2.854   2.317  18.666  0.00  0.00    +0.000 C 
BRANCH  24  25
ATOM     25  N   UNL     1       1.692   3.155  19.053  0.00  0.00    +0.000 NA
ATOM     26  C   UNL     1       1.969   4.601  18.953  0.00  0.00    +0.000 C 
ATOM     27  C   UNL     1       2.835   5.158  20.098  0.00  0.00    +0.000 C 
ATOM     28  O   UNL     1       2.357   4.782  21.398  0.00  0.00    +0.000 OA
ATOM     29  C   UNL     1       2.175   3.365  21.496  0.00  0.00    +0.000 C 
ATOM     30  C   UNL     1       1.194   2.888  20.420  0.00  0.00    +0.000 C 
ENDBRANCH  24  25
ENDBRANCH  23  24
ENDBRANCH  21  23
ENDBRANCH   8  21
TORSDOF 8
ENDMDL
MODEL 5
REMARK VINA RESULT:      -7.2      0.932      9.040
REMARK  Name = 
REMARK  8 active torsions:
REMARK  status: ('A' for Active; 'I' for Inactive)
REMARK    1  A    between atoms: C_3  and  N_4
REMARK    2  A    between atoms: N_4  and  C_5
REMARK    3  A    between atoms: C_5  and  C_6
REMARK    4  A    between atoms: C_6  and  N_7
REMARK    5  A    between atoms: C_17  and  N_18
REMARK    6  A    between atoms: N_18  and  C_19
REMARK    7  A    between atoms: C_19  and  C_20
REMARK    8  A    between atoms: C_20  and  N_21
REMARK                            x       y       z     vdW  Elec       q    Type
REMARK                         _______ _______ _______ _____ _____    ______ ____
ROOT
ATOM      1  C   UNL     1       5.075   6.207  15.446  0.00  0.00    +0.000 A 
ATOM      2  C   UNL     1       4.777   4.928  15.822  0.00  0.00    +0.000 A 
ATOM      3  C   UNL     1       5.417   4.394  16.942  0.00  0.00    +0.000 A 
ATOM      4  C   UNL     1       6.294   5.202  17.710  0.00  0.00    +0.000 A 
ATOM      5  N   UNL     1       6.829   4.737  18.867  0.00  0.00    +0.000 NA
ATOM      6  C   UNL     1       7.731   5.501  19.509  0.00  0.00    +0.000 A 
ATOM      7  C   UNL     1       8.153   6.732  19.051  0.00  0.00    +0.000 A 
ATOM      8  C   UNL     1       7.563   7.261  17.900  0.00  0.00    +0.000 A 
ATOM      9  C   UNL     1       6.593   6.486  17.198  0.00  0.00    +0.000 A 
ATOM     10  N   UNL     1       5.970   6.958  16.093  0.00  0.00    +0.000 NA
ENDROOT
BRANCH   3  11
ATOM     11  N   UNL     1       5.177   3.066  17.349  0.00  0.00    +0.000 N 
ATOM     12  H   UNL     1       5.942   2.729  17.931  0.00  0.00    +0.000 HD
BRANCH  11  13
ATOM     13  C   UNL     1       3.845   2.625  17.741  0.00  0.00    +0.000 C 
BRANCH  13  14
ATOM     14  C   UNL     1       3.346   3.378  19.002  0.00  0.00    +0.000 C 
BRANCH  14  15
ATOM     15  N   UNL     1       2.052   4.065  18.793  0.00  0.00    +0.000 NA
ATOM     16  C   UNL     1       2.188   5.408  18.191  0.00  0.00    +0.000 C 
ATOM     17  C   UNL     1       2.760   6.449  19.161  0.00  0.00    +0.000 C 
ATOM     18  O   UNL     1       1.897   6.594  20.292  0.00  0.00    +0.000 OA
ATOM     19  C   UNL     1       1.753   5.345  20.984  0.00  0.00    +0.000 C 
ATOM     20  C   UNL     1       1.286   4.205  20.054  0.00  0.00    +0.000 C 
ENDBRANCH  14  15
ENDBRANCH  13  14
ENDBRANCH  11  13
ENDBRANCH   3  11
BRANCH   8  21
ATOM     21  N   UNL     1       8.099   8.520  17.424  0.00  0.00    +0.000 N 
ATOM     22  H   UNL     1       8.793   8.359  16.700  0.00  0.00    +0.000 HD
BRANCH  21  23
ATOM     23  C   UNL     1       8.606   9.393  18.491  0.00  0.00    +0.000 C 
BRANCH  23  24
ATOM     24  C   UNL     1       9.433  10.601  18.014  0.00  0.00    +0.000 C 
BRANCH  24  25
ATOM     25  N   UNL     1       9.059  11.817  18.777  0.00  0.00    +0.000 NA
ATOM     26  C   UNL     1       9.529  13.061  18.139  0.00  0.00    +0.000 C 
ATOM     27  C   UNL     1      11.034  13.333  18.319  0.00  0.00    +0.000 C 
ATOM     28  O   UNL     1      11.467  13.221  19.683  0.00  0.00    +0.000 OA
ATOM     29  C   UNL     1      11.070  11.969  20.253  0.00  0.00    +0.000 C 
ATOM     30  C   UNL     1       9.548  11.817  20.173  0.00  0.00    +0.000 C 
ENDBRANCH  24  25
ENDBRANCH  23  24
ENDBRANCH  21  23
ENDBRANCH   8  21
TORSDOF 8
ENDMDL
MODEL 6
REMARK VINA RESULT:      -7.2      5.869      8.646
REMARK  Name = 
REMARK  8 active torsions:
REMARK  status: ('A' for Active; 'I' for Inactive)
REMARK    1  A    between atoms: C_3  and  N_4
REMARK    2  A    between atoms: N_4  and  C_5
REMARK    3  A    between atoms: C_5  and  C_6
REMARK    4  A    between atoms: C_6  and  N_7
REMARK    5  A    between atoms: C_17  and  N_18
REMARK    6  A    between atoms: N_18  and  C_19
REMARK    7  A    between atoms: C_19  and  C_20
REMARK    8  A    between atoms: C_20  and  N_21
REMARK                            x       y       z     vdW  Elec       q    Type
REMARK                         _______ _______ _______ _____ _____    ______ ____
ROOT
ATOM      1  C   UNL     1       0.222   9.175  22.340  0.00  0.00    +0.000 A 
ATOM      2  C   UNL     1      -0.175  10.355  21.776  0.00  0.00    +0.000 A 
ATOM      3  C   UNL     1       0.195  10.623  20.457  0.00  0.00    +0.000 A 
ATOM      4  C   UNL     1       0.899   9.648  19.705  0.00  0.00    +0.000 A 
ATOM      5  N   UNL     1       1.159   9.844  18.389  0.00  0.00    +0.000 NA
ATOM      6  C   UNL     1       1.913   8.938  17.742  0.00  0.00    +0.000 A 
ATOM      7  C   UNL     1       2.449   7.819  18.347  0.00  0.00    +0.000 A 
ATOM      8  C   UNL     1       2.134   7.560  19.683  0.00  0.00    +0.000 A 
ATOM      9  C   UNL     1       1.326   8.492  20.400  0.00  0.00    +0.000 A 
ATOM     10  N   UNL     1       0.968   8.281  21.687  0.00  0.00    +0.000 NA
ENDROOT
BRANCH   3  11
ATOM     11  N   UNL     1      -0.154  11.842  19.841  0.00  0.00    +0.000 N 
ATOM     12  H   UNL     1       0.419  11.998  19.013  0.00  0.00    +0.000 HD
BRANCH  11  13
ATOM     13  C   UNL     1      -1.543  12.266  19.736  0.00  0.00    +0.000 C 
BRANCH  13  14
ATOM     14  C   UNL     1      -2.065  12.147  18.280  0.00  0.00    +0.000 C 
BRANCH  14  15
ATOM     15  N   UNL     1      -3.123  11.124  18.125  0.00  0.00    +0.000 NA
ATOM     16  C   UNL     1      -2.597   9.763  17.894  0.00  0.00    +0.000 C 
ATOM     17  C   UNL     1      -1.997   9.576  16.495  0.00  0.00    +0.000 C 
ATOM     18  O   UNL     1      -2.996   9.803  15.497  0.00  0.00    +0.000 OA
ATOM     19  C   UNL     1      -3.526  11.133  15.603  0.00  0.00    +0.000 C 
ATOM     20  C   UNL     1      -4.053  11.448  17.018  0.00  0.00    +0.000 C 
ENDBRANCH  14  15
ENDBRANCH  13  14
ENDBRANCH  11  13
ENDBRANCH   3  11
BRANCH   8  21
ATOM     21  N   UNL     1       2.785   6.415  20.287  0.00  0.00    +0.000 N 
ATOM     22  H   UNL     1       3.223   6.678  21.165  0.00  0.00    +0.000 HD
BRANCH  21  23
ATOM     23  C   UNL     1       3.718   5.720  19.390  0.00  0.00    +0.000 C 
BRANCH  23  24
ATOM     24  C   UNL     1       3.924   4.224  19.689  0.00  0.00    +0.000 C 
BRANCH  24  25
ATOM     25  N   UNL     1       3.725   3.419  18.458  0.00  0.00    +0.000 NA
ATOM     26  C   UNL     1       2.795   4.052  17.503  0.00  0.00    +0.000 C 
ATOM     27  C   UNL     1       1.311   3.936  17.897  0.00  0.00    +0.000 C 
ATOM     28  O   UNL     1       0.921   2.596  18.232  0.00  0.00    +0.000 OA
ATOM     29  C   UNL     1       1.790   2.033  19.222  0.00  0.00    +0.000 C 
ATOM     30  C   UNL     1       3.236   2.047  18.716  0.00  0.00    +0.000 C 
ENDBRANCH  24  25
ENDBRANCH  23  24
ENDBRANCH  21  23
ENDBRANCH   8  21
TORSDOF 8
ENDMDL
MODEL 7
REMARK VINA RESULT:      -7.2      5.881      8.323
REMARK  Name = 
REMARK  8 active torsions:
REMARK  status: ('A' for Active; 'I' for Inactive)
REMARK    1  A    between atoms: C_3  and  N_4
REMARK    2  A    between atoms: N_4  and  C_5
REMARK    3  A    between atoms: C_5  and  C_6
REMARK    4  A    between atoms: C_6  and  N_7
REMARK    5  A    between atoms: C_17  and  N_18
REMARK    6  A    between atoms: N_18  and  C_19
REMARK    7  A    between atoms: C_19  and  C_20
REMARK    8  A    between atoms: C_20  and  N_21
REMARK                            x       y       z     vdW  Elec       q    Type
REMARK                         _______ _______ _______ _____ _____    ______ ____
ROOT
ATOM      1  C   UNL     1       1.810   9.340  17.562  0.00  0.00    +0.000 A 
ATOM      2  C   UNL     1       2.414   8.180  17.956  0.00  0.00    +0.000 A 
ATOM      3  C   UNL     1       2.255   7.759  19.278  0.00  0.00    +0.000 A 
ATOM      4  C   UNL     1       1.416   8.488  20.158  0.00  0.00    +0.000 A 
ATOM      5  N   UNL     1       1.156   8.028  21.407  0.00  0.00    +0.000 NA
ATOM      6  C   UNL     1       0.435   8.800  22.239  0.00  0.00    +0.000 A 
ATOM      7  C   UNL     1      -0.048  10.047  21.896  0.00  0.00    +0.000 A 
ATOM      8  C   UNL     1       0.147  10.510  20.593  0.00  0.00    +0.000 A 
ATOM      9  C   UNL     1       0.896   9.713  19.677  0.00  0.00    +0.000 A 
ATOM     10  N   UNL     1       1.094  10.098  18.396  0.00  0.00    +0.000 NA
ENDROOT
BRANCH   3  11
ATOM     11  N   UNL     1       2.889   6.591  19.747  0.00  0.00    +0.000 N 
ATOM     12  H   UNL     1       2.813   6.529  20.761  0.00  0.00    +0.000 HD
BRANCH  11  13
ATOM     13  C   UNL     1       2.779   5.330  19.027  0.00  0.00    +0.000 C 
BRANCH  13  14
ATOM     14  C   UNL     1       4.159   4.855  18.499  0.00  0.00    +0.000 C 
BRANCH  14  15
ATOM     15  N   UNL     1       5.164   5.941  18.449  0.00  0.00    +0.000 NA
ATOM     16  C   UNL     1       5.385   6.478  17.090  0.00  0.00    +0.000 C 
ATOM     17  C   UNL     1       6.154   5.514  16.178  0.00  0.00    +0.000 C 
ATOM     18  O   UNL     1       7.447   5.243  16.726  0.00  0.00    +0.000 OA
ATOM     19  C   UNL     1       7.332   4.656  18.030  0.00  0.00    +0.000 C 
ATOM     20  C   UNL     1       6.475   5.510  18.989  0.00  0.00    +0.000 C 
ENDBRANCH  14  15
ENDBRANCH  13  14
ENDBRANCH  11  13
ENDBRANCH   3  11
BRANCH   8  21
ATOM     21  N   UNL     1      -0.314  11.854  20.313  0.00  0.00    +0.000 N 
ATOM     22  H   UNL     1      -0.081  12.477  21.081  0.00  0.00    +0.000 HD
BRANCH  21  23
ATOM     23  C   UNL     1      -1.736  11.932  19.951  0.00  0.00    +0.000 C 
BRANCH  23  24
ATOM     24  C   UNL     1      -2.037  11.840  18.444  0.00  0.00    +0.000 C 
BRANCH  24  25
ATOM     25  N   UNL     1      -2.719  10.561  18.130  0.00  0.00    +0.000 NA
ATOM     26  C   UNL     1      -2.193   9.913  16.913  0.00  0.00    +0.000 C 
ATOM     27  C   UNL     1      -2.664  10.562  15.599  0.00  0.00    +0.000 C 
ATOM     28  O   UNL     1      -4.086  10.753  15.544  0.00  0.00    +0.000 OA
ATOM     29  C   UNL     1      -4.561  11.457  16.697  0.00  0.00    +0.000 C 
ATOM     30  C   UNL     1      -4.184  10.691  17.970  0.00  0.00    +0.000 C 
ENDBRANCH  24  25
ENDBRANCH  23  24
ENDBRANCH  21  23
ENDBRANCH   8  21
TORSDOF 8
ENDMDL
MODEL 8
REMARK VINA RESULT:      -7.1      5.817      9.097
REMARK  Name = 
REMARK  8 active torsions:
REMARK  status: ('A' for Active; 'I' for Inactive)
REMARK    1  A    between atoms: C_3  and  N_4
REMARK    2  A    between atoms: N_4  and  C_5
REMARK    3  A    between atoms: C_5  and  C_6
REMARK    4  A    between atoms: C_6  and  N_7
REMARK    5  A    between atoms: C_17  and  N_18
REMARK    6  A    between atoms: N_18  and  C_19
REMARK    7  A    between atoms: C_19  and  C_20
REMARK    8  A    between atoms: C_20  and  N_21
REMARK                            x       y       z     vdW  Elec       q    Type
REMARK                         _______ _______ _______ _____ _____    ______ ____
ROOT
ATOM      1  C   UNL     1       1.999   8.943  17.874  0.00  0.00    +0.000 A 
ATOM      2  C   UNL     1       2.391   7.791  18.497  0.00  0.00    +0.000 A 
ATOM      3  C   UNL     1       2.049   7.607  19.838  0.00  0.00    +0.000 A 
ATOM      4  C   UNL     1       1.245   8.567  20.504  0.00  0.00    +0.000 A 
ATOM      5  N   UNL     1       0.805   8.345  21.767  0.00  0.00    +0.000 NA
ATOM      6  C   UNL     1       0.129   9.325  22.392  0.00  0.00    +0.000 A 
ATOM      7  C   UNL     1      -0.136  10.554  21.822  0.00  0.00    +0.000 A 
ATOM      8  C   UNL     1       0.245  10.778  20.497  0.00  0.00    +0.000 A 
ATOM      9  C   UNL     1       0.954   9.757  19.796  0.00  0.00    +0.000 A 
ATOM     10  N   UNL     1       1.325   9.908  18.504  0.00  0.00    +0.000 NA
ENDROOT
BRANCH   3  11
ATOM     11  N   UNL     1       2.462   6.456  20.539  0.00  0.00    +0.000 N 
ATOM     12  H   UNL     1       2.683   6.689  21.505  0.00  0.00    +0.000 HD
BRANCH  11  13
ATOM     13  C   UNL     1       1.808   5.171  20.333  0.00  0.00    +0.000 C 
BRANCH  13  14
ATOM     14  C   UNL     1       1.991   4.668  18.877  0.00  0.00    +0.000 C 
BRANCH  14  15
ATOM     15  N   UNL     1       2.868   3.479  18.781  0.00  0.00    +0.000 NA
ATOM     16  C   UNL     1       4.128   3.612  19.541  0.00  0.00    +0.000 C 
ATOM     17  C   UNL     1       5.121   4.588  18.896  0.00  0.00    +0.000 C 
ATOM     18  O   UNL     1       5.478   4.134  17.588  0.00  0.00    +0.000 OA
ATOM     19  C   UNL     1       4.317   4.033  16.751  0.00  0.00    +0.000 C 
ATOM     20  C   UNL     1       3.213   3.154  17.376  0.00  0.00    +0.000 C 
ENDBRANCH  14  15
ENDBRANCH  13  14
ENDBRANCH  11  13
ENDBRANCH   3  11
BRANCH   8  21
ATOM     21  N   UNL     1       0.010  12.109  19.977  0.00  0.00    +0.000 N 
ATOM     22  H   UNL     1       0.302  12.810  20.651  0.00  0.00    +0.000 HD
BRANCH  21  23
ATOM     23  C   UNL     1      -1.365  12.331  19.510  0.00  0.00    +0.000 C 
BRANCH  23  24
ATOM     24  C   UNL     1      -1.636  11.928  18.049  0.00  0.00    +0.000 C 
BRANCH  24  25
ATOM     25  N   UNL     1      -2.449  10.688  17.997  0.00  0.00    +0.000 NA
ATOM     26  C   UNL     1      -2.143   9.850  16.822  0.00  0.00    +0.000 C 
ATOM     27  C   UNL     1      -2.739  10.373  15.502  0.00  0.00    +0.000 C 
ATOM     28  O   UNL     1      -4.136  10.687  15.600  0.00  0.00    +0.000 OA
ATOM     29  C   UNL     1      -4.395  11.568  16.699  0.00  0.00    +0.000 C 
ATOM     30  C   UNL     1      -3.908  10.933  18.005  0.00  0.00    +0.000 C 
ENDBRANCH  24  25
ENDBRANCH  23  24
ENDBRANCH  21  23
ENDBRANCH   8  21
TORSDOF 8
ENDMDL
MODEL 9
REMARK VINA RESULT:      -7.0      1.081      9.737
REMARK  Name = 
REMARK  8 active torsions:
REMARK  status: ('A' for Active; 'I' for Inactive)
REMARK    1  A    between atoms: C_3  and  N_4
REMARK    2  A    between atoms: N_4  and  C_5
REMARK    3  A    between atoms: C_5  and  C_6
REMARK    4  A    between atoms: C_6  and  N_7
REMARK    5  A    between atoms: C_17  and  N_18
REMARK    6  A    between atoms: N_18  and  C_19
REMARK    7  A    between atoms: C_19  and  C_20
REMARK    8  A    between atoms: C_20  and  N_21
REMARK                            x       y       z     vdW  Elec       q    Type
REMARK                         _______ _______ _______ _____ _____    ______ ____
ROOT
ATOM      1  C   UNL     1       5.101   6.476  15.398  0.00  0.00    +0.000 A 
ATOM      2  C   UNL     1       4.882   5.155  15.669  0.00  0.00    +0.000 A 
ATOM      3  C   UNL     1       5.587   4.563  16.719  0.00  0.00    +0.000 A 
ATOM      4  C   UNL     1       6.447   5.348  17.528  0.00  0.00    +0.000 A 
ATOM      5  N   UNL     1       7.044   4.815  18.623  0.00  0.00    +0.000 NA
ATOM      6  C   UNL     1       7.927   5.569  19.303  0.00  0.00    +0.000 A 
ATOM      7  C   UNL     1       8.269   6.856  18.942  0.00  0.00    +0.000 A 
ATOM      8  C   UNL     1       7.613   7.449  17.861  0.00  0.00    +0.000 A 
ATOM      9  C   UNL     1       6.661   6.686  17.122  0.00  0.00    +0.000 A 
ATOM     10  N   UNL     1       5.977   7.216  16.082  0.00  0.00    +0.000 NA
ENDROOT
BRANCH   3  11
ATOM     11  N   UNL     1       5.430   3.193  17.015  0.00  0.00    +0.000 N 
ATOM     12  H   UNL     1       6.237   2.847  17.530  0.00  0.00    +0.000 HD
BRANCH  11  13
ATOM     13  C   UNL     1       4.140   2.652  17.421  0.00  0.00    +0.000 C 
BRANCH  13  14
ATOM     14  C   UNL     1       3.692   3.221  18.792  0.00  0.00    +0.000 C 
BRANCH  14  15
ATOM     15  N   UNL     1       3.090   2.197  19.676  0.00  0.00    +0.000 NA
ATOM     16  C   UNL     1       1.661   1.945  19.398  0.00  0.00    +0.000 C 
ATOM     17  C   UNL     1       0.747   3.092  19.848  0.00  0.00    +0.000 C 
ATOM     18  O   UNL     1       0.862   3.288  21.260  0.00  0.00    +0.000 OA
ATOM     19  C   UNL     1       2.215   3.602  21.621  0.00  0.00    +0.000 C 
ATOM     20  C   UNL     1       3.222   2.552  21.109  0.00  0.00    +0.000 C 
ENDBRANCH  14  15
ENDBRANCH  13  14
ENDBRANCH  11  13
ENDBRANCH   3  11
BRANCH   8  21
ATOM     21  N   UNL     1       8.066   8.771  17.481  0.00  0.00    +0.000 N 
ATOM     22  H   UNL     1       8.637   8.724  16.641  0.00  0.00    +0.000 HD
BRANCH  21  23
ATOM     23  C   UNL     1       8.737   9.504  18.563  0.00  0.00    +0.000 C 
BRANCH  23  24
ATOM     24  C   UNL     1       8.999  10.996  18.283  0.00  0.00    +0.000 C 
BRANCH  24  25
ATOM     25  N   UNL     1       9.951  11.549  19.277  0.00  0.00    +0.000 NA
ATOM     26  C   UNL     1       9.599  12.915  19.710  0.00  0.00    +0.000 C 
ATOM     27  C   UNL     1       9.936  14.010  18.681  0.00  0.00    +0.000 C 
ATOM     28  O   UNL     1      11.281  13.923  18.188  0.00  0.00    +0.000 OA
ATOM     29  C   UNL     1      11.572  12.610  17.697  0.00  0.00    +0.000 C 
ATOM     30  C   UNL     1      11.354  11.576  18.807  0.00  0.00    +0.000 C 
ENDBRANCH  24  25
ENDBRANCH  23  24
ENDBRANCH  21  23
ENDBRANCH   8  21
TORSDOF 8
ENDMDL
