MODEL 1
REMARK VINA RESULT:      -7.1      0.000      0.000
REMARK  Name = 
REMARK  7 active torsions:
REMARK  status: ('A' for Active; 'I' for Inactive)
REMARK    1  A    between atoms: C_1  and  C_2
REMARK    2  A    between atoms: C_2  and  C_3
REMARK    3  A    between atoms: C_3  and  C_4
REMARK    4  A    between atoms: C_4  and  O_5
REMARK    5  A    between atoms: O_5  and  C_6
REMARK    6  A    between atoms: C_6  and  C_8
REMARK    7  A    between atoms: C_10  and  O_11
REMARK                            x       y       z     vdW  Elec       q    Type
REMARK                         _______ _______ _______ _____ _____    ______ ____
ROOT
ATOM      1  C   UNL     1       4.783   5.521  17.083  0.00  0.00    +0.000 A 
ATOM      2  C   UNL     1       4.475   6.882  17.230  0.00  0.00    +0.000 A 
ATOM      3  C   UNL     1       3.261   7.221  17.771  0.00  0.00    +0.000 A 
ATOM      4  N   UNL     1       2.350   6.328  18.166  0.00  0.00    +0.000 NA
ATOM      5  C   UNL     1       2.611   5.024  17.999  0.00  0.00    +0.000 A 
ATOM      6  C   UNL     1       1.622   4.132  18.376  0.00  0.00    +0.000 A 
ATOM      7  C   UNL     1       1.769   2.755  18.220  0.00  0.00    +0.000 A 
ATOM      8  C   UNL     1       2.951   2.251  17.707  0.00  0.00    +0.000 A 
ATOM      9  C   UNL     1       3.975   3.128  17.345  0.00  0.00    +0.000 A 
ATOM     10  C   UNL     1       3.828   4.538  17.462  0.00  0.00    +0.000 A 
ENDROOT
BRANCH   1  11
ATOM     11  C   UNL     1       6.163   5.155  16.616  0.00  0.00    +0.000 C 
ATOM     12  O   UNL     1       7.005   4.549  17.253  0.00  0.00    +0.000 OA
BRANCH  11  13
ATOM     13  O   UNL     1       6.399   5.753  15.417  0.00  0.00    +0.000 OA
BRANCH  13  14
ATOM     14  C   UNL     1       6.843   4.865  14.389  0.00  0.00    +0.000 C 
BRANCH  14  15
ATOM     15  C   UNL     1       5.746   3.907  13.950  0.00  0.00    +0.000 C 
BRANCH  15  17
ATOM     16  C   UNL     1       4.767   3.262  11.709  0.00  0.00    +0.000 C 
ATOM     17  C   UNL     1       6.033   3.434  12.524  0.00  0.00    +0.000 C 
ENDBRANCH  15  17
ENDBRANCH  14  15
ENDBRANCH  13  14
ENDBRANCH  11  13
ENDBRANCH   1  11
BRANCH   3  18
ATOM     18  O   UNL     1       2.911   8.527  17.965  0.00  0.00    +0.000 OA
ATOM     19  H   UNL     1       1.958   8.572  18.117  0.00  0.00    +0.000 HD
ENDBRANCH   3  18
TORSDOF 6
ENDMDL
MODEL 2
REMARK VINA RESULT:      -7.0      2.007      2.566
REMARK  Name = 
REMARK  7 active torsions:
REMARK  status: ('A' for Active; 'I' for Inactive)
REMARK    1  A    between atoms: C_1  and  C_2
REMARK    2  A    between atoms: C_2  and  C_3
REMARK    3  A    between atoms: C_3  and  C_4
REMARK    4  A    between atoms: C_4  and  O_5
REMARK    5  A    between atoms: O_5  and  C_6
REMARK    6  A    between atoms: C_6  and  C_8
REMARK    7  A    between atoms: C_10  and  O_11
REMARK                            x       y       z     vdW  Elec       q    Type
REMARK                         _______ _______ _______ _____ _____    ______ ____
ROOT
ATOM      1  C   UNL     1       5.707   5.247  17.094  0.00  0.00    +0.000 A 
ATOM      2  C   UNL     1       6.724   5.713  17.941  0.00  0.00    +0.000 A 
ATOM      3  C   UNL     1       6.731   5.291  19.245  0.00  0.00    +0.000 A 
ATOM      4  N   UNL     1       5.821   4.461  19.761  0.00  0.00    +0.000 NA
ATOM      5  C   UNL     1       4.821   4.034  18.978  0.00  0.00    +0.000 A 
ATOM      6  C   UNL     1       3.871   3.214  19.561  0.00  0.00    +0.000 A 
ATOM      7  C   UNL     1       2.770   2.736  18.854  0.00  0.00    +0.000 A 
ATOM      8  C   UNL     1       2.631   3.056  17.514  0.00  0.00    +0.000 A 
ATOM      9  C   UNL     1       3.590   3.858  16.895  0.00  0.00    +0.000 A 
ATOM     10  C   UNL     1       4.700   4.386  17.611  0.00  0.00    +0.000 A 
ENDROOT
BRANCH   1  11
ATOM     11  C   UNL     1       5.781   5.605  15.637  0.00  0.00    +0.000 C 
ATOM     12  O   UNL     1       5.325   6.604  15.114  0.00  0.00    +0.000 OA
BRANCH  11  13
ATOM     13  O   UNL     1       6.295   4.551  14.948  0.00  0.00    +0.000 OA
BRANCH  13  14
ATOM     14  C   UNL     1       5.524   4.154  13.811  0.00  0.00    +0.000 C 
BRANCH  14  15
ATOM     15  C   UNL     1       6.401   3.651  12.674  0.00  0.00    +0.000 C 
BRANCH  15  17
ATOM     16  C   UNL     1       4.257   3.249  11.395  0.00  0.00    +0.000 C 
ATOM     17  C   UNL     1       5.597   2.678  11.812  0.00  0.00    +0.000 C 
ENDBRANCH  15  17
ENDBRANCH  14  15
ENDBRANCH  13  14
ENDBRANCH  11  13
ENDBRANCH   1  11
BRANCH   3  18
ATOM     18  O   UNL     1       7.709   5.687  20.113  0.00  0.00    +0.000 OA
ATOM     19  H   UNL     1       7.313   6.259  20.784  0.00  0.00    +0.000 HD
ENDBRANCH   3  18
TORSDOF 6
ENDMDL
MODEL 3
REMARK VINA RESULT:      -7.0      2.452      5.730
REMARK  Name = 
REMARK  7 active torsions:
REMARK  status: ('A' for Active; 'I' for Inactive)
REMARK    1  A    between atoms: C_1  and  C_2
REMARK    2  A    between atoms: C_2  and  C_3
REMARK    3  A    between atoms: C_3  and  C_4
REMARK    4  A    between atoms: C_4  and  O_5
REMARK    5  A    between atoms: O_5  and  C_6
REMARK    6  A    between atoms: C_6  and  C_8
REMARK    7  A    between atoms: C_10  and  O_11
REMARK                            x       y       z     vdW  Elec       q    Type
REMARK                         _______ _______ _______ _____ _____    ______ ____
ROOT
ATOM      1  C   UNL     1       4.807   4.964  18.169  0.00  0.00    +0.000 A 
ATOM      2  C   UNL     1       5.581   5.199  19.316  0.00  0.00    +0.000 A 
ATOM      3  C   UNL     1       6.939   5.325  19.171  0.00  0.00    +0.000 A 
ATOM      4  N   UNL     1       7.572   5.233  17.999  0.00  0.00    +0.000 NA
ATOM      5  C   UNL     1       6.853   4.973  16.898  0.00  0.00    +0.000 A 
ATOM      6  C   UNL     1       7.550   4.837  15.710  0.00  0.00    +0.000 A 
ATOM      7  C   UNL     1       6.914   4.535  14.508  0.00  0.00    +0.000 A 
ATOM      8  C   UNL     1       5.536   4.399  14.483  0.00  0.00    +0.000 A 
ATOM      9  C   UNL     1       4.808   4.558  15.662  0.00  0.00    +0.000 A 
ATOM     10  C   UNL     1       5.444   4.830  16.905  0.00  0.00    +0.000 A 
ENDROOT
BRANCH   1  11
ATOM     11  C   UNL     1       3.312   4.962  18.314  0.00  0.00    +0.000 C 
ATOM     12  O   UNL     1       2.588   5.940  18.353  0.00  0.00    +0.000 OA
BRANCH  11  13
ATOM     13  O   UNL     1       2.892   3.693  18.565  0.00  0.00    +0.000 OA
BRANCH  13  14
ATOM     14  C   UNL     1       1.532   3.437  18.207  0.00  0.00    +0.000 C 
BRANCH  14  15
ATOM     15  C   UNL     1       0.765   2.755  19.330  0.00  0.00    +0.000 C 
BRANCH  15  17
ATOM     16  C   UNL     1       1.673   2.611  21.686  0.00  0.00    +0.000 C 
ATOM     17  C   UNL     1       1.027   3.498  20.640  0.00  0.00    +0.000 C 
ENDBRANCH  15  17
ENDBRANCH  14  15
ENDBRANCH  13  14
ENDBRANCH  11  13
ENDBRANCH   1  11
BRANCH   3  18
ATOM     18  O   UNL     1       7.745   5.580  20.244  0.00  0.00    +0.000 OA
ATOM     19  H   UNL     1       7.231   6.052  20.912  0.00  0.00    +0.000 HD
ENDBRANCH   3  18
TORSDOF 6
ENDMDL
MODEL 4
REMARK VINA RESULT:      -7.0      2.510      5.144
REMARK  Name = 
REMARK  7 active torsions:
REMARK  status: ('A' for Active; 'I' for Inactive)
REMARK    1  A    between atoms: C_1  and  C_2
REMARK    2  A    between atoms: C_2  and  C_3
REMARK    3  A    between atoms: C_3  and  C_4
REMARK    4  A    between atoms: C_4  and  O_5
REMARK    5  A    between atoms: O_5  and  C_6
REMARK    6  A    between atoms: C_6  and  C_8
REMARK    7  A    between atoms: C_10  and  O_11
REMARK                            x       y       z     vdW  Elec       q    Type
REMARK                         _______ _______ _______ _____ _____    ______ ____
ROOT
ATOM      1  C   UNL     1       4.448   4.502  17.897  0.00  0.00    +0.000 A 
ATOM      2  C   UNL     1       5.264   4.498  16.755  0.00  0.00    +0.000 A 
ATOM      3  C   UNL     1       5.364   5.653  16.022  0.00  0.00    +0.000 A 
ATOM      4  N   UNL     1       4.726   6.785  16.330  0.00  0.00    +0.000 NA
ATOM      5  C   UNL     1       3.914   6.797  17.397  0.00  0.00    +0.000 A 
ATOM      6  C   UNL     1       3.233   7.974  17.655  0.00  0.00    +0.000 A 
ATOM      7  C   UNL     1       2.339   8.095  18.716  0.00  0.00    +0.000 A 
ATOM      8  C   UNL     1       2.144   7.020  19.566  0.00  0.00    +0.000 A 
ATOM      9  C   UNL     1       2.839   5.830  19.344  0.00  0.00    +0.000 A 
ATOM     10  C   UNL     1       3.727   5.677  18.244  0.00  0.00    +0.000 A 
ENDROOT
BRANCH   1  11
ATOM     11  C   UNL     1       4.448   3.279  18.769  0.00  0.00    +0.000 C 
ATOM     12  O   UNL     1       5.133   3.096  19.758  0.00  0.00    +0.000 OA
BRANCH  11  13
ATOM     13  O   UNL     1       3.676   2.320  18.189  0.00  0.00    +0.000 OA
BRANCH  13  14
ATOM     14  C   UNL     1       2.609   1.841  19.011  0.00  0.00    +0.000 C 
BRANCH  14  15
ATOM     15  C   UNL     1       1.297   2.551  18.714  0.00  0.00    +0.000 C 
BRANCH  15  17
ATOM     16  C   UNL     1       1.605   2.810  21.211  0.00  0.00    +0.000 C 
ATOM     17  C   UNL     1       0.721   3.107  20.016  0.00  0.00    +0.000 C 
ENDBRANCH  15  17
ENDBRANCH  14  15
ENDBRANCH  13  14
ENDBRANCH  11  13
ENDBRANCH   1  11
BRANCH   3  18
ATOM     18  O   UNL     1       6.161   5.723  14.915  0.00  0.00    +0.000 OA
ATOM     19  H   UNL     1       6.745   4.952  14.905  0.00  0.00    +0.000 HD
ENDBRANCH   3  18
TORSDOF 6
ENDMDL
MODEL 5
REMARK VINA RESULT:      -6.8      2.567      5.701
REMARK  Name = 
REMARK  7 active torsions:
REMARK  status: ('A' for Active; 'I' for Inactive)
REMARK    1  A    between atoms: C_1  and  C_2
REMARK    2  A    between atoms: C_2  and  C_3
REMARK    3  A    between atoms: C_3  and  C_4
REMARK    4  A    between atoms: C_4  and  O_5
REMARK    5  A    between atoms: O_5  and  C_6
REMARK    6  A    between atoms: C_6  and  C_8
REMARK    7  A    between atoms: C_10  and  O_11
REMARK                            x       y       z     vdW  Elec       q    Type
REMARK                         _______ _______ _______ _____ _____    ______ ____
ROOT
ATOM      1  C   UNL     1       4.804   4.015  17.836  0.00  0.00    +0.000 A 
ATOM      2  C   UNL     1       5.412   4.403  19.040  0.00  0.00    +0.000 A 
ATOM      3  C   UNL     1       6.623   5.043  18.981  0.00  0.00    +0.000 A 
ATOM      4  N   UNL     1       7.263   5.317  17.842  0.00  0.00    +0.000 NA
ATOM      5  C   UNL     1       6.716   4.921  16.684  0.00  0.00    +0.000 A 
ATOM      6  C   UNL     1       7.432   5.180  15.529  0.00  0.00    +0.000 A 
ATOM      7  C   UNL     1       6.978   4.787  14.272  0.00  0.00    +0.000 A 
ATOM      8  C   UNL     1       5.755   4.147  14.160  0.00  0.00    +0.000 A 
ATOM      9  C   UNL     1       5.001   3.899  15.307  0.00  0.00    +0.000 A 
ATOM     10  C   UNL     1       5.466   4.260  16.602  0.00  0.00    +0.000 A 
ENDROOT
BRANCH   1  11
ATOM     11  C   UNL     1       3.418   3.437  17.898  0.00  0.00    +0.000 C 
ATOM     12  O   UNL     1       3.116   2.267  17.758  0.00  0.00    +0.000 OA
BRANCH  11  13
ATOM     13  O   UNL     1       2.517   4.453  17.971  0.00  0.00    +0.000 OA
BRANCH  13  14
ATOM     14  C   UNL     1       1.540   4.306  19.004  0.00  0.00    +0.000 C 
BRANCH  14  15
ATOM     15  C   UNL     1       1.952   5.015  20.285  0.00  0.00    +0.000 C 
BRANCH  15  17
ATOM     16  C   UNL     1       1.467   2.664  21.082  0.00  0.00    +0.000 C 
ATOM     17  C   UNL     1       2.158   3.978  21.389  0.00  0.00    +0.000 C 
ENDBRANCH  15  17
ENDBRANCH  14  15
ENDBRANCH  13  14
ENDBRANCH  11  13
ENDBRANCH   1  11
BRANCH   3  18
ATOM     18  O   UNL     1       7.255   5.470  20.115  0.00  0.00    +0.000 OA
ATOM     19  H   UNL     1       7.564   4.697  20.606  0.00  0.00    +0.000 HD
ENDBRANCH   3  18
TORSDOF 6
ENDMDL
MODEL 6
REMARK VINA RESULT:      -6.7      2.672      5.522
REMARK  Name = 
REMARK  7 active torsions:
REMARK  status: ('A' for Active; 'I' for Inactive)
REMARK    1  A    between atoms: C_1  and  C_2
REMARK    2  A    between atoms: C_2  and  C_3
REMARK    3  A    between atoms: C_3  and  C_4
REMARK    4  A    between atoms: C_4  and  O_5
REMARK    5  A    between atoms: O_5  and  C_6
REMARK    6  A    between atoms: C_6  and  C_8
REMARK    7  A    between atoms: C_10  and  O_11
REMARK                            x       y       z     vdW  Elec       q    Type
REMARK                         _______ _______ _______ _____ _____    ______ ____
ROOT
ATOM      1  C   UNL     1       5.879   4.715  18.532  0.00  0.00    +0.000 A 
ATOM      2  C   UNL     1       6.757   5.578  19.204  0.00  0.00    +0.000 A 
ATOM      3  C   UNL     1       7.637   6.322  18.460  0.00  0.00    +0.000 A 
ATOM      4  N   UNL     1       7.710   6.270  17.128  0.00  0.00    +0.000 NA
ATOM      5  C   UNL     1       6.904   5.425  16.471  0.00  0.00    +0.000 A 
ATOM      6  C   UNL     1       7.043   5.365  15.095  0.00  0.00    +0.000 A 
ATOM      7  C   UNL     1       6.282   4.501  14.310  0.00  0.00    +0.000 A 
ATOM      8  C   UNL     1       5.329   3.697  14.913  0.00  0.00    +0.000 A 
ATOM      9  C   UNL     1       5.151   3.758  16.295  0.00  0.00    +0.000 A 
ATOM     10  C   UNL     1       5.944   4.607  17.116  0.00  0.00    +0.000 A 
ENDROOT
BRANCH   1  11
ATOM     11  C   UNL     1       4.829   4.006  19.339  0.00  0.00    +0.000 C 
ATOM     12  O   UNL     1       4.785   2.814  19.580  0.00  0.00    +0.000 OA
BRANCH  11  13
ATOM     13  O   UNL     1       3.827   4.879  19.628  0.00  0.00    +0.000 OA
BRANCH  13  14
ATOM     14  C   UNL     1       2.720   4.831  18.723  0.00  0.00    +0.000 C 
BRANCH  14  15
ATOM     15  C   UNL     1       1.615   3.914  19.222  0.00  0.00    +0.000 C 
BRANCH  15  17
ATOM     16  C   UNL     1       1.627   2.894  21.536  0.00  0.00    +0.000 C 
ATOM     17  C   UNL     1       1.403   4.149  20.718  0.00  0.00    +0.000 C 
ENDBRANCH  15  17
ENDBRANCH  14  15
ENDBRANCH  13  14
ENDBRANCH  11  13
ENDBRANCH   1  11
BRANCH   3  18
ATOM     18  O   UNL     1       8.500   7.199  19.052  0.00  0.00    +0.000 OA
ATOM     19  H   UNL     1       8.028   8.023  19.234  0.00  0.00    +0.000 HD
ENDBRANCH   3  18
TORSDOF 6
ENDMDL
MODEL 7
REMARK VINA RESULT:      -6.7      2.272      5.141
REMARK  Name = 
REMARK  7 active torsions:
REMARK  status: ('A' for Active; 'I' for Inactive)
REMARK    1  A    between atoms: C_1  and  C_2
REMARK    2  A    between atoms: C_2  and  C_3
REMARK    3  A    between atoms: C_3  and  C_4
REMARK    4  A    between atoms: C_4  and  O_5
REMARK    5  A    between atoms: O_5  and  C_6
REMARK    6  A    between atoms: C_6  and  C_8
REMARK    7  A    between atoms: C_10  and  O_11
REMARK                            x       y       z     vdW  Elec       q    Type
REMARK                         _______ _______ _______ _____ _____    ______ ____
ROOT
ATOM      1  C   UNL     1       4.175   4.393  18.360  0.00  0.00    +0.000 A 
ATOM      2  C   UNL     1       3.457   5.441  18.956  0.00  0.00    +0.000 A 
ATOM      3  C   UNL     1       3.403   6.647  18.305  0.00  0.00    +0.000 A 
ATOM      4  N   UNL     1       3.999   6.885  17.134  0.00  0.00    +0.000 NA
ATOM      5  C   UNL     1       4.720   5.907  16.567  0.00  0.00    +0.000 A 
ATOM      6  C   UNL     1       5.362   6.207  15.379  0.00  0.00    +0.000 A 
ATOM      7  C   UNL     1       6.164   5.281  14.716  0.00  0.00    +0.000 A 
ATOM      8  C   UNL     1       6.302   4.006  15.236  0.00  0.00    +0.000 A 
ATOM      9  C   UNL     1       5.643   3.669  16.419  0.00  0.00    +0.000 A 
ATOM     10  C   UNL     1       4.850   4.613  17.129  0.00  0.00    +0.000 A 
ENDROOT
BRANCH   1  11
ATOM     11  C   UNL     1       4.119   3.039  19.010  0.00  0.00    +0.000 C 
ATOM     12  O   UNL     1       4.848   2.631  19.894  0.00  0.00    +0.000 OA
BRANCH  11  13
ATOM     13  O   UNL     1       3.226   2.263  18.339  0.00  0.00    +0.000 OA
BRANCH  13  14
ATOM     14  C   UNL     1       2.138   1.788  19.137  0.00  0.00    +0.000 C 
BRANCH  14  15
ATOM     15  C   UNL     1       0.925   2.700  19.048  0.00  0.00    +0.000 C 
BRANCH  15  17
ATOM     16  C   UNL     1       1.406   2.758  21.530  0.00  0.00    +0.000 C 
ATOM     17  C   UNL     1       0.792   3.488  20.352  0.00  0.00    +0.000 C 
ENDBRANCH  15  17
ENDBRANCH  14  15
ENDBRANCH  13  14
ENDBRANCH  11  13
ENDBRANCH   1  11
BRANCH   3  18
ATOM     18  O   UNL     1       2.699   7.699  18.818  0.00  0.00    +0.000 OA
ATOM     19  H   UNL     1       3.161   8.027  19.601  0.00  0.00    +0.000 HD
ENDBRANCH   3  18
TORSDOF 6
ENDMDL
MODEL 8
REMARK VINA RESULT:      -6.7      2.599      5.016
REMARK  Name = 
REMARK  7 active torsions:
REMARK  status: ('A' for Active; 'I' for Inactive)
REMARK    1  A    between atoms: C_1  and  C_2
REMARK    2  A    between atoms: C_2  and  C_3
REMARK    3  A    between atoms: C_3  and  C_4
REMARK    4  A    between atoms: C_4  and  O_5
REMARK    5  A    between atoms: O_5  and  C_6
REMARK    6  A    between atoms: C_6  and  C_8
REMARK    7  A    between atoms: C_10  and  O_11
REMARK                            x       y       z     vdW  Elec       q    Type
REMARK                         _______ _______ _______ _____ _____    ______ ____
ROOT
ATOM      1  C   UNL     1       5.965   4.804  18.492  0.00  0.00    +0.000 A 
ATOM      2  C   UNL     1       6.833   5.705  19.127  0.00  0.00    +0.000 A 
ATOM      3  C   UNL     1       7.665   6.467  18.349  0.00  0.00    +0.000 A 
ATOM      4  N   UNL     1       7.700   6.401  17.015  0.00  0.00    +0.000 NA
ATOM      5  C   UNL     1       6.904   5.521  16.393  0.00  0.00    +0.000 A 
ATOM      6  C   UNL     1       7.004   5.448  15.014  0.00  0.00    +0.000 A 
ATOM      7  C   UNL     1       6.250   4.549  14.263  0.00  0.00    +0.000 A 
ATOM      8  C   UNL     1       5.343   3.721  14.903  0.00  0.00    +0.000 A 
ATOM      9  C   UNL     1       5.203   3.794  16.290  0.00  0.00    +0.000 A 
ATOM     10  C   UNL     1       5.991   4.680  17.076  0.00  0.00    +0.000 A 
ENDROOT
BRANCH   1  11
ATOM     11  C   UNL     1       4.964   4.070  19.339  0.00  0.00    +0.000 C 
ATOM     12  O   UNL     1       4.901   2.866  19.505  0.00  0.00    +0.000 OA
BRANCH  11  13
ATOM     13  O   UNL     1       4.018   4.949  19.769  0.00  0.00    +0.000 OA
BRANCH  13  14
ATOM     14  C   UNL     1       2.694   4.666  19.309  0.00  0.00    +0.000 C 
BRANCH  14  15
ATOM     15  C   UNL     1       2.383   5.372  17.999  0.00  0.00    +0.000 C 
BRANCH  15  17
ATOM     16  C   UNL     1       3.659   7.500  17.508  0.00  0.00    +0.000 C 
ATOM     17  C   UNL     1       2.465   6.884  18.210  0.00  0.00    +0.000 C 
ENDBRANCH  15  17
ENDBRANCH  14  15
ENDBRANCH  13  14
ENDBRANCH  11  13
ENDBRANCH   1  11
BRANCH   3  18
ATOM     18  O   UNL     1       8.515   7.381  18.904  0.00  0.00    +0.000 OA
ATOM     19  H   UNL     1       9.402   6.998  18.937  0.00  0.00    +0.000 HD
ENDBRANCH   3  18
TORSDOF 6
ENDMDL
MODEL 9
REMARK VINA RESULT:      -6.7      2.371      5.117
REMARK  Name = 
REMARK  7 active torsions:
REMARK  status: ('A' for Active; 'I' for Inactive)
REMARK    1  A    between atoms: C_1  and  C_2
REMARK    2  A    between atoms: C_2  and  C_3
REMARK    3  A    between atoms: C_3  and  C_4
REMARK    4  A    between atoms: C_4  and  O_5
REMARK    5  A    between atoms: O_5  and  C_6
REMARK    6  A    between atoms: C_6  and  C_8
REMARK    7  A    between atoms: C_10  and  O_11
REMARK                            x       y       z     vdW  Elec       q    Type
REMARK                         _______ _______ _______ _____ _____    ______ ____
ROOT
ATOM      1  C   UNL     1       5.144   5.386  18.423  0.00  0.00    +0.000 A 
ATOM      2  C   UNL     1       6.127   5.489  19.418  0.00  0.00    +0.000 A 
ATOM      3  C   UNL     1       7.434   5.260  19.070  0.00  0.00    +0.000 A 
ATOM      4  N   UNL     1       7.827   4.941  17.835  0.00  0.00    +0.000 NA
ATOM      5  C   UNL     1       6.898   4.802  16.878  0.00  0.00    +0.000 A 
ATOM      6  C   UNL     1       7.340   4.424  15.623  0.00  0.00    +0.000 A 
ATOM      7  C   UNL     1       6.464   4.218  14.560  0.00  0.00    +0.000 A 
ATOM      8  C   UNL     1       5.108   4.431  14.745  0.00  0.00    +0.000 A 
ATOM      9  C   UNL     1       4.640   4.840  15.994  0.00  0.00    +0.000 A 
ATOM     10  C   UNL     1       5.516   5.018  17.101  0.00  0.00    +0.000 A 
ENDROOT
BRANCH   1  11
ATOM     11  C   UNL     1       3.735   5.768  18.778  0.00  0.00    +0.000 C 
ATOM     12  O   UNL     1       3.183   6.819  18.514  0.00  0.00    +0.000 OA
BRANCH  11  13
ATOM     13  O   UNL     1       3.211   4.817  19.597  0.00  0.00    +0.000 OA
BRANCH  13  14
ATOM     14  C   UNL     1       1.844   4.494  19.332  0.00  0.00    +0.000 C 
BRANCH  14  15
ATOM     15  C   UNL     1       1.684   3.704  18.042  0.00  0.00    +0.000 C 
BRANCH  15  17
ATOM     16  C   UNL     1       3.459   1.909  17.885  0.00  0.00    +0.000 C 
ATOM     17  C   UNL     1       2.040   2.240  18.302  0.00  0.00    +0.000 C 
ENDBRANCH  15  17
ENDBRANCH  14  15
ENDBRANCH  13  14
ENDBRANCH  11  13
ENDBRANCH   1  11
BRANCH   3  18
ATOM     18  O   UNL     1       8.441   5.370  19.986  0.00  0.00    +0.000 OA
ATOM     19  H   UNL     1       9.266   5.077  19.576  0.00  0.00    +0.000 HD
ENDBRANCH   3  18
TORSDOF 6
ENDMDL
