MODEL 1
REMARK VINA RESULT:      -7.3      0.000      0.000
REMARK  Name = 
REMARK  8 active torsions:
REMARK  status: ('A' for Active; 'I' for Inactive)
REMARK    1  A    between atoms: C_1  and  C_2
REMARK    2  A    between atoms: C_7  and  C_8
REMARK    3  A    between atoms: C_8  and  C_9
REMARK    4  A    between atoms: C_15  and  C_16
REMARK    5  A    between atoms: N_18  and  C_19
REMARK    6  A    between atoms: C_19  and  C_20
REMARK    7  A    between atoms: C_19  and  C_21
REMARK    8  A    between atoms: N_22  and  C_23
REMARK                            x       y       z     vdW  Elec       q    Type
REMARK                         _______ _______ _______ _____ _____    ______ ____
ROOT
ATOM      1  C   UNL     1       2.365   7.179  18.912  0.00  0.00    +0.000 C 
ATOM      2  O   UNL     1       2.659   6.714  17.808  0.00  0.00    +0.000 OA
ATOM      3  N   UNL     1       1.959   8.490  19.045  0.00  0.00    +0.000 N 
ATOM      4  C   UNL     1       1.583   9.337  17.920  0.00  0.00    +0.000 C 
ATOM      5  C   UNL     1       0.779  10.222  18.906  0.00  0.00    +0.000 C 
ATOM      6  C   UNL     1      -0.709  10.446  18.656  0.00  0.00    +0.000 C 
ATOM      7  C   UNL     1      -0.962  11.938  18.908  0.00  0.00    +0.000 C 
ATOM      8  N   UNL     1       0.331  12.581  19.264  0.00  0.00    +0.000 NA
ATOM      9  C   UNL     1       0.507  13.802  18.455  0.00  0.00    +0.000 C 
ATOM     10  C   UNL     1       1.404  11.614  18.973  0.00  0.00    +0.000 C 
ATOM     11  C   UNL     1       1.035   9.115  19.978  0.00  0.00    +0.000 C 
ENDROOT
BRANCH   7  12
ATOM     12  C   UNL     1      -2.031  12.142  20.007  0.00  0.00    +0.000 C 
ATOM     13  O   UNL     1      -1.778  11.920  21.190  0.00  0.00    +0.000 OA
ATOM     14  N   UNL     1      -3.284  12.538  19.582  0.00  0.00    +0.000 N 
ATOM     15  H   UNL     1      -3.333  12.872  18.621  0.00  0.00    +0.000 HD
BRANCH  14  16
ATOM     16  C   UNL     1      -4.359  12.807  20.530  0.00  0.00    +0.000 C 
ATOM     17  C   UNL     1      -4.507  14.304  20.800  0.00  0.00    +0.000 C 
ATOM     18  C   UNL     1      -5.682  12.212  20.059  0.00  0.00    +0.000 C 
ENDBRANCH  14  16
ENDBRANCH   7  12
BRANCH   1  19
ATOM     19  C   UNL     1       2.442   6.321  20.168  0.00  0.00    +0.000 C 
BRANCH  19  26
ATOM     20  C   UNL     1       4.797   4.528  19.346  0.00  0.00    +0.000 C 
ATOM     21  C   UNL     1       3.393   4.007  19.518  0.00  0.00    +0.000 A 
ATOM     22  C   UNL     1       3.164   2.649  19.231  0.00  0.00    +0.000 A 
ATOM     23  C   UNL     1       1.881   2.099  19.344  0.00  0.00    +0.000 A 
ATOM     24  C   UNL     1       0.823   2.898  19.748  0.00  0.00    +0.000 A 
ATOM     25  C   UNL     1       1.037   4.252  20.024  0.00  0.00    +0.000 A 
ATOM     26  C   UNL     1       2.312   4.833  19.896  0.00  0.00    +0.000 A 
ENDBRANCH  19  26
ENDBRANCH   1  19
TORSDOF 4
ENDMDL
MODEL 2
REMARK VINA RESULT:      -7.3      1.172      1.413
REMARK  Name = 
REMARK  8 active torsions:
REMARK  status: ('A' for Active; 'I' for Inactive)
REMARK    1  A    between atoms: C_1  and  C_2
REMARK    2  A    between atoms: C_7  and  C_8
REMARK    3  A    between atoms: C_8  and  C_9
REMARK    4  A    between atoms: C_15  and  C_16
REMARK    5  A    between atoms: N_18  and  C_19
REMARK    6  A    between atoms: C_19  and  C_20
REMARK    7  A    between atoms: C_19  and  C_21
REMARK    8  A    between atoms: N_22  and  C_23
REMARK                            x       y       z     vdW  Elec       q    Type
REMARK                         _______ _______ _______ _____ _____    ______ ____
ROOT
ATOM      1  C   UNL     1       2.467   7.091  18.883  0.00  0.00    +0.000 C 
ATOM      2  O   UNL     1       2.846   6.635  17.800  0.00  0.00    +0.000 OA
ATOM      3  N   UNL     1       2.049   8.400  18.995  0.00  0.00    +0.000 N 
ATOM      4  C   UNL     1       1.758   9.256  17.852  0.00  0.00    +0.000 C 
ATOM      5  C   UNL     1       0.879  10.131  18.780  0.00  0.00    +0.000 C 
ATOM      6  C   UNL     1      -0.586  10.355  18.418  0.00  0.00    +0.000 C 
ATOM      7  C   UNL     1      -0.861  11.845  18.663  0.00  0.00    +0.000 C 
ATOM      8  N   UNL     1       0.400  12.487  19.123  0.00  0.00    +0.000 NA
ATOM      9  C   UNL     1       0.634  13.714  18.340  0.00  0.00    +0.000 C 
ATOM     10  C   UNL     1       1.494  11.524  18.906  0.00  0.00    +0.000 C 
ATOM     11  C   UNL     1       1.054   9.016  19.859  0.00  0.00    +0.000 C 
ENDROOT
BRANCH   7  12
ATOM     12  C   UNL     1      -2.012  12.037  19.678  0.00  0.00    +0.000 C 
ATOM     13  O   UNL     1      -3.188  12.004  19.320  0.00  0.00    +0.000 OA
ATOM     14  N   UNL     1      -1.645  12.291  20.985  0.00  0.00    +0.000 N 
ATOM     15  H   UNL     1      -0.668  12.111  21.206  0.00  0.00    +0.000 HD
BRANCH  14  16
ATOM     16  C   UNL     1      -2.642  12.442  22.039  0.00  0.00    +0.000 C 
ATOM     17  C   UNL     1      -2.215  11.732  23.322  0.00  0.00    +0.000 C 
ATOM     18  C   UNL     1      -2.946  13.912  22.313  0.00  0.00    +0.000 C 
ENDBRANCH  14  16
ENDBRANCH   7  12
BRANCH   1  19
ATOM     19  C   UNL     1       2.449   6.222  20.133  0.00  0.00    +0.000 C 
BRANCH  19  26
ATOM     20  C   UNL     1       4.827   4.415  19.419  0.00  0.00    +0.000 C 
ATOM     21  C   UNL     1       3.412   3.905  19.512  0.00  0.00    +0.000 A 
ATOM     22  C   UNL     1       3.187   2.552  19.200  0.00  0.00    +0.000 A 
ATOM     23  C   UNL     1       1.894   2.014  19.241  0.00  0.00    +0.000 A 
ATOM     24  C   UNL     1       0.824   2.819  19.596  0.00  0.00    +0.000 A 
ATOM     25  C   UNL     1       1.035   4.168  19.896  0.00  0.00    +0.000 A 
ATOM     26  C   UNL     1       2.320   4.738  19.841  0.00  0.00    +0.000 A 
ENDBRANCH  19  26
ENDBRANCH   1  19
TORSDOF 4
ENDMDL
MODEL 3
REMARK VINA RESULT:      -7.3      2.919      8.467
REMARK  Name = 
REMARK  8 active torsions:
REMARK  status: ('A' for Active; 'I' for Inactive)
REMARK    1  A    between atoms: C_1  and  C_2
REMARK    2  A    between atoms: C_7  and  C_8
REMARK    3  A    between atoms: C_8  and  C_9
REMARK    4  A    between atoms: C_15  and  C_16
REMARK    5  A    between atoms: N_18  and  C_19
REMARK    6  A    between atoms: C_19  and  C_20
REMARK    7  A    between atoms: C_19  and  C_21
REMARK    8  A    between atoms: N_22  and  C_23
REMARK                            x       y       z     vdW  Elec       q    Type
REMARK                         _______ _______ _______ _____ _____    ______ ____
ROOT
ATOM      1  C   UNL     1       1.885   9.587  17.883  0.00  0.00    +0.000 C 
ATOM      2  O   UNL     1       2.532  10.634  17.971  0.00  0.00    +0.000 OA
ATOM      3  N   UNL     1       2.511   8.383  17.635  0.00  0.00    +0.000 N 
ATOM      4  C   UNL     1       3.953   8.189  17.726  0.00  0.00    +0.000 C 
ATOM      5  C   UNL     1       3.696   6.673  17.915  0.00  0.00    +0.000 C 
ATOM      6  C   UNL     1       4.239   5.979  19.161  0.00  0.00    +0.000 C 
ATOM      7  C   UNL     1       4.836   4.650  18.680  0.00  0.00    +0.000 C 
ATOM      8  N   UNL     1       4.682   4.571  17.203  0.00  0.00    +0.000 NA
ATOM      9  C   UNL     1       5.971   4.185  16.599  0.00  0.00    +0.000 C 
ATOM     10  C   UNL     1       4.271   5.904  16.727  0.00  0.00    +0.000 C 
ATOM     11  C   UNL     1       2.183   7.030  18.054  0.00  0.00    +0.000 C 
ENDROOT
BRANCH   7  12
ATOM     12  C   UNL     1       4.171   3.452  19.396  0.00  0.00    +0.000 C 
ATOM     13  O   UNL     1       4.846   2.551  19.893  0.00  0.00    +0.000 OA
ATOM     14  N   UNL     1       2.789   3.428  19.404  0.00  0.00    +0.000 N 
ATOM     15  H   UNL     1       2.337   4.300  19.138  0.00  0.00    +0.000 HD
BRANCH  14  16
ATOM     16  C   UNL     1       2.052   2.373  20.090  0.00  0.00    +0.000 C 
ATOM     17  C   UNL     1       1.717   2.767  21.528  0.00  0.00    +0.000 C 
ATOM     18  C   UNL     1       0.785   1.992  19.329  0.00  0.00    +0.000 C 
ENDBRANCH  14  16
ENDBRANCH   7  12
BRANCH   1  19
ATOM     19  C   UNL     1       0.371   9.588  18.045  0.00  0.00    +0.000 C 
BRANCH  19  26
ATOM     20  C   UNL     1      -1.346  12.116  18.351  0.00  0.00    +0.000 C 
ATOM     21  C   UNL     1      -0.887  11.292  19.526  0.00  0.00    +0.000 A 
ATOM     22  C   UNL     1      -1.224  11.750  20.813  0.00  0.00    +0.000 A 
ATOM     23  C   UNL     1      -0.810  11.050  21.953  0.00  0.00    +0.000 A 
ATOM     24  C   UNL     1      -0.065   9.890  21.817  0.00  0.00    +0.000 A 
ATOM     25  C   UNL     1       0.287   9.433  20.543  0.00  0.00    +0.000 A 
ATOM     26  C   UNL     1      -0.098  10.130  19.383  0.00  0.00    +0.000 A 
ENDBRANCH  19  26
ENDBRANCH   1  19
TORSDOF 4
ENDMDL
MODEL 4
REMARK VINA RESULT:      -7.2      2.875      9.147
REMARK  Name = 
REMARK  8 active torsions:
REMARK  status: ('A' for Active; 'I' for Inactive)
REMARK    1  A    between atoms: C_1  and  C_2
REMARK    2  A    between atoms: C_7  and  C_8
REMARK    3  A    between atoms: C_8  and  C_9
REMARK    4  A    between atoms: C_15  and  C_16
REMARK    5  A    between atoms: N_18  and  C_19
REMARK    6  A    between atoms: C_19  and  C_20
REMARK    7  A    between atoms: C_19  and  C_21
REMARK    8  A    between atoms: N_22  and  C_23
REMARK                            x       y       z     vdW  Elec       q    Type
REMARK                         _______ _______ _______ _____ _____    ______ ____
ROOT
ATOM      1  C   UNL     1       0.476   8.300  21.285  0.00  0.00    +0.000 C 
ATOM      2  O   UNL     1      -0.645   7.922  21.637  0.00  0.00    +0.000 OA
ATOM      3  N   UNL     1       1.426   7.399  20.850  0.00  0.00    +0.000 N 
ATOM      4  C   UNL     1       1.128   6.014  20.509  0.00  0.00    +0.000 C 
ATOM      5  C   UNL     1       2.414   5.991  19.646  0.00  0.00    +0.000 C 
ATOM      6  C   UNL     1       2.308   5.634  18.167  0.00  0.00    +0.000 C 
ATOM      7  C   UNL     1       3.474   4.679  17.876  0.00  0.00    +0.000 C 
ATOM      8  N   UNL     1       4.225   4.454  19.140  0.00  0.00    +0.000 NA
ATOM      9  C   UNL     1       4.436   3.007  19.330  0.00  0.00    +0.000 C 
ATOM     10  C   UNL     1       3.415   5.002  20.242  0.00  0.00    +0.000 C 
ATOM     11  C   UNL     1       2.495   7.534  19.874  0.00  0.00    +0.000 C 
ENDROOT
BRANCH   7  12
ATOM     12  C   UNL     1       4.382   5.237  16.755  0.00  0.00    +0.000 C 
ATOM     13  O   UNL     1       4.574   6.446  16.635  0.00  0.00    +0.000 OA
ATOM     14  N   UNL     1       4.919   4.313  15.880  0.00  0.00    +0.000 N 
ATOM     15  H   UNL     1       4.853   3.342  16.178  0.00  0.00    +0.000 HD
BRANCH  14  16
ATOM     16  C   UNL     1       5.828   4.717  14.813  0.00  0.00    +0.000 C 
ATOM     17  C   UNL     1       7.268   4.824  15.313  0.00  0.00    +0.000 C 
ATOM     18  C   UNL     1       5.742   3.770  13.619  0.00  0.00    +0.000 C 
ENDBRANCH  14  16
ENDBRANCH   7  12
BRANCH   1  19
ATOM     19  C   UNL     1       0.850   9.776  21.321  0.00  0.00    +0.000 C 
BRANCH  19  26
ATOM     20  C   UNL     1      -1.096  11.610  22.832  0.00  0.00    +0.000 C 
ATOM     21  C   UNL     1      -1.057  11.520  21.328  0.00  0.00    +0.000 A 
ATOM     22  C   UNL     1      -1.999  12.277  20.607  0.00  0.00    +0.000 A 
ATOM     23  C   UNL     1      -2.039  12.225  19.208  0.00  0.00    +0.000 A 
ATOM     24  C   UNL     1      -1.139  11.424  18.522  0.00  0.00    +0.000 A 
ATOM     25  C   UNL     1      -0.207  10.659  19.229  0.00  0.00    +0.000 A 
ATOM     26  C   UNL     1      -0.161  10.677  20.635  0.00  0.00    +0.000 A 
ENDBRANCH  19  26
ENDBRANCH   1  19
TORSDOF 4
ENDMDL
MODEL 5
REMARK VINA RESULT:      -7.2      4.049      9.816
REMARK  Name = 
REMARK  8 active torsions:
REMARK  status: ('A' for Active; 'I' for Inactive)
REMARK    1  A    between atoms: C_1  and  C_2
REMARK    2  A    between atoms: C_7  and  C_8
REMARK    3  A    between atoms: C_8  and  C_9
REMARK    4  A    between atoms: C_15  and  C_16
REMARK    5  A    between atoms: N_18  and  C_19
REMARK    6  A    between atoms: C_19  and  C_20
REMARK    7  A    between atoms: C_19  and  C_21
REMARK    8  A    between atoms: N_22  and  C_23
REMARK                            x       y       z     vdW  Elec       q    Type
REMARK                         _______ _______ _______ _____ _____    ______ ____
ROOT
ATOM      1  C   UNL     1       2.070   7.911  18.667  0.00  0.00    +0.000 C 
ATOM      2  O   UNL     1       1.417   7.420  19.593  0.00  0.00    +0.000 OA
ATOM      3  N   UNL     1       3.273   7.361  18.276  0.00  0.00    +0.000 N 
ATOM      4  C   UNL     1       3.736   6.046  18.703  0.00  0.00    +0.000 C 
ATOM      5  C   UNL     1       4.662   6.014  17.462  0.00  0.00    +0.000 C 
ATOM      6  C   UNL     1       4.532   4.861  16.470  0.00  0.00    +0.000 C 
ATOM      7  C   UNL     1       5.965   4.436  16.123  0.00  0.00    +0.000 C 
ATOM      8  N   UNL     1       6.909   5.282  16.901  0.00  0.00    +0.000 NA
ATOM      9  C   UNL     1       7.909   4.419  17.557  0.00  0.00    +0.000 C 
ATOM     10  C   UNL     1       6.122   6.013  17.910  0.00  0.00    +0.000 C 
ATOM     11  C   UNL     1       3.916   7.295  16.974  0.00  0.00    +0.000 C 
ENDROOT
BRANCH   7  12
ATOM     12  C   UNL     1       6.219   4.535  14.601  0.00  0.00    +0.000 C 
ATOM     13  O   UNL     1       6.918   5.430  14.129  0.00  0.00    +0.000 OA
ATOM     14  N   UNL     1       5.586   3.598  13.808  0.00  0.00    +0.000 N 
ATOM     15  H   UNL     1       5.193   2.801  14.305  0.00  0.00    +0.000 HD
BRANCH  14  16
ATOM     16  C   UNL     1       5.788   3.562  12.364  0.00  0.00    +0.000 C 
ATOM     17  C   UNL     1       6.810   2.497  11.967  0.00  0.00    +0.000 C 
ATOM     18  C   UNL     1       4.473   3.349  11.621  0.00  0.00    +0.000 C 
ENDBRANCH  14  16
ENDBRANCH   7  12
BRANCH   1  19
ATOM     19  C   UNL     1       1.570   9.144  17.926  0.00  0.00    +0.000 C 
BRANCH  19  26
ATOM     20  C   UNL     1      -1.368   9.724  17.245  0.00  0.00    +0.000 C 
ATOM     21  C   UNL     1      -0.679  10.303  18.453  0.00  0.00    +0.000 A 
ATOM     22  C   UNL     1      -1.417  11.189  19.260  0.00  0.00    +0.000 A 
ATOM     23  C   UNL     1      -0.835  11.785  20.386  0.00  0.00    +0.000 A 
ATOM     24  C   UNL     1       0.480  11.499  20.715  0.00  0.00    +0.000 A 
ATOM     25  C   UNL     1       1.226  10.630  19.913  0.00  0.00    +0.000 A 
ATOM     26  C   UNL     1       0.672  10.035  18.765  0.00  0.00    +0.000 A 
ENDBRANCH  19  26
ENDBRANCH   1  19
TORSDOF 4
ENDMDL
MODEL 6
REMARK VINA RESULT:      -7.1      2.846      8.495
REMARK  Name = 
REMARK  8 active torsions:
REMARK  status: ('A' for Active; 'I' for Inactive)
REMARK    1  A    between atoms: C_1  and  C_2
REMARK    2  A    between atoms: C_7  and  C_8
REMARK    3  A    between atoms: C_8  and  C_9
REMARK    4  A    between atoms: C_15  and  C_16
REMARK    5  A    between atoms: N_18  and  C_19
REMARK    6  A    between atoms: C_19  and  C_20
REMARK    7  A    between atoms: C_19  and  C_21
REMARK    8  A    between atoms: N_22  and  C_23
REMARK                            x       y       z     vdW  Elec       q    Type
REMARK                         _______ _______ _______ _____ _____    ______ ____
ROOT
ATOM      1  C   UNL     1       1.814   9.527  17.849  0.00  0.00    +0.000 C 
ATOM      2  O   UNL     1       2.430  10.589  17.971  0.00  0.00    +0.000 OA
ATOM      3  N   UNL     1       2.482   8.341  17.622  0.00  0.00    +0.000 N 
ATOM      4  C   UNL     1       3.923   8.184  17.777  0.00  0.00    +0.000 C 
ATOM      5  C   UNL     1       3.699   6.661  17.945  0.00  0.00    +0.000 C 
ATOM      6  C   UNL     1       4.204   5.973  19.211  0.00  0.00    +0.000 C 
ATOM      7  C   UNL     1       4.856   4.663  18.750  0.00  0.00    +0.000 C 
ATOM      8  N   UNL     1       4.770   4.589  17.267  0.00  0.00    +0.000 NA
ATOM      9  C   UNL     1       6.094   4.241  16.719  0.00  0.00    +0.000 C 
ATOM     10  C   UNL     1       4.346   5.914  16.780  0.00  0.00    +0.000 C 
ATOM     11  C   UNL     1       2.172   6.977  18.019  0.00  0.00    +0.000 C 
ENDROOT
BRANCH   7  12
ATOM     12  C   UNL     1       4.191   3.443  19.429  0.00  0.00    +0.000 C 
ATOM     13  O   UNL     1       4.867   2.520  19.883  0.00  0.00    +0.000 OA
ATOM     14  N   UNL     1       2.810   3.428  19.454  0.00  0.00    +0.000 N 
ATOM     15  H   UNL     1       2.361   4.313  19.226  0.00  0.00    +0.000 HD
BRANCH  14  16
ATOM     16  C   UNL     1       2.073   2.353  20.109  0.00  0.00    +0.000 C 
ATOM     17  C   UNL     1       1.692   2.727  21.541  0.00  0.00    +0.000 C 
ATOM     18  C   UNL     1       0.836   1.956  19.309  0.00  0.00    +0.000 C 
ENDBRANCH  14  16
ENDBRANCH   7  12
BRANCH   1  19
ATOM     19  C   UNL     1       0.295   9.487  17.943  0.00  0.00    +0.000 C 
BRANCH  19  26
ATOM     20  C   UNL     1       0.553   8.942  20.955  0.00  0.00    +0.000 C 
ATOM     21  C   UNL     1      -0.155  10.151  20.400  0.00  0.00    +0.000 A 
ATOM     22  C   UNL     1      -0.763  11.026  21.319  0.00  0.00    +0.000 A 
ATOM     23  C   UNL     1      -1.460  12.158  20.876  0.00  0.00    +0.000 A 
ATOM     24  C   UNL     1      -1.548  12.425  19.519  0.00  0.00    +0.000 A 
ATOM     25  C   UNL     1      -0.958  11.555  18.597  0.00  0.00    +0.000 A 
ATOM     26  C   UNL     1      -0.272  10.400  19.015  0.00  0.00    +0.000 A 
ENDBRANCH  19  26
ENDBRANCH   1  19
TORSDOF 4
ENDMDL
MODEL 7
REMARK VINA RESULT:      -7.1      4.016      9.683
REMARK  Name = 
REMARK  8 active torsions:
REMARK  status: ('A' for Active; 'I' for Inactive)
REMARK    1  A    between atoms: C_1  and  C_2
REMARK    2  A    between atoms: C_7  and  C_8
REMARK    3  A    between atoms: C_8  and  C_9
REMARK    4  A    between atoms: C_15  and  C_16
REMARK    5  A    between atoms: N_18  and  C_19
REMARK    6  A    between atoms: C_19  and  C_20
REMARK    7  A    between atoms: C_19  and  C_21
REMARK    8  A    between atoms: N_22  and  C_23
REMARK                            x       y       z     vdW  Elec       q    Type
REMARK                         _______ _______ _______ _____ _____    ______ ____
ROOT
ATOM      1  C   UNL     1       2.189   8.278  18.594  0.00  0.00    +0.000 C 
ATOM      2  O   UNL     1       1.484   7.837  19.506  0.00  0.00    +0.000 OA
ATOM      3  N   UNL     1       3.359   7.644  18.232  0.00  0.00    +0.000 N 
ATOM      4  C   UNL     1       3.721   6.303  18.674  0.00  0.00    +0.000 C 
ATOM      5  C   UNL     1       4.671   6.201  17.454  0.00  0.00    +0.000 C 
ATOM      6  C   UNL     1       4.483   5.054  16.464  0.00  0.00    +0.000 C 
ATOM      7  C   UNL     1       5.891   4.530  16.151  0.00  0.00    +0.000 C 
ATOM      8  N   UNL     1       6.874   5.313  16.947  0.00  0.00    +0.000 NA
ATOM      9  C   UNL     1       7.797   4.387  17.628  0.00  0.00    +0.000 C 
ATOM     10  C   UNL     1       6.117   6.102  17.935  0.00  0.00    +0.000 C 
ATOM     11  C   UNL     1       4.025   7.528  16.945  0.00  0.00    +0.000 C 
ENDROOT
BRANCH   7  12
ATOM     12  C   UNL     1       6.186   4.603  14.635  0.00  0.00    +0.000 C 
ATOM     13  O   UNL     1       7.072   5.332  14.192  0.00  0.00    +0.000 OA
ATOM     14  N   UNL     1       5.374   3.846  13.812  0.00  0.00    +0.000 N 
ATOM     15  H   UNL     1       4.807   3.145  14.285  0.00  0.00    +0.000 HD
BRANCH  14  16
ATOM     16  C   UNL     1       5.587   3.798  12.370  0.00  0.00    +0.000 C 
ATOM     17  C   UNL     1       6.775   2.908  12.008  0.00  0.00    +0.000 C 
ATOM     18  C   UNL     1       4.330   3.342  11.635  0.00  0.00    +0.000 C 
ENDBRANCH  14  16
ENDBRANCH   7  12
BRANCH   1  19
ATOM     19  C   UNL     1       1.792   9.538  17.837  0.00  0.00    +0.000 C 
BRANCH  19  26
ATOM     20  C   UNL     1       1.244  11.540  20.101  0.00  0.00    +0.000 C 
ATOM     21  C   UNL     1       0.153  10.969  19.232  0.00  0.00    +0.000 A 
ATOM     22  C   UNL     1      -1.172  11.341  19.524  0.00  0.00    +0.000 A 
ATOM     23  C   UNL     1      -2.240  10.832  18.775  0.00  0.00    +0.000 A 
ATOM     24  C   UNL     1      -1.993   9.955  17.731  0.00  0.00    +0.000 A 
ATOM     25  C   UNL     1      -0.681   9.569  17.440  0.00  0.00    +0.000 A 
ATOM     26  C   UNL     1       0.407  10.050  18.191  0.00  0.00    +0.000 A 
ENDBRANCH  19  26
ENDBRANCH   1  19
TORSDOF 4
ENDMDL
MODEL 8
REMARK VINA RESULT:      -7.1      4.525      7.725
REMARK  Name = 
REMARK  8 active torsions:
REMARK  status: ('A' for Active; 'I' for Inactive)
REMARK    1  A    between atoms: C_1  and  C_2
REMARK    2  A    between atoms: C_7  and  C_8
REMARK    3  A    between atoms: C_8  and  C_9
REMARK    4  A    between atoms: C_15  and  C_16
REMARK    5  A    between atoms: N_18  and  C_19
REMARK    6  A    between atoms: C_19  and  C_20
REMARK    7  A    between atoms: C_19  and  C_21
REMARK    8  A    between atoms: N_22  and  C_23
REMARK                            x       y       z     vdW  Elec       q    Type
REMARK                         _______ _______ _______ _____ _____    ______ ____
ROOT
ATOM      1  C   UNL     1       6.985   4.687  16.510  0.00  0.00    +0.000 C 
ATOM      2  O   UNL     1       8.075   4.252  16.890  0.00  0.00    +0.000 OA
ATOM      3  N   UNL     1       5.822   4.374  17.183  0.00  0.00    +0.000 N 
ATOM      4  C   UNL     1       5.794   3.762  18.505  0.00  0.00    +0.000 C 
ATOM      5  C   UNL     1       4.359   4.317  18.688  0.00  0.00    +0.000 C 
ATOM      6  C   UNL     1       4.061   5.222  19.880  0.00  0.00    +0.000 C 
ATOM      7  C   UNL     1       2.715   4.749  20.446  0.00  0.00    +0.000 C 
ATOM      8  N   UNL     1       2.247   3.589  19.641  0.00  0.00    +0.000 NA
ATOM      9  C   UNL     1       1.843   2.499  20.547  0.00  0.00    +0.000 C 
ATOM     10  C   UNL     1       3.369   3.158  18.788  0.00  0.00    +0.000 C 
ATOM     11  C   UNL     1       4.596   5.131  17.377  0.00  0.00    +0.000 C 
ENDROOT
BRANCH   7  12
ATOM     12  C   UNL     1       1.683   5.900  20.457  0.00  0.00    +0.000 C 
ATOM     13  O   UNL     1       0.495   5.688  20.699  0.00  0.00    +0.000 OA
ATOM     14  N   UNL     1       2.158   7.157  20.136  0.00  0.00    +0.000 N 
ATOM     15  H   UNL     1       3.171   7.253  20.139  0.00  0.00    +0.000 HD
BRANCH  14  16
ATOM     16  C   UNL     1       1.287   8.327  20.160  0.00  0.00    +0.000 C 
ATOM     17  C   UNL     1       1.263   8.980  21.542  0.00  0.00    +0.000 C 
ATOM     18  C   UNL     1       1.686   9.342  19.093  0.00  0.00    +0.000 C 
ENDBRANCH  14  16
ENDBRANCH   7  12
BRANCH   1  19
ATOM     19  C   UNL     1       6.884   5.584  15.283  0.00  0.00    +0.000 C 
BRANCH  19  26
ATOM     20  C   UNL     1       8.753   5.917  12.869  0.00  0.00    +0.000 C 
ATOM     21  C   UNL     1       7.581   4.971  12.871  0.00  0.00    +0.000 A 
ATOM     22  C   UNL     1       7.317   4.259  11.686  0.00  0.00    +0.000 A 
ATOM     23  C   UNL     1       6.230   3.380  11.606  0.00  0.00    +0.000 A 
ATOM     24  C   UNL     1       5.405   3.202  12.705  0.00  0.00    +0.000 A 
ATOM     25  C   UNL     1       5.651   3.913  13.883  0.00  0.00    +0.000 A 
ATOM     26  C   UNL     1       6.723   4.818  13.982  0.00  0.00    +0.000 A 
ENDBRANCH  19  26
ENDBRANCH   1  19
TORSDOF 4
ENDMDL
MODEL 9
REMARK VINA RESULT:      -7.0      4.547      7.364
REMARK  Name = 
REMARK  8 active torsions:
REMARK  status: ('A' for Active; 'I' for Inactive)
REMARK    1  A    between atoms: C_1  and  C_2
REMARK    2  A    between atoms: C_7  and  C_8
REMARK    3  A    between atoms: C_8  and  C_9
REMARK    4  A    between atoms: C_15  and  C_16
REMARK    5  A    between atoms: N_18  and  C_19
REMARK    6  A    between atoms: C_19  and  C_20
REMARK    7  A    between atoms: C_19  and  C_21
REMARK    8  A    between atoms: N_22  and  C_23
REMARK                            x       y       z     vdW  Elec       q    Type
REMARK                         _______ _______ _______ _____ _____    ______ ____
ROOT
ATOM      1  C   UNL     1       7.016   4.667  16.471  0.00  0.00    +0.000 C 
ATOM      2  O   UNL     1       7.963   4.003  16.900  0.00  0.00    +0.000 OA
ATOM      3  N   UNL     1       5.783   4.627  17.089  0.00  0.00    +0.000 N 
ATOM      4  C   UNL     1       5.560   4.047  18.408  0.00  0.00    +0.000 C 
ATOM      5  C   UNL     1       4.278   4.910  18.525  0.00  0.00    +0.000 C 
ATOM      6  C   UNL     1       4.135   5.868  19.704  0.00  0.00    +0.000 C 
ATOM      7  C   UNL     1       2.694   5.712  20.206  0.00  0.00    +0.000 C 
ATOM      8  N   UNL     1       2.016   4.679  19.378  0.00  0.00    +0.000 NA
ATOM      9  C   UNL     1       1.338   3.714  20.263  0.00  0.00    +0.000 C 
ATOM     10  C   UNL     1       3.051   4.001  18.577  0.00  0.00    +0.000 C 
ATOM     11  C   UNL     1       4.750   5.640  17.228  0.00  0.00    +0.000 C 
ENDROOT
BRANCH   7  12
ATOM     12  C   UNL     1       1.945   7.064  20.172  0.00  0.00    +0.000 C 
ATOM     13  O   UNL     1       1.806   7.689  19.121  0.00  0.00    +0.000 OA
ATOM     14  N   UNL     1       1.487   7.547  21.382  0.00  0.00    +0.000 N 
ATOM     15  H   UNL     1       1.487   6.875  22.147  0.00  0.00    +0.000 HD
BRANCH  14  16
ATOM     16  C   UNL     1       0.726   8.788  21.467  0.00  0.00    +0.000 C 
ATOM     17  C   UNL     1      -0.779   8.524  21.474  0.00  0.00    +0.000 C 
ATOM     18  C   UNL     1       1.133   9.610  22.686  0.00  0.00    +0.000 C 
ENDBRANCH  14  16
ENDBRANCH   7  12
BRANCH   1  19
ATOM     19  C   UNL     1       7.174   5.553  15.243  0.00  0.00    +0.000 C 
BRANCH  19  26
ATOM     20  C   UNL     1       8.819   6.010  12.690  0.00  0.00    +0.000 C 
ATOM     21  C   UNL     1       7.669   5.039  12.759  0.00  0.00    +0.000 A 
ATOM     22  C   UNL     1       7.317   4.363  11.576  0.00  0.00    +0.000 A 
ATOM     23  C   UNL     1       6.243   3.464  11.558  0.00  0.00    +0.000 A 
ATOM     24  C   UNL     1       5.521   3.230  12.717  0.00  0.00    +0.000 A 
ATOM     25  C   UNL     1       5.854   3.905  13.895  0.00  0.00    +0.000 A 
ATOM     26  C   UNL     1       6.914   4.830  13.934  0.00  0.00    +0.000 A 
ENDBRANCH  19  26
ENDBRANCH   1  19
TORSDOF 4
ENDMDL
