MODEL 1
REMARK VINA RESULT:      -7.1      0.000      0.000
REMARK  Name = 
REMARK  6 active torsions:
REMARK  status: ('A' for Active; 'I' for Inactive)
REMARK    1  A    between atoms: C_1  and  N_2
REMARK    2  A    between atoms: N_2  and  C_3
REMARK    3  A    between atoms: C_3  and  C_4
REMARK    4  A    between atoms: C_8  and  C_10
REMARK    5  A    between atoms: C_10  and  N_11
REMARK    6  A    between atoms: N_11  and  C_12
REMARK                            x       y       z     vdW  Elec       q    Type
REMARK                         _______ _______ _______ _____ _____    ______ ____
ROOT
ATOM      1  N   UNL     1       4.651   3.015  17.782  0.00  0.00    +0.000 N 
ATOM      2  H   UNL     1       4.962   3.034  18.748  0.00  0.00    +0.000 HD
ENDROOT
BRANCH   1   3
ATOM      3  C   UNL     1       5.130   4.112  17.061  0.00  0.00    +0.000 A 
ATOM      4  N   UNL     1       4.738   4.269  15.787  0.00  0.00    +0.000 NA
ATOM      5  C   UNL     1       5.288   5.275  15.099  0.00  0.00    +0.000 A 
ATOM      6  N   UNL     1       6.201   6.136  15.554  0.00  0.00    +0.000 NA
ATOM      7  C   UNL     1       6.594   5.975  16.819  0.00  0.00    +0.000 A 
ATOM      8  C   UNL     1       7.553   6.842  17.335  0.00  0.00    +0.000 A 
ATOM      9  C   UNL     1       8.019   6.730  18.646  0.00  0.00    +0.000 A 
ATOM     10  C   UNL     1       7.524   5.723  19.455  0.00  0.00    +0.000 A 
ATOM     11  F   UNL     1       7.964   5.603  20.713  0.00  0.00    +0.000 F 
ATOM     12  C   UNL     1       6.574   4.835  18.973  0.00  0.00    +0.000 A 
ATOM     13  C   UNL     1       6.088   4.959  17.647  0.00  0.00    +0.000 A 
ENDBRANCH   1   3
BRANCH   1  14
ATOM     14  C   UNL     1       3.239   2.640  17.673  0.00  0.00    +0.000 C 
BRANCH  14  17
ATOM     15  C   UNL     1       1.276   4.483  20.423  0.00  0.00    +0.000 C 
ATOM     16  N   UNL     1       1.914   4.201  19.150  0.00  0.00    +0.000 N 
ATOM     17  C   UNL     1       2.526   2.960  18.998  0.00  0.00    +0.000 C 
ATOM     18  O   UNL     1       2.476   2.105  19.889  0.00  0.00    +0.000 OA
BRANCH  16  19
ATOM     19  C   UNL     1       1.914   5.277  18.141  0.00  0.00    +0.000 C 
BRANCH  19  20
ATOM     20  C   UNL     1       2.768   6.511  18.467  0.00  0.00    +0.000 C 
ATOM     21  F   UNL     1       3.436   6.974  17.386  0.00  0.00    +0.000 F 
ATOM     22  F   UNL     1       2.014   7.525  18.942  0.00  0.00    +0.000 F 
ATOM     23  F   UNL     1       3.690   6.216  19.415  0.00  0.00    +0.000 F 
ENDBRANCH  19  20
ENDBRANCH  16  19
ENDBRANCH  14  17
ENDBRANCH   1  14
TORSDOF 5
ENDMDL
MODEL 2
REMARK VINA RESULT:      -7.0      2.820      4.304
REMARK  Name = 
REMARK  6 active torsions:
REMARK  status: ('A' for Active; 'I' for Inactive)
REMARK    1  A    between atoms: C_1  and  N_2
REMARK    2  A    between atoms: N_2  and  C_3
REMARK    3  A    between atoms: C_3  and  C_4
REMARK    4  A    between atoms: C_8  and  C_10
REMARK    5  A    between atoms: C_10  and  N_11
REMARK    6  A    between atoms: N_11  and  C_12
REMARK                            x       y       z     vdW  Elec       q    Type
REMARK                         _______ _______ _______ _____ _____    ______ ____
ROOT
ATOM      1  N   UNL     1       4.014   4.203  16.675  0.00  0.00    +0.000 N 
ATOM      2  H   UNL     1       4.063   3.217  16.915  0.00  0.00    +0.000 HD
ENDROOT
BRANCH   1   3
ATOM      3  C   UNL     1       5.268   4.716  16.329  0.00  0.00    +0.000 A 
ATOM      4  N   UNL     1       5.912   5.496  17.210  0.00  0.00    +0.000 NA
ATOM      5  C   UNL     1       7.065   6.045  16.810  0.00  0.00    +0.000 A 
ATOM      6  N   UNL     1       7.634   5.899  15.610  0.00  0.00    +0.000 NA
ATOM      7  C   UNL     1       6.988   5.127  14.734  0.00  0.00    +0.000 A 
ATOM      8  C   UNL     1       7.537   4.956  13.467  0.00  0.00    +0.000 A 
ATOM      9  C   UNL     1       6.915   4.170  12.494  0.00  0.00    +0.000 A 
ATOM     10  C   UNL     1       5.713   3.553  12.792  0.00  0.00    +0.000 A 
ATOM     11  F   UNL     1       5.105   2.800  11.869  0.00  0.00    +0.000 F 
ATOM     12  C   UNL     1       5.132   3.708  14.042  0.00  0.00    +0.000 A 
ATOM     13  C   UNL     1       5.772   4.492  15.034  0.00  0.00    +0.000 A 
ENDBRANCH   1   3
BRANCH   1  14
ATOM     14  C   UNL     1       3.162   4.946  17.606  0.00  0.00    +0.000 C 
BRANCH  14  17
ATOM     15  C   UNL     1       0.781   2.593  19.504  0.00  0.00    +0.000 C 
ATOM     16  N   UNL     1       1.933   3.421  19.199  0.00  0.00    +0.000 N 
ATOM     17  C   UNL     1       1.942   4.085  17.975  0.00  0.00    +0.000 C 
ATOM     18  O   UNL     1       0.980   4.021  17.202  0.00  0.00    +0.000 OA
BRANCH  16  19
ATOM     19  C   UNL     1       3.029   3.445  20.186  0.00  0.00    +0.000 C 
BRANCH  19  20
ATOM     20  C   UNL     1       4.218   2.517  19.900  0.00  0.00    +0.000 C 
ATOM     21  F   UNL     1       3.926   1.578  18.971  0.00  0.00    +0.000 F 
ATOM     22  F   UNL     1       5.291   3.206  19.455  0.00  0.00    +0.000 F 
ATOM     23  F   UNL     1       4.597   1.866  21.026  0.00  0.00    +0.000 F 
ENDBRANCH  19  20
ENDBRANCH  16  19
ENDBRANCH  14  17
ENDBRANCH   1  14
TORSDOF 5
ENDMDL
MODEL 3
REMARK VINA RESULT:      -6.9      2.904      4.321
REMARK  Name = 
REMARK  6 active torsions:
REMARK  status: ('A' for Active; 'I' for Inactive)
REMARK    1  A    between atoms: C_1  and  N_2
REMARK    2  A    between atoms: N_2  and  C_3
REMARK    3  A    between atoms: C_3  and  C_4
REMARK    4  A    between atoms: C_8  and  C_10
REMARK    5  A    between atoms: C_10  and  N_11
REMARK    6  A    between atoms: N_11  and  C_12
REMARK                            x       y       z     vdW  Elec       q    Type
REMARK                         _______ _______ _______ _____ _____    ______ ____
ROOT
ATOM      1  N   UNL     1       4.773   3.393  16.853  0.00  0.00    +0.000 N 
ATOM      2  H   UNL     1       5.078   2.426  16.923  0.00  0.00    +0.000 HD
ENDROOT
BRANCH   1   3
ATOM      3  C   UNL     1       5.806   4.233  16.426  0.00  0.00    +0.000 A 
ATOM      4  N   UNL     1       6.336   5.100  17.301  0.00  0.00    +0.000 NA
ATOM      5  C   UNL     1       7.256   5.952  16.834  0.00  0.00    +0.000 A 
ATOM      6  N   UNL     1       7.693   6.030  15.574  0.00  0.00    +0.000 NA
ATOM      7  C   UNL     1       7.160   5.169  14.705  0.00  0.00    +0.000 A 
ATOM      8  C   UNL     1       7.575   5.221  13.378  0.00  0.00    +0.000 A 
ATOM      9  C   UNL     1       7.056   4.359  12.409  0.00  0.00    +0.000 A 
ATOM     10  C   UNL     1       6.094   3.434  12.774  0.00  0.00    +0.000 A 
ATOM     11  F   UNL     1       5.587   2.604  11.855  0.00  0.00    +0.000 F 
ATOM     12  C   UNL     1       5.649   3.360  14.086  0.00  0.00    +0.000 A 
ATOM     13  C   UNL     1       6.188   4.224  15.072  0.00  0.00    +0.000 A 
ENDBRANCH   1   3
BRANCH   1  14
ATOM     14  C   UNL     1       3.949   3.786  17.998  0.00  0.00    +0.000 C 
BRANCH  14  17
ATOM     15  C   UNL     1       0.585   2.083  18.769  0.00  0.00    +0.000 C 
ATOM     16  N   UNL     1       1.901   2.666  18.960  0.00  0.00    +0.000 N 
ATOM     17  C   UNL     1       2.541   3.189  17.839  0.00  0.00    +0.000 C 
ATOM     18  O   UNL     1       1.987   3.212  16.734  0.00  0.00    +0.000 OA
BRANCH  16  19
ATOM     19  C   UNL     1       2.480   2.604  20.315  0.00  0.00    +0.000 C 
BRANCH  19  20
ATOM     20  C   UNL     1       1.694   3.324  21.420  0.00  0.00    +0.000 C 
ATOM     21  F   UNL     1       0.892   2.482  22.113  0.00  0.00    +0.000 F 
ATOM     22  F   UNL     1       2.518   3.920  22.308  0.00  0.00    +0.000 F 
ATOM     23  F   UNL     1       0.904   4.290  20.892  0.00  0.00    +0.000 F 
ENDBRANCH  19  20
ENDBRANCH  16  19
ENDBRANCH  14  17
ENDBRANCH   1  14
TORSDOF 5
ENDMDL
MODEL 4
REMARK VINA RESULT:      -6.9      2.759      4.085
REMARK  Name = 
REMARK  6 active torsions:
REMARK  status: ('A' for Active; 'I' for Inactive)
REMARK    1  A    between atoms: C_1  and  N_2
REMARK    2  A    between atoms: N_2  and  C_3
REMARK    3  A    between atoms: C_3  and  C_4
REMARK    4  A    between atoms: C_8  and  C_10
REMARK    5  A    between atoms: C_10  and  N_11
REMARK    6  A    between atoms: N_11  and  C_12
REMARK                            x       y       z     vdW  Elec       q    Type
REMARK                         _______ _______ _______ _____ _____    ______ ____
ROOT
ATOM      1  N   UNL     1       3.305   6.117  18.006  0.00  0.00    +0.000 N 
ATOM      2  H   UNL     1       3.041   6.198  17.029  0.00  0.00    +0.000 HD
ENDROOT
BRANCH   1   3
ATOM      3  C   UNL     1       4.607   5.629  18.153  0.00  0.00    +0.000 A 
ATOM      4  N   UNL     1       5.211   5.751  19.345  0.00  0.00    +0.000 NA
ATOM      5  C   UNL     1       6.488   5.359  19.425  0.00  0.00    +0.000 A 
ATOM      6  N   UNL     1       7.226   4.865  18.427  0.00  0.00    +0.000 NA
ATOM      7  C   UNL     1       6.624   4.750  17.241  0.00  0.00    +0.000 A 
ATOM      8  C   UNL     1       7.357   4.251  16.168  0.00  0.00    +0.000 A 
ATOM      9  C   UNL     1       6.799   4.111  14.896  0.00  0.00    +0.000 A 
ATOM     10  C   UNL     1       5.483   4.487  14.691  0.00  0.00    +0.000 A 
ATOM     11  F   UNL     1       4.937   4.360  13.477  0.00  0.00    +0.000 F 
ATOM     12  C   UNL     1       4.725   4.996  15.735  0.00  0.00    +0.000 A 
ATOM     13  C   UNL     1       5.287   5.124  17.030  0.00  0.00    +0.000 A 
ENDBRANCH   1   3
BRANCH   1  14
ATOM     14  C   UNL     1       2.225   5.549  18.815  0.00  0.00    +0.000 C 
BRANCH  14  17
ATOM     15  C   UNL     1       1.790   1.754  18.346  0.00  0.00    +0.000 C 
ATOM     16  N   UNL     1       2.160   3.028  18.936  0.00  0.00    +0.000 N 
ATOM     17  C   UNL     1       1.821   4.183  18.235  0.00  0.00    +0.000 C 
ATOM     18  O   UNL     1       1.178   4.130  17.181  0.00  0.00    +0.000 OA
BRANCH  16  19
ATOM     19  C   UNL     1       2.916   2.994  20.202  0.00  0.00    +0.000 C 
BRANCH  19  20
ATOM     20  C   UNL     1       2.082   3.031  21.490  0.00  0.00    +0.000 C 
ATOM     21  F   UNL     1       2.212   1.900  22.219  0.00  0.00    +0.000 F 
ATOM     22  F   UNL     1       2.437   4.066  22.282  0.00  0.00    +0.000 F 
ATOM     23  F   UNL     1       0.766   3.178  21.202  0.00  0.00    +0.000 F 
ENDBRANCH  19  20
ENDBRANCH  16  19
ENDBRANCH  14  17
ENDBRANCH   1  14
TORSDOF 5
ENDMDL
MODEL 5
REMARK VINA RESULT:      -6.9      3.734      5.951
REMARK  Name = 
REMARK  6 active torsions:
REMARK  status: ('A' for Active; 'I' for Inactive)
REMARK    1  A    between atoms: C_1  and  N_2
REMARK    2  A    between atoms: N_2  and  C_3
REMARK    3  A    between atoms: C_3  and  C_4
REMARK    4  A    between atoms: C_8  and  C_10
REMARK    5  A    between atoms: C_10  and  N_11
REMARK    6  A    between atoms: N_11  and  C_12
REMARK                            x       y       z     vdW  Elec       q    Type
REMARK                         _______ _______ _______ _____ _____    ______ ____
ROOT
ATOM      1  N   UNL     1       2.136   6.421  20.875  0.00  0.00    +0.000 N 
ATOM      2  H   UNL     1       2.200   6.683  21.854  0.00  0.00    +0.000 HD
ENDROOT
BRANCH   1   3
ATOM      3  C   UNL     1       1.855   7.521  20.060  0.00  0.00    +0.000 A 
ATOM      4  N   UNL     1       2.338   7.538  18.809  0.00  0.00    +0.000 NA
ATOM      5  C   UNL     1       2.129   8.646  18.089  0.00  0.00    +0.000 A 
ATOM      6  N   UNL     1       1.491   9.745  18.499  0.00  0.00    +0.000 NA
ATOM      7  C   UNL     1       1.016   9.727  19.746  0.00  0.00    +0.000 A 
ATOM      8  C   UNL     1       0.354  10.855  20.222  0.00  0.00    +0.000 A 
ATOM      9  C   UNL     1      -0.163  10.915  21.518  0.00  0.00    +0.000 A 
ATOM     10  C   UNL     1      -0.005   9.827  22.358  0.00  0.00    +0.000 A 
ATOM     11  F   UNL     1      -0.493   9.872  23.603  0.00  0.00    +0.000 F 
ATOM     12  C   UNL     1       0.657   8.689  21.921  0.00  0.00    +0.000 A 
ATOM     13  C   UNL     1       1.167   8.623  20.600  0.00  0.00    +0.000 A 
ENDBRANCH   1   3
BRANCH   1  14
ATOM     14  C   UNL     1       1.385   5.176  20.694  0.00  0.00    +0.000 C 
BRANCH  14  17
ATOM     15  C   UNL     1       3.992   2.379  20.260  0.00  0.00    +0.000 C 
ATOM     16  N   UNL     1       3.155   3.529  19.969  0.00  0.00    +0.000 N 
ATOM     17  C   UNL     1       2.309   3.980  20.979  0.00  0.00    +0.000 C 
ATOM     18  O   UNL     1       2.312   3.461  22.100  0.00  0.00    +0.000 OA
BRANCH  16  19
ATOM     19  C   UNL     1       3.225   4.090  18.607  0.00  0.00    +0.000 C 
BRANCH  19  20
ATOM     20  C   UNL     1       2.118   3.653  17.637  0.00  0.00    +0.000 C 
ATOM     21  F   UNL     1       1.252   4.655  17.360  0.00  0.00    +0.000 F 
ATOM     22  F   UNL     1       2.627   3.223  16.463  0.00  0.00    +0.000 F 
ATOM     23  F   UNL     1       1.399   2.632  18.162  0.00  0.00    +0.000 F 
ENDBRANCH  19  20
ENDBRANCH  16  19
ENDBRANCH  14  17
ENDBRANCH   1  14
TORSDOF 5
ENDMDL
MODEL 6
REMARK VINA RESULT:      -6.9      2.717      5.812
REMARK  Name = 
REMARK  6 active torsions:
REMARK  status: ('A' for Active; 'I' for Inactive)
REMARK    1  A    between atoms: C_1  and  N_2
REMARK    2  A    between atoms: N_2  and  C_3
REMARK    3  A    between atoms: C_3  and  C_4
REMARK    4  A    between atoms: C_8  and  C_10
REMARK    5  A    between atoms: C_10  and  N_11
REMARK    6  A    between atoms: N_11  and  C_12
REMARK                            x       y       z     vdW  Elec       q    Type
REMARK                         _______ _______ _______ _____ _____    ______ ____
ROOT
ATOM      1  N   UNL     1       3.116   6.957  17.346  0.00  0.00    +0.000 N 
ATOM      2  H   UNL     1       2.553   7.635  16.841  0.00  0.00    +0.000 HD
ENDROOT
BRANCH   1   3
ATOM      3  C   UNL     1       2.513   6.575  18.548  0.00  0.00    +0.000 A 
ATOM      4  N   UNL     1       2.294   7.510  19.486  0.00  0.00    +0.000 NA
ATOM      5  C   UNL     1       1.803   7.094  20.659  0.00  0.00    +0.000 A 
ATOM      6  N   UNL     1       1.517   5.833  20.992  0.00  0.00    +0.000 NA
ATOM      7  C   UNL     1       1.741   4.904  20.059  0.00  0.00    +0.000 A 
ATOM      8  C   UNL     1       1.470   3.574  20.365  0.00  0.00    +0.000 A 
ATOM      9  C   UNL     1       1.687   2.547  19.445  0.00  0.00    +0.000 A 
ATOM     10  C   UNL     1       2.197   2.856  18.197  0.00  0.00    +0.000 A 
ATOM     11  F   UNL     1       2.412   1.881  17.306  0.00  0.00    +0.000 F 
ATOM     12  C   UNL     1       2.488   4.170  17.859  0.00  0.00    +0.000 A 
ATOM     13  C   UNL     1       2.251   5.214  18.788  0.00  0.00    +0.000 A 
ENDBRANCH   1   3
BRANCH   1  14
ATOM     14  C   UNL     1       4.537   7.312  17.331  0.00  0.00    +0.000 C 
BRANCH  14  17
ATOM     15  C   UNL     1       6.730   4.556  15.779  0.00  0.00    +0.000 C 
ATOM     16  N   UNL     1       6.026   5.353  16.768  0.00  0.00    +0.000 N 
ATOM     17  C   UNL     1       5.269   6.428  16.308  0.00  0.00    +0.000 C 
ATOM     18  O   UNL     1       5.151   6.660  15.100  0.00  0.00    +0.000 OA
BRANCH  16  19
ATOM     19  C   UNL     1       6.218   4.995  18.187  0.00  0.00    +0.000 C 
BRANCH  19  20
ATOM     20  C   UNL     1       7.541   5.441  18.824  0.00  0.00    +0.000 C 
ATOM     21  F   UNL     1       7.933   6.662  18.396  0.00  0.00    +0.000 F 
ATOM     22  F   UNL     1       7.451   5.494  20.171  0.00  0.00    +0.000 F 
ATOM     23  F   UNL     1       8.534   4.569  18.522  0.00  0.00    +0.000 F 
ENDBRANCH  19  20
ENDBRANCH  16  19
ENDBRANCH  14  17
ENDBRANCH   1  14
TORSDOF 5
ENDMDL
MODEL 7
REMARK VINA RESULT:      -6.8      0.926      1.024
REMARK  Name = 
REMARK  6 active torsions:
REMARK  status: ('A' for Active; 'I' for Inactive)
REMARK    1  A    between atoms: C_1  and  N_2
REMARK    2  A    between atoms: N_2  and  C_3
REMARK    3  A    between atoms: C_3  and  C_4
REMARK    4  A    between atoms: C_8  and  C_10
REMARK    5  A    between atoms: C_10  and  N_11
REMARK    6  A    between atoms: N_11  and  C_12
REMARK                            x       y       z     vdW  Elec       q    Type
REMARK                         _______ _______ _______ _____ _____    ______ ____
ROOT
ATOM      1  N   UNL     1       4.770   2.912  17.434  0.00  0.00    +0.000 N 
ATOM      2  H   UNL     1       5.401   2.623  18.176  0.00  0.00    +0.000 HD
ENDROOT
BRANCH   1   3
ATOM      3  C   UNL     1       5.239   4.047  16.767  0.00  0.00    +0.000 A 
ATOM      4  N   UNL     1       4.909   4.221  15.478  0.00  0.00    +0.000 NA
ATOM      5  C   UNL     1       5.451   5.268  14.846  0.00  0.00    +0.000 A 
ATOM      6  N   UNL     1       6.299   6.155  15.372  0.00  0.00    +0.000 NA
ATOM      7  C   UNL     1       6.629   5.977  16.652  0.00  0.00    +0.000 A 
ATOM      8  C   UNL     1       7.520   6.870  17.240  0.00  0.00    +0.000 A 
ATOM      9  C   UNL     1       7.919   6.744  18.572  0.00  0.00    +0.000 A 
ATOM     10  C   UNL     1       7.426   5.695  19.328  0.00  0.00    +0.000 A 
ATOM     11  F   UNL     1       7.802   5.561  20.605  0.00  0.00    +0.000 F 
ATOM     12  C   UNL     1       6.544   4.780  18.773  0.00  0.00    +0.000 A 
ATOM     13  C   UNL     1       6.125   4.919  17.426  0.00  0.00    +0.000 A 
ENDBRANCH   1   3
BRANCH   1  14
ATOM     14  C   UNL     1       3.369   2.849  17.857  0.00  0.00    +0.000 C 
BRANCH  14  17
ATOM     15  C   UNL     1       2.458   3.122  21.586  0.00  0.00    +0.000 C 
ATOM     16  N   UNL     1       2.471   3.375  20.157  0.00  0.00    +0.000 N 
ATOM     17  C   UNL     1       3.308   2.587  19.371  0.00  0.00    +0.000 C 
ATOM     18  O   UNL     1       3.970   1.666  19.862  0.00  0.00    +0.000 OA
BRANCH  16  19
ATOM     19  C   UNL     1       1.639   4.488  19.659  0.00  0.00    +0.000 C 
BRANCH  19  20
ATOM     20  C   UNL     1       2.292   5.877  19.668  0.00  0.00    +0.000 C 
ATOM     21  F   UNL     1       2.132   6.528  18.493  0.00  0.00    +0.000 F 
ATOM     22  F   UNL     1       1.778   6.662  20.639  0.00  0.00    +0.000 F 
ATOM     23  F   UNL     1       3.624   5.777  19.895  0.00  0.00    +0.000 F 
ENDBRANCH  19  20
ENDBRANCH  16  19
ENDBRANCH  14  17
ENDBRANCH   1  14
TORSDOF 5
ENDMDL
MODEL 8
REMARK VINA RESULT:      -6.7      1.879      3.043
REMARK  Name = 
REMARK  6 active torsions:
REMARK  status: ('A' for Active; 'I' for Inactive)
REMARK    1  A    between atoms: C_1  and  N_2
REMARK    2  A    between atoms: N_2  and  C_3
REMARK    3  A    between atoms: C_3  and  C_4
REMARK    4  A    between atoms: C_8  and  C_10
REMARK    5  A    between atoms: C_10  and  N_11
REMARK    6  A    between atoms: N_11  and  C_12
REMARK                            x       y       z     vdW  Elec       q    Type
REMARK                         _______ _______ _______ _____ _____    ______ ____
ROOT
ATOM      1  N   UNL     1       4.662   3.168  18.275  0.00  0.00    +0.000 N 
ATOM      2  H   UNL     1       4.683   2.345  17.681  0.00  0.00    +0.000 HD
ENDROOT
BRANCH   1   3
ATOM      3  C   UNL     1       5.726   4.033  18.004  0.00  0.00    +0.000 A 
ATOM      4  N   UNL     1       6.316   4.672  19.026  0.00  0.00    +0.000 NA
ATOM      5  C   UNL     1       7.268   5.561  18.721  0.00  0.00    +0.000 A 
ATOM      6  N   UNL     1       7.683   5.883  17.493  0.00  0.00    +0.000 NA
ATOM      7  C   UNL     1       7.091   5.250  16.479  0.00  0.00    +0.000 A 
ATOM      8  C   UNL     1       7.484   5.561  15.180  0.00  0.00    +0.000 A 
ATOM      9  C   UNL     1       6.904   4.947  14.068  0.00  0.00    +0.000 A 
ATOM     10  C   UNL     1       5.905   4.010  14.259  0.00  0.00    +0.000 A 
ATOM     11  F   UNL     1       5.339   3.416  13.202  0.00  0.00    +0.000 F 
ATOM     12  C   UNL     1       5.482   3.681  15.538  0.00  0.00    +0.000 A 
ATOM     13  C   UNL     1       6.082   4.292  16.667  0.00  0.00    +0.000 A 
ENDBRANCH   1   3
BRANCH   1  14
ATOM     14  C   UNL     1       4.344   2.828  19.664  0.00  0.00    +0.000 C 
BRANCH  14  17
ATOM     15  C   UNL     1       0.799   4.218  20.224  0.00  0.00    +0.000 C 
ATOM     16  N   UNL     1       2.232   4.171  19.997  0.00  0.00    +0.000 N 
ATOM     17  C   UNL     1       2.823   2.916  19.873  0.00  0.00    +0.000 C 
ATOM     18  O   UNL     1       2.146   1.882  19.894  0.00  0.00    +0.000 OA
BRANCH  16  19
ATOM     19  C   UNL     1       2.957   5.455  19.976  0.00  0.00    +0.000 C 
BRANCH  19  20
ATOM     20  C   UNL     1       2.815   6.292  18.697  0.00  0.00    +0.000 C 
ATOM     21  F   UNL     1       2.304   5.576  17.669  0.00  0.00    +0.000 F 
ATOM     22  F   UNL     1       2.010   7.359  18.887  0.00  0.00    +0.000 F 
ATOM     23  F   UNL     1       4.022   6.764  18.300  0.00  0.00    +0.000 F 
ENDBRANCH  19  20
ENDBRANCH  16  19
ENDBRANCH  14  17
ENDBRANCH   1  14
TORSDOF 5
ENDMDL
MODEL 9
REMARK VINA RESULT:      -6.7      2.698      3.967
REMARK  Name = 
REMARK  6 active torsions:
REMARK  status: ('A' for Active; 'I' for Inactive)
REMARK    1  A    between atoms: C_1  and  N_2
REMARK    2  A    between atoms: N_2  and  C_3
REMARK    3  A    between atoms: C_3  and  C_4
REMARK    4  A    between atoms: C_8  and  C_10
REMARK    5  A    between atoms: C_10  and  N_11
REMARK    6  A    between atoms: N_11  and  C_12
REMARK                            x       y       z     vdW  Elec       q    Type
REMARK                         _______ _______ _______ _____ _____    ______ ____
ROOT
ATOM      1  N   UNL     1       3.866   3.627  18.084  0.00  0.00    +0.000 N 
ATOM      2  H   UNL     1       3.748   3.174  18.985  0.00  0.00    +0.000 HD
ENDROOT
BRANCH   1   3
ATOM      3  C   UNL     1       5.162   4.123  17.919  0.00  0.00    +0.000 A 
ATOM      4  N   UNL     1       5.850   4.508  19.005  0.00  0.00    +0.000 NA
ATOM      5  C   UNL     1       7.049   5.065  18.802  0.00  0.00    +0.000 A 
ATOM      6  N   UNL     1       7.627   5.284  17.618  0.00  0.00    +0.000 NA
ATOM      7  C   UNL     1       6.939   4.905  16.539  0.00  0.00    +0.000 A 
ATOM      8  C   UNL     1       7.497   5.124  15.283  0.00  0.00    +0.000 A 
ATOM      9  C   UNL     1       6.833   4.762  14.109  0.00  0.00    +0.000 A 
ATOM     10  C   UNL     1       5.581   4.180  14.193  0.00  0.00    +0.000 A 
ATOM     11  F   UNL     1       4.933   3.831  13.076  0.00  0.00    +0.000 F 
ATOM     12  C   UNL     1       4.990   3.955  15.428  0.00  0.00    +0.000 A 
ATOM     13  C   UNL     1       5.671   4.306  16.620  0.00  0.00    +0.000 A 
ENDBRANCH   1   3
BRANCH   1  14
ATOM     14  C   UNL     1       2.719   4.475  17.749  0.00  0.00    +0.000 C 
BRANCH  14  17
ATOM     15  C   UNL     1       1.568   6.355  20.903  0.00  0.00    +0.000 C 
ATOM     16  N   UNL     1       1.725   5.301  19.917  0.00  0.00    +0.000 N 
ATOM     17  C   UNL     1       2.555   5.557  18.829  0.00  0.00    +0.000 C 
ATOM     18  O   UNL     1       3.184   6.617  18.735  0.00  0.00    +0.000 OA
BRANCH  16  19
ATOM     19  C   UNL     1       0.944   4.065  20.116  0.00  0.00    +0.000 C 
BRANCH  19  20
ATOM     20  C   UNL     1       1.656   2.929  20.863  0.00  0.00    +0.000 C 
ATOM     21  F   UNL     1       1.733   1.797  20.126  0.00  0.00    +0.000 F 
ATOM     22  F   UNL     1       2.916   3.273  21.208  0.00  0.00    +0.000 F 
ATOM     23  F   UNL     1       0.996   2.622  22.007  0.00  0.00    +0.000 F 
ENDBRANCH  19  20
ENDBRANCH  16  19
ENDBRANCH  14  17
ENDBRANCH   1  14
TORSDOF 5
ENDMDL
