MODEL 1
REMARK VINA RESULT:      -6.2      0.000      0.000
REMARK  Name = 
REMARK  2 active torsions:
REMARK  status: ('A' for Active; 'I' for Inactive)
REMARK    1  A    between atoms: C_1  and  N_2
REMARK    2  A    between atoms: C_9  and  C_10
REMARK                            x       y       z     vdW  Elec       q    Type
REMARK                         _______ _______ _______ _____ _____    ______ ____
ROOT
ATOM      1  C   UNL     1       7.524   6.221  18.467  0.00  0.00    +0.000 C 
ATOM      2  N   UNL     1       6.595   5.544  17.604  0.00  0.00    +0.000 N 
ATOM      3  C   UNL     1       6.781   5.422  16.233  0.00  0.00    +0.000 C 
ATOM      4  O   UNL     1       7.687   5.825  15.537  0.00  0.00    +0.000 OA
ATOM      5  C   UNL     1       5.551   4.634  15.725  0.00  0.00    +0.000 C 
ATOM      6  O   UNL     1       5.305   4.302  14.589  0.00  0.00    +0.000 OA
ATOM      7  C   UNL     1       4.738   4.367  16.908  0.00  0.00    +0.000 A 
ATOM      8  C   UNL     1       3.532   3.694  16.993  0.00  0.00    +0.000 A 
ATOM      9  C   UNL     1       2.952   3.581  18.262  0.00  0.00    +0.000 A 
ATOM     10  C   UNL     1       3.605   4.142  19.385  0.00  0.00    +0.000 A 
ATOM     11  C   UNL     1       4.834   4.820  19.264  0.00  0.00    +0.000 A 
ATOM     12  C   UNL     1       5.395   4.927  18.004  0.00  0.00    +0.000 A 
ENDROOT
BRANCH   9  13
ATOM     13  C   UNL     1       1.699   2.895  18.416  0.00  0.00    +0.000 C 
ATOM     14  N   UNL     1       0.689   2.343  18.542  0.00  0.00    +0.000 NA
ENDBRANCH   9  13
TORSDOF 1
ENDMDL
MODEL 2
REMARK VINA RESULT:      -6.2      3.162      5.293
REMARK  Name = 
REMARK  2 active torsions:
REMARK  status: ('A' for Active; 'I' for Inactive)
REMARK    1  A    between atoms: C_1  and  N_2
REMARK    2  A    between atoms: C_9  and  C_10
REMARK                            x       y       z     vdW  Elec       q    Type
REMARK                         _______ _______ _______ _____ _____    ______ ____
ROOT
ATOM      1  C   UNL     1       1.046   4.559  20.469  0.00  0.00    +0.000 C 
ATOM      2  N   UNL     1       2.348   4.025  20.169  0.00  0.00    +0.000 N 
ATOM      3  C   UNL     1       2.906   2.954  20.853  0.00  0.00    +0.000 C 
ATOM      4  O   UNL     1       2.453   2.300  21.767  0.00  0.00    +0.000 OA
ATOM      5  C   UNL     1       4.290   2.732  20.200  0.00  0.00    +0.000 C 
ATOM      6  O   UNL     1       5.117   1.898  20.486  0.00  0.00    +0.000 OA
ATOM      7  C   UNL     1       4.400   3.747  19.156  0.00  0.00    +0.000 A 
ATOM      8  C   UNL     1       5.449   3.978  18.282  0.00  0.00    +0.000 A 
ATOM      9  C   UNL     1       5.300   5.029  17.371  0.00  0.00    +0.000 A 
ATOM     10  C   UNL     1       4.113   5.798  17.372  0.00  0.00    +0.000 A 
ATOM     11  C   UNL     1       3.063   5.535  18.275  0.00  0.00    +0.000 A 
ATOM     12  C   UNL     1       3.223   4.495  19.172  0.00  0.00    +0.000 A 
ENDROOT
BRANCH   9  13
ATOM     13  C   UNL     1       6.355   5.320  16.439  0.00  0.00    +0.000 C 
ATOM     14  N   UNL     1       7.207   5.554  15.690  0.00  0.00    +0.000 NA
ENDBRANCH   9  13
TORSDOF 1
ENDMDL
MODEL 3
REMARK VINA RESULT:      -6.1      1.745      2.735
REMARK  Name = 
REMARK  2 active torsions:
REMARK  status: ('A' for Active; 'I' for Inactive)
REMARK    1  A    between atoms: C_1  and  N_2
REMARK    2  A    between atoms: C_9  and  C_10
REMARK                            x       y       z     vdW  Elec       q    Type
REMARK                         _______ _______ _______ _____ _____    ______ ____
ROOT
ATOM      1  C   UNL     1       5.562   4.224  15.031  0.00  0.00    +0.000 C 
ATOM      2  N   UNL     1       5.547   4.356  16.463  0.00  0.00    +0.000 N 
ATOM      3  C   UNL     1       6.597   4.905  17.187  0.00  0.00    +0.000 C 
ATOM      4  O   UNL     1       7.655   5.350  16.797  0.00  0.00    +0.000 OA
ATOM      5  C   UNL     1       6.148   4.842  18.665  0.00  0.00    +0.000 C 
ATOM      6  O   UNL     1       6.759   5.216  19.638  0.00  0.00    +0.000 OA
ATOM      7  C   UNL     1       4.821   4.233  18.648  0.00  0.00    +0.000 A 
ATOM      8  C   UNL     1       3.986   3.951  19.715  0.00  0.00    +0.000 A 
ATOM      9  C   UNL     1       2.755   3.354  19.422  0.00  0.00    +0.000 A 
ATOM     10  C   UNL     1       2.414   3.069  18.079  0.00  0.00    +0.000 A 
ATOM     11  C   UNL     1       3.288   3.370  17.015  0.00  0.00    +0.000 A 
ATOM     12  C   UNL     1       4.502   3.958  17.318  0.00  0.00    +0.000 A 
ENDROOT
BRANCH   9  13
ATOM     13  C   UNL     1       1.845   3.036  20.488  0.00  0.00    +0.000 C 
ATOM     14  N   UNL     1       1.113   2.780  21.348  0.00  0.00    +0.000 NA
ENDBRANCH   9  13
TORSDOF 1
ENDMDL
MODEL 4
REMARK VINA RESULT:      -6.1      2.763      4.911
REMARK  Name = 
REMARK  2 active torsions:
REMARK  status: ('A' for Active; 'I' for Inactive)
REMARK    1  A    between atoms: C_1  and  N_2
REMARK    2  A    between atoms: C_9  and  C_10
REMARK                            x       y       z     vdW  Elec       q    Type
REMARK                         _______ _______ _______ _____ _____    ______ ____
ROOT
ATOM      1  C   UNL     1       1.902   5.364  20.296  0.00  0.00    +0.000 C 
ATOM      2  N   UNL     1       2.623   4.474  19.426  0.00  0.00    +0.000 N 
ATOM      3  C   UNL     1       2.451   3.097  19.435  0.00  0.00    +0.000 C 
ATOM      4  O   UNL     1       1.719   2.414  20.118  0.00  0.00    +0.000 OA
ATOM      5  C   UNL     1       3.416   2.560  18.353  0.00  0.00    +0.000 C 
ATOM      6  O   UNL     1       3.591   1.410  18.024  0.00  0.00    +0.000 OA
ATOM      7  C   UNL     1       4.083   3.736  17.802  0.00  0.00    +0.000 A 
ATOM      8  C   UNL     1       5.042   3.797  16.805  0.00  0.00    +0.000 A 
ATOM      9  C   UNL     1       5.527   5.065  16.463  0.00  0.00    +0.000 A 
ATOM     10  C   UNL     1       5.030   6.210  17.129  0.00  0.00    +0.000 A 
ATOM     11  C   UNL     1       4.052   6.112  18.138  0.00  0.00    +0.000 A 
ATOM     12  C   UNL     1       3.583   4.854  18.468  0.00  0.00    +0.000 A 
ENDROOT
BRANCH   9  13
ATOM     13  C   UNL     1       6.525   5.194  15.438  0.00  0.00    +0.000 C 
ATOM     14  N   UNL     1       7.328   5.300  14.610  0.00  0.00    +0.000 NA
ENDBRANCH   9  13
TORSDOF 1
ENDMDL
MODEL 5
REMARK VINA RESULT:      -6.0      1.225      1.225
REMARK  Name = 
REMARK  2 active torsions:
REMARK  status: ('A' for Active; 'I' for Inactive)
REMARK    1  A    between atoms: C_1  and  N_2
REMARK    2  A    between atoms: C_9  and  C_10
REMARK                            x       y       z     vdW  Elec       q    Type
REMARK                         _______ _______ _______ _____ _____    ______ ____
ROOT
ATOM      1  C   UNL     1       8.007   5.801  19.198  0.00  0.00    +0.000 C 
ATOM      2  N   UNL     1       6.899   5.818  18.280  0.00  0.00    +0.000 N 
ATOM      3  C   UNL     1       6.907   6.538  17.092  0.00  0.00    +0.000 C 
ATOM      4  O   UNL     1       7.774   7.242  16.621  0.00  0.00    +0.000 OA
ATOM      5  C   UNL     1       5.532   6.264  16.442  0.00  0.00    +0.000 C 
ATOM      6  O   UNL     1       5.113   6.692  15.393  0.00  0.00    +0.000 OA
ATOM      7  C   UNL     1       4.832   5.372  17.362  0.00  0.00    +0.000 A 
ATOM      8  C   UNL     1       3.563   4.832  17.245  0.00  0.00    +0.000 A 
ATOM      9  C   UNL     1       3.124   4.001  18.282  0.00  0.00    +0.000 A 
ATOM     10  C   UNL     1       3.973   3.747  19.385  0.00  0.00    +0.000 A 
ATOM     11  C   UNL     1       5.260   4.312  19.473  0.00  0.00    +0.000 A 
ATOM     12  C   UNL     1       5.681   5.132  18.443  0.00  0.00    +0.000 A 
ENDROOT
BRANCH   9  13
ATOM     13  C   UNL     1       1.815   3.412  18.219  0.00  0.00    +0.000 C 
ATOM     14  N   UNL     1       0.760   2.937  18.171  0.00  0.00    +0.000 NA
ENDBRANCH   9  13
TORSDOF 1
ENDMDL
MODEL 6
REMARK VINA RESULT:      -6.0      1.183      1.184
REMARK  Name = 
REMARK  2 active torsions:
REMARK  status: ('A' for Active; 'I' for Inactive)
REMARK    1  A    between atoms: C_1  and  N_2
REMARK    2  A    between atoms: C_9  and  C_10
REMARK                            x       y       z     vdW  Elec       q    Type
REMARK                         _______ _______ _______ _____ _____    ______ ____
ROOT
ATOM      1  C   UNL     1       6.213   7.630  17.285  0.00  0.00    +0.000 C 
ATOM      2  N   UNL     1       5.781   6.302  16.940  0.00  0.00    +0.000 N 
ATOM      3  C   UNL     1       6.498   5.466  16.094  0.00  0.00    +0.000 C 
ATOM      4  O   UNL     1       7.547   5.663  15.520  0.00  0.00    +0.000 OA
ATOM      5  C   UNL     1       5.669   4.164  16.013  0.00  0.00    +0.000 C 
ATOM      6  O   UNL     1       5.925   3.164  15.385  0.00  0.00    +0.000 OA
ATOM      7  C   UNL     1       4.499   4.388  16.857  0.00  0.00    +0.000 A 
ATOM      8  C   UNL     1       3.446   3.529  17.121  0.00  0.00    +0.000 A 
ATOM      9  C   UNL     1       2.438   3.997  17.971  0.00  0.00    +0.000 A 
ATOM     10  C   UNL     1       2.530   5.298  18.520  0.00  0.00    +0.000 A 
ATOM     11  C   UNL     1       3.617   6.147  18.232  0.00  0.00    +0.000 A 
ATOM     12  C   UNL     1       4.605   5.674  17.389  0.00  0.00    +0.000 A 
ENDROOT
BRANCH   9  13
ATOM     13  C   UNL     1       1.317   3.153  18.282  0.00  0.00    +0.000 C 
ATOM     14  N   UNL     1       0.416   2.471  18.531  0.00  0.00    +0.000 NA
ENDBRANCH   9  13
TORSDOF 1
ENDMDL
MODEL 7
REMARK VINA RESULT:      -6.0      2.995      4.859
REMARK  Name = 
REMARK  2 active torsions:
REMARK  status: ('A' for Active; 'I' for Inactive)
REMARK    1  A    between atoms: C_1  and  N_2
REMARK    2  A    between atoms: C_9  and  C_10
REMARK                            x       y       z     vdW  Elec       q    Type
REMARK                         _______ _______ _______ _____ _____    ______ ____
ROOT
ATOM      1  C   UNL     1       2.209   6.840  19.780  0.00  0.00    +0.000 C 
ATOM      2  N   UNL     1       2.576   5.691  18.996  0.00  0.00    +0.000 N 
ATOM      3  C   UNL     1       2.020   4.432  19.186  0.00  0.00    +0.000 C 
ATOM      4  O   UNL     1       1.182   4.070  19.984  0.00  0.00    +0.000 OA
ATOM      5  C   UNL     1       2.702   3.524  18.137  0.00  0.00    +0.000 C 
ATOM      6  O   UNL     1       2.516   2.345  17.948  0.00  0.00    +0.000 OA
ATOM      7  C   UNL     1       3.629   4.389  17.411  0.00  0.00    +0.000 A 
ATOM      8  C   UNL     1       4.482   4.061  16.372  0.00  0.00    +0.000 A 
ATOM      9  C   UNL     1       5.277   5.088  15.851  0.00  0.00    +0.000 A 
ATOM     10  C   UNL     1       5.182   6.392  16.389  0.00  0.00    +0.000 A 
ATOM     11  C   UNL     1       4.301   6.693  17.447  0.00  0.00    +0.000 A 
ATOM     12  C   UNL     1       3.522   5.669  17.955  0.00  0.00    +0.000 A 
ENDROOT
BRANCH   9  13
ATOM     13  C   UNL     1       6.185   4.810  14.772  0.00  0.00    +0.000 C 
ATOM     14  N   UNL     1       6.916   4.584  13.902  0.00  0.00    +0.000 NA
ENDBRANCH   9  13
TORSDOF 1
ENDMDL
MODEL 8
REMARK VINA RESULT:      -5.9      3.292      4.679
REMARK  Name = 
REMARK  2 active torsions:
REMARK  status: ('A' for Active; 'I' for Inactive)
REMARK    1  A    between atoms: C_1  and  N_2
REMARK    2  A    between atoms: C_9  and  C_10
REMARK                            x       y       z     vdW  Elec       q    Type
REMARK                         _______ _______ _______ _____ _____    ______ ____
ROOT
ATOM      1  C   UNL     1       2.538   2.746  21.382  0.00  0.00    +0.000 C 
ATOM      2  N   UNL     1       2.879   3.375  20.134  0.00  0.00    +0.000 N 
ATOM      3  C   UNL     1       3.502   2.704  19.091  0.00  0.00    +0.000 C 
ATOM      4  O   UNL     1       3.859   1.548  19.019  0.00  0.00    +0.000 OA
ATOM      5  C   UNL     1       3.669   3.759  17.972  0.00  0.00    +0.000 C 
ATOM      6  O   UNL     1       4.165   3.606  16.881  0.00  0.00    +0.000 OA
ATOM      7  C   UNL     1       3.099   4.993  18.506  0.00  0.00    +0.000 A 
ATOM      8  C   UNL     1       3.004   6.233  17.900  0.00  0.00    +0.000 A 
ATOM      9  C   UNL     1       2.411   7.262  18.641  0.00  0.00    +0.000 A 
ATOM     10  C   UNL     1       1.940   7.003  19.950  0.00  0.00    +0.000 A 
ATOM     11  C   UNL     1       2.052   5.727  20.538  0.00  0.00    +0.000 A 
ATOM     12  C   UNL     1       2.641   4.720  19.796  0.00  0.00    +0.000 A 
ENDROOT
BRANCH   9  13
ATOM     13  C   UNL     1       2.284   8.573  18.068  0.00  0.00    +0.000 C 
ATOM     14  N   UNL     1       2.183   9.629  17.603  0.00  0.00    +0.000 NA
ENDBRANCH   9  13
TORSDOF 1
ENDMDL
MODEL 9
REMARK VINA RESULT:      -5.8      1.957      2.838
REMARK  Name = 
REMARK  2 active torsions:
REMARK  status: ('A' for Active; 'I' for Inactive)
REMARK    1  A    between atoms: C_1  and  N_2
REMARK    2  A    between atoms: C_9  and  C_10
REMARK                            x       y       z     vdW  Elec       q    Type
REMARK                         _______ _______ _______ _____ _____    ______ ____
ROOT
ATOM      1  C   UNL     1       5.171   6.211  15.641  0.00  0.00    +0.000 C 
ATOM      2  N   UNL     1       5.405   5.795  16.998  0.00  0.00    +0.000 N 
ATOM      3  C   UNL     1       6.624   5.961  17.643  0.00  0.00    +0.000 C 
ATOM      4  O   UNL     1       7.655   6.448  17.234  0.00  0.00    +0.000 OA
ATOM      5  C   UNL     1       6.415   5.378  19.060  0.00  0.00    +0.000 C 
ATOM      6  O   UNL     1       7.220   5.317  19.959  0.00  0.00    +0.000 OA
ATOM      7  C   UNL     1       5.032   4.910  19.093  0.00  0.00    +0.000 A 
ATOM      8  C   UNL     1       4.349   4.305  20.135  0.00  0.00    +0.000 A 
ATOM      9  C   UNL     1       3.017   3.946  19.901  0.00  0.00    +0.000 A 
ATOM     10  C   UNL     1       2.428   4.210  18.642  0.00  0.00    +0.000 A 
ATOM     11  C   UNL     1       3.152   4.829  17.603  0.00  0.00    +0.000 A 
ATOM     12  C   UNL     1       4.468   5.177  17.846  0.00  0.00    +0.000 A 
ENDROOT
BRANCH   9  13
ATOM     13  C   UNL     1       2.256   3.312  20.942  0.00  0.00    +0.000 C 
ATOM     14  N   UNL     1       1.644   2.803  21.783  0.00  0.00    +0.000 NA
ENDBRANCH   9  13
TORSDOF 1
ENDMDL
