MODEL 1
REMARK VINA RESULT:      -7.2      0.000      0.000
REMARK  Name = 
REMARK  2 active torsions:
REMARK  status: ('A' for Active; 'I' for Inactive)
REMARK    1  A    between atoms: C_2  and  C_16
REMARK    2  A    between atoms: N_6  and  C_7
REMARK                            x       y       z     vdW  Elec       q    Type
REMARK                         _______ _______ _______ _____ _____    ______ ____
ROOT
ATOM      1  O   UNL     1       1.261   5.462  21.277  0.00  0.00    +0.000 OA
ATOM      2  C   UNL     1       1.927   5.863  20.319  0.00  0.00    +0.000 C 
ATOM      3  N   UNL     1       2.055   7.223  20.069  0.00  0.00    +0.000 N 
ATOM      4  C   UNL     1       2.767   7.882  18.962  0.00  0.00    +0.000 C 
ATOM      5  C   UNL     1       1.805   8.727  18.120  0.00  0.00    +0.000 C 
ATOM      6  N   UNL     1       1.135   9.703  18.982  0.00  0.00    +0.000 N 
ATOM      7  C   UNL     1       0.413   9.116  20.130  0.00  0.00    +0.000 C 
ATOM      8  C   UNL     1       1.353   8.185  20.939  0.00  0.00    +0.000 C 
ENDROOT
BRANCH   2   9
ATOM      9  C   UNL     1       2.600   4.838  19.377  0.00  0.00    +0.000 C 
ATOM     10  C   UNL     1       2.407   3.378  19.905  0.00  0.00    +0.000 C 
ATOM     11  C   UNL     1       3.073   2.355  18.953  0.00  0.00    +0.000 C 
ATOM     12  C   UNL     1       2.438   2.464  17.559  0.00  0.00    +0.000 C 
ATOM     13  C   UNL     1       2.607   3.891  17.022  0.00  0.00    +0.000 C 
ATOM     14  C   UNL     1       4.102   4.244  16.937  0.00  0.00    +0.000 C 
ATOM     15  C   UNL     1       4.775   4.086  18.312  0.00  0.00    +0.000 C 
ATOM     16  C   UNL     1       4.576   2.658  18.831  0.00  0.00    +0.000 C 
ATOM     17  C   UNL     1       4.135   5.049  19.319  0.00  0.00    +0.000 C 
ATOM     18  C   UNL     1       1.918   4.862  17.984  0.00  0.00    +0.000 C 
ENDBRANCH   2   9
BRANCH   6  19
ATOM     19  C   UNL     1       1.251  11.058  18.766  0.00  0.00    +0.000 A 
ATOM     20  C   UNL     1       2.392  11.604  18.161  0.00  0.00    +0.000 A 
ATOM     21  C   UNL     1       2.534  12.983  17.978  0.00  0.00    +0.000 A 
ATOM     22  C   UNL     1       1.528  13.838  18.396  0.00  0.00    +0.000 A 
ATOM     23  F   UNL     1       1.669  15.158  18.227  0.00  0.00    +0.000 F 
ATOM     24  C   UNL     1       0.378  13.340  18.985  0.00  0.00    +0.000 A 
ATOM     25  C   UNL     1       0.245  11.961  19.162  0.00  0.00    +0.000 A 
ENDBRANCH   6  19
TORSDOF 2
ENDMDL
MODEL 2
REMARK VINA RESULT:      -7.1      0.071      1.523
REMARK  Name = 
REMARK  2 active torsions:
REMARK  status: ('A' for Active; 'I' for Inactive)
REMARK    1  A    between atoms: C_2  and  C_16
REMARK    2  A    between atoms: N_6  and  C_7
REMARK                            x       y       z     vdW  Elec       q    Type
REMARK                         _______ _______ _______ _____ _____    ______ ____
ROOT
ATOM      1  O   UNL     1       1.292   5.445  21.265  0.00  0.00    +0.000 OA
ATOM      2  C   UNL     1       1.944   5.845  20.297  0.00  0.00    +0.000 C 
ATOM      3  N   UNL     1       2.067   7.205  20.044  0.00  0.00    +0.000 N 
ATOM      4  C   UNL     1       2.763   7.864  18.926  0.00  0.00    +0.000 C 
ATOM      5  C   UNL     1       1.788   8.708  18.098  0.00  0.00    +0.000 C 
ATOM      6  N   UNL     1       1.132   9.684  18.969  0.00  0.00    +0.000 N 
ATOM      7  C   UNL     1       0.427   9.098  20.128  0.00  0.00    +0.000 C 
ATOM      8  C   UNL     1       1.378   8.168  20.923  0.00  0.00    +0.000 C 
ENDROOT
BRANCH   2   9
ATOM      9  C   UNL     1       2.603   4.819  19.346  0.00  0.00    +0.000 C 
ATOM     10  C   UNL     1       4.132   5.107  19.180  0.00  0.00    +0.000 C 
ATOM     11  C   UNL     1       4.788   4.072  18.236  0.00  0.00    +0.000 C 
ATOM     12  C   UNL     1       4.611   2.662  18.819  0.00  0.00    +0.000 C 
ATOM     13  C   UNL     1       3.119   2.359  18.999  0.00  0.00    +0.000 C 
ATOM     14  C   UNL     1       2.400   2.449  17.642  0.00  0.00    +0.000 C 
ATOM     15  C   UNL     1       2.610   3.836  17.009  0.00  0.00    +0.000 C 
ATOM     16  C   UNL     1       4.109   4.119  16.857  0.00  0.00    +0.000 C 
ATOM     17  C   UNL     1       2.013   4.918  17.915  0.00  0.00    +0.000 C 
ATOM     18  C   UNL     1       2.519   3.395  19.953  0.00  0.00    +0.000 C 
ENDBRANCH   2   9
BRANCH   6  19
ATOM     19  C   UNL     1       1.244  11.039  18.749  0.00  0.00    +0.000 A 
ATOM     20  C   UNL     1       2.401  11.592  18.184  0.00  0.00    +0.000 A 
ATOM     21  C   UNL     1       2.538  12.970  17.998  0.00  0.00    +0.000 A 
ATOM     22  C   UNL     1       1.511  13.819  18.374  0.00  0.00    +0.000 A 
ATOM     23  F   UNL     1       1.647  15.139  18.205  0.00  0.00    +0.000 F 
ATOM     24  C   UNL     1       0.345  13.315  18.925  0.00  0.00    +0.000 A 
ATOM     25  C   UNL     1       0.217  11.936  19.104  0.00  0.00    +0.000 A 
ENDBRANCH   6  19
TORSDOF 2
ENDMDL
MODEL 3
REMARK VINA RESULT:      -7.0      0.066      1.509
REMARK  Name = 
REMARK  2 active torsions:
REMARK  status: ('A' for Active; 'I' for Inactive)
REMARK    1  A    between atoms: C_2  and  C_16
REMARK    2  A    between atoms: N_6  and  C_7
REMARK                            x       y       z     vdW  Elec       q    Type
REMARK                         _______ _______ _______ _____ _____    ______ ____
ROOT
ATOM      1  O   UNL     1       1.204   5.440  21.281  0.00  0.00    +0.000 OA
ATOM      2  C   UNL     1       1.881   5.834  20.328  0.00  0.00    +0.000 C 
ATOM      3  N   UNL     1       2.020   7.192  20.077  0.00  0.00    +0.000 N 
ATOM      4  C   UNL     1       2.746   7.845  18.974  0.00  0.00    +0.000 C 
ATOM      5  C   UNL     1       1.796   8.695  18.123  0.00  0.00    +0.000 C 
ATOM      6  N   UNL     1       1.128   9.678  18.979  0.00  0.00    +0.000 N 
ATOM      7  C   UNL     1       0.393   9.098  20.122  0.00  0.00    +0.000 C 
ATOM      8  C   UNL     1       1.318   8.162  20.940  0.00  0.00    +0.000 C 
ENDROOT
BRANCH   2   9
ATOM      9  C   UNL     1       2.553   4.802  19.393  0.00  0.00    +0.000 C 
ATOM     10  C   UNL     1       1.946   4.870  17.952  0.00  0.00    +0.000 C 
ATOM     11  C   UNL     1       2.630   3.843  17.018  0.00  0.00    +0.000 C 
ATOM     12  C   UNL     1       4.134   4.147  16.936  0.00  0.00    +0.000 C 
ATOM     13  C   UNL     1       4.751   4.095  18.338  0.00  0.00    +0.000 C 
ATOM     14  C   UNL     1       4.539   2.700  18.951  0.00  0.00    +0.000 C 
ATOM     15  C   UNL     1       3.042   2.347  18.992  0.00  0.00    +0.000 C 
ATOM     16  C   UNL     1       2.448   2.424  17.581  0.00  0.00    +0.000 C 
ATOM     17  C   UNL     1       2.294   3.352  19.875  0.00  0.00    +0.000 C 
ATOM     18  C   UNL     1       4.057   5.138  19.219  0.00  0.00    +0.000 C 
ENDBRANCH   2   9
BRANCH   6  19
ATOM     19  C   UNL     1       1.255  11.031  18.761  0.00  0.00    +0.000 A 
ATOM     20  C   UNL     1       2.414  11.571  18.185  0.00  0.00    +0.000 A 
ATOM     21  C   UNL     1       2.567  12.948  18.001  0.00  0.00    +0.000 A 
ATOM     22  C   UNL     1       1.554  13.809  18.388  0.00  0.00    +0.000 A 
ATOM     23  F   UNL     1       1.706  15.128  18.220  0.00  0.00    +0.000 F 
ATOM     24  C   UNL     1       0.387  13.318  18.949  0.00  0.00    +0.000 A 
ATOM     25  C   UNL     1       0.243  11.940  19.126  0.00  0.00    +0.000 A 
ENDBRANCH   6  19
TORSDOF 2
ENDMDL
MODEL 4
REMARK VINA RESULT:      -6.9      8.440      9.713
REMARK  Name = 
REMARK  2 active torsions:
REMARK  status: ('A' for Active; 'I' for Inactive)
REMARK    1  A    between atoms: C_2  and  C_16
REMARK    2  A    between atoms: N_6  and  C_7
REMARK                            x       y       z     vdW  Elec       q    Type
REMARK                         _______ _______ _______ _____ _____    ______ ____
ROOT
ATOM      1  O   UNL     1      10.226  16.343  19.205  0.00  0.00    +0.000 OA
ATOM      2  C   UNL     1       9.432  15.439  18.934  0.00  0.00    +0.000 C 
ATOM      3  N   UNL     1       8.120  15.733  18.588  0.00  0.00    +0.000 N 
ATOM      4  C   UNL     1       7.029  14.795  18.275  0.00  0.00    +0.000 C 
ATOM      5  C   UNL     1       5.865  14.965  19.258  0.00  0.00    +0.000 C 
ATOM      6  N   UNL     1       5.402  16.354  19.226  0.00  0.00    +0.000 N 
ATOM      7  C   UNL     1       6.450  17.357  19.511  0.00  0.00    +0.000 C 
ATOM      8  C   UNL     1       7.673  17.138  18.584  0.00  0.00    +0.000 C 
ENDROOT
BRANCH   2   9
ATOM      9  C   UNL     1       9.900  13.966  19.010  0.00  0.00    +0.000 C 
ATOM     10  C   UNL     1      11.342  13.865  19.607  0.00  0.00    +0.000 C 
ATOM     11  C   UNL     1      11.801  12.389  19.691  0.00  0.00    +0.000 C 
ATOM     12  C   UNL     1      10.836  11.603  20.591  0.00  0.00    +0.000 C 
ATOM     13  C   UNL     1       9.413  11.694  20.029  0.00  0.00    +0.000 C 
ATOM     14  C   UNL     1       9.374  11.117  18.604  0.00  0.00    +0.000 C 
ATOM     15  C   UNL     1      10.376  11.851  17.695  0.00  0.00    +0.000 C 
ATOM     16  C   UNL     1      11.786  11.759  18.288  0.00  0.00    +0.000 C 
ATOM     17  C   UNL     1      10.000  13.334  17.597  0.00  0.00    +0.000 C 
ATOM     18  C   UNL     1       8.996  13.167  19.984  0.00  0.00    +0.000 C 
ENDBRANCH   2   9
BRANCH   6  19
ATOM     19  C   UNL     1       4.111  16.677  18.877  0.00  0.00    +0.000 A 
ATOM     20  C   UNL     1       3.696  16.676  17.538  0.00  0.00    +0.000 A 
ATOM     21  C   UNL     1       2.398  17.045  17.173  0.00  0.00    +0.000 A 
ATOM     22  C   UNL     1       1.490  17.418  18.151  0.00  0.00    +0.000 A 
ATOM     23  F   UNL     1       0.251  17.780  17.800  0.00  0.00    +0.000 F 
ATOM     24  C   UNL     1       1.853  17.421  19.487  0.00  0.00    +0.000 A 
ATOM     25  C   UNL     1       3.152  17.048  19.841  0.00  0.00    +0.000 A 
ENDBRANCH   6  19
TORSDOF 2
ENDMDL
MODEL 5
REMARK VINA RESULT:      -6.8      9.225     10.687
REMARK  Name = 
REMARK  2 active torsions:
REMARK  status: ('A' for Active; 'I' for Inactive)
REMARK    1  A    between atoms: C_2  and  C_16
REMARK    2  A    between atoms: N_6  and  C_7
REMARK                            x       y       z     vdW  Elec       q    Type
REMARK                         _______ _______ _______ _____ _____    ______ ____
ROOT
ATOM      1  O   UNL     1      10.591  15.413  21.737  0.00  0.00    +0.000 OA
ATOM      2  C   UNL     1       9.926  14.402  21.494  0.00  0.00    +0.000 C 
ATOM      3  N   UNL     1       8.852  14.054  22.302  0.00  0.00    +0.000 N 
ATOM      4  C   UNL     1       7.977  12.875  22.196  0.00  0.00    +0.000 C 
ATOM      5  C   UNL     1       8.058  12.018  23.464  0.00  0.00    +0.000 C 
ATOM      6  N   UNL     1       7.711  12.839  24.626  0.00  0.00    +0.000 N 
ATOM      7  C   UNL     1       8.536  14.054  24.789  0.00  0.00    +0.000 C 
ATOM      8  C   UNL     1       8.536  14.885  23.480  0.00  0.00    +0.000 C 
ENDROOT
BRANCH   2   9
ATOM      9  C   UNL     1      10.313  13.505  20.295  0.00  0.00    +0.000 C 
ATOM     10  C   UNL     1       9.222  13.561  19.175  0.00  0.00    +0.000 C 
ATOM     11  C   UNL     1       9.620  12.670  17.974  0.00  0.00    +0.000 C 
ATOM     12  C   UNL     1      10.953  13.162  17.391  0.00  0.00    +0.000 C 
ATOM     13  C   UNL     1      12.038  13.124  18.473  0.00  0.00    +0.000 C 
ATOM     14  C   UNL     1      12.203  11.687  18.998  0.00  0.00    +0.000 C 
ATOM     15  C   UNL     1      10.866  11.150  19.536  0.00  0.00    +0.000 C 
ATOM     16  C   UNL     1       9.797  11.216  18.440  0.00  0.00    +0.000 C 
ATOM     17  C   UNL     1      10.392  12.013  20.711  0.00  0.00    +0.000 C 
ATOM     18  C   UNL     1      11.611  14.033  19.629  0.00  0.00    +0.000 C 
ENDBRANCH   2   9
BRANCH   6  19
ATOM     19  C   UNL     1       6.646  12.525  25.440  0.00  0.00    +0.000 A 
ATOM     20  C   UNL     1       6.044  13.491  26.258  0.00  0.00    +0.000 A 
ATOM     21  C   UNL     1       4.991  13.169  27.119  0.00  0.00    +0.000 A 
ATOM     22  C   UNL     1       4.519  11.867  27.169  0.00  0.00    +0.000 A 
ATOM     23  F   UNL     1       3.516  11.558  27.999  0.00  0.00    +0.000 F 
ATOM     24  C   UNL     1       5.075  10.884  26.369  0.00  0.00    +0.000 A 
ATOM     25  C   UNL     1       6.126  11.217  25.511  0.00  0.00    +0.000 A 
ENDBRANCH   6  19
TORSDOF 2
ENDMDL
MODEL 6
REMARK VINA RESULT:      -6.8      8.602      9.964
REMARK  Name = 
REMARK  2 active torsions:
REMARK  status: ('A' for Active; 'I' for Inactive)
REMARK    1  A    between atoms: C_2  and  C_16
REMARK    2  A    between atoms: N_6  and  C_7
REMARK                            x       y       z     vdW  Elec       q    Type
REMARK                         _______ _______ _______ _____ _____    ______ ____
ROOT
ATOM      1  O   UNL     1      10.512  16.413  19.151  0.00  0.00    +0.000 OA
ATOM      2  C   UNL     1       9.715  15.506  18.898  0.00  0.00    +0.000 C 
ATOM      3  N   UNL     1       8.388  15.794  18.608  0.00  0.00    +0.000 N 
ATOM      4  C   UNL     1       7.292  14.853  18.325  0.00  0.00    +0.000 C 
ATOM      5  C   UNL     1       6.167  15.000  19.355  0.00  0.00    +0.000 C 
ATOM      6  N   UNL     1       5.693  16.386  19.360  0.00  0.00    +0.000 N 
ATOM      7  C   UNL     1       6.743  17.393  19.618  0.00  0.00    +0.000 C 
ATOM      8  C   UNL     1       7.931  17.197  18.641  0.00  0.00    +0.000 C 
ENDROOT
BRANCH   2   9
ATOM      9  C   UNL     1      10.196  14.036  18.935  0.00  0.00    +0.000 C 
ATOM     10  C   UNL     1      11.741  13.944  18.707  0.00  0.00    +0.000 C 
ATOM     11  C   UNL     1      12.219  12.473  18.756  0.00  0.00    +0.000 C 
ATOM     12  C   UNL     1      11.884  11.871  20.129  0.00  0.00    +0.000 C 
ATOM     13  C   UNL     1      10.374  11.957  20.379  0.00  0.00    +0.000 C 
ATOM     14  C   UNL     1       9.617  11.189  19.282  0.00  0.00    +0.000 C 
ATOM     15  C   UNL     1       9.980  11.736  17.889  0.00  0.00    +0.000 C 
ATOM     16  C   UNL     1      11.495  11.655  17.674  0.00  0.00    +0.000 C 
ATOM     17  C   UNL     1       9.566  13.208  17.785  0.00  0.00    +0.000 C 
ATOM     18  C   UNL     1       9.953  13.429  20.341  0.00  0.00    +0.000 C 
ENDBRANCH   2   9
BRANCH   6  19
ATOM     19  C   UNL     1       4.386  16.704  19.066  0.00  0.00    +0.000 A 
ATOM     20  C   UNL     1       3.532  17.244  20.037  0.00  0.00    +0.000 A 
ATOM     21  C   UNL     1       2.192  17.529  19.756  0.00  0.00    +0.000 A 
ATOM     22  C   UNL     1       1.688  17.280  18.490  0.00  0.00    +0.000 A 
ATOM     23  F   UNL     1       0.404  17.545  18.226  0.00  0.00    +0.000 F 
ATOM     24  C   UNL     1       2.500  16.760  17.497  0.00  0.00    +0.000 A 
ATOM     25  C   UNL     1       3.838  16.481  17.788  0.00  0.00    +0.000 A 
ENDBRANCH   6  19
TORSDOF 2
ENDMDL
MODEL 7
REMARK VINA RESULT:      -6.7      8.411      9.258
REMARK  Name = 
REMARK  2 active torsions:
REMARK  status: ('A' for Active; 'I' for Inactive)
REMARK    1  A    between atoms: C_2  and  C_16
REMARK    2  A    between atoms: N_6  and  C_7
REMARK                            x       y       z     vdW  Elec       q    Type
REMARK                         _______ _______ _______ _____ _____    ______ ____
ROOT
ATOM      1  O   UNL     1       8.112  13.533  21.971  0.00  0.00    +0.000 OA
ATOM      2  C   UNL     1       8.174  13.936  20.806  0.00  0.00    +0.000 C 
ATOM      3  N   UNL     1       7.167  14.734  20.282  0.00  0.00    +0.000 N 
ATOM      4  C   UNL     1       7.048  15.271  18.916  0.00  0.00    +0.000 C 
ATOM      5  C   UNL     1       5.770  14.762  18.239  0.00  0.00    +0.000 C 
ATOM      6  N   UNL     1       4.611  15.124  19.058  0.00  0.00    +0.000 N 
ATOM      7  C   UNL     1       4.668  14.636  20.452  0.00  0.00    +0.000 C 
ATOM      8  C   UNL     1       5.999  15.066  21.120  0.00  0.00    +0.000 C 
ENDROOT
BRANCH   2   9
ATOM      9  C   UNL     1       9.372  13.522  19.920  0.00  0.00    +0.000 C 
ATOM     10  C   UNL     1      10.313  12.525  20.675  0.00  0.00    +0.000 C 
ATOM     11  C   UNL     1      11.504  12.106  19.781  0.00  0.00    +0.000 C 
ATOM     12  C   UNL     1      10.974  11.420  18.512  0.00  0.00    +0.000 C 
ATOM     13  C   UNL     1      10.042  12.375  17.757  0.00  0.00    +0.000 C 
ATOM     14  C   UNL     1      10.805  13.655  17.372  0.00  0.00    +0.000 C 
ATOM     15  C   UNL     1      11.395  14.331  18.622  0.00  0.00    +0.000 C 
ATOM     16  C   UNL     1      12.307  13.349  19.366  0.00  0.00    +0.000 C 
ATOM     17  C   UNL     1      10.266  14.741  19.574  0.00  0.00    +0.000 C 
ATOM     18  C   UNL     1       8.873  12.746  18.673  0.00  0.00    +0.000 C 
ENDBRANCH   2   9
BRANCH   6  19
ATOM     19  C   UNL     1       3.602  15.922  18.569  0.00  0.00    +0.000 A 
ATOM     20  C   UNL     1       3.613  16.383  17.246  0.00  0.00    +0.000 A 
ATOM     21  C   UNL     1       2.614  17.229  16.756  0.00  0.00    +0.000 A 
ATOM     22  C   UNL     1       1.580  17.623  17.589  0.00  0.00    +0.000 A 
ATOM     23  F   UNL     1       0.628  18.440  17.122  0.00  0.00    +0.000 F 
ATOM     24  C   UNL     1       1.522  17.181  18.900  0.00  0.00    +0.000 A 
ATOM     25  C   UNL     1       2.525  16.334  19.378  0.00  0.00    +0.000 A 
ENDBRANCH   6  19
TORSDOF 2
ENDMDL
MODEL 8
REMARK VINA RESULT:      -6.7      2.864      3.890
REMARK  Name = 
REMARK  2 active torsions:
REMARK  status: ('A' for Active; 'I' for Inactive)
REMARK    1  A    between atoms: C_2  and  C_16
REMARK    2  A    between atoms: N_6  and  C_7
REMARK                            x       y       z     vdW  Elec       q    Type
REMARK                         _______ _______ _______ _____ _____    ______ ____
ROOT
ATOM      1  O   UNL     1       2.627   9.068  17.039  0.00  0.00    +0.000 OA
ATOM      2  C   UNL     1       2.127   8.525  18.027  0.00  0.00    +0.000 C 
ATOM      3  N   UNL     1       1.253   9.223  18.849  0.00  0.00    +0.000 N 
ATOM      4  C   UNL     1       0.596   8.760  20.083  0.00  0.00    +0.000 C 
ATOM      5  C   UNL     1       1.000   9.632  21.276  0.00  0.00    +0.000 C 
ATOM      6  N   UNL     1       0.672  11.030  20.989  0.00  0.00    +0.000 N 
ATOM      7  C   UNL     1       1.281  11.561  19.751  0.00  0.00    +0.000 C 
ATOM      8  C   UNL     1       0.955  10.637  18.550  0.00  0.00    +0.000 C 
ENDROOT
BRANCH   2   9
ATOM      9  C   UNL     1       2.503   7.063  18.364  0.00  0.00    +0.000 C 
ATOM     10  C   UNL     1       1.480   6.060  17.735  0.00  0.00    +0.000 C 
ATOM     11  C   UNL     1       1.867   4.598  18.067  0.00  0.00    +0.000 C 
ATOM     12  C   UNL     1       3.264   4.298  17.504  0.00  0.00    +0.000 C 
ATOM     13  C   UNL     1       4.285   5.275  18.100  0.00  0.00    +0.000 C 
ATOM     14  C   UNL     1       4.306   5.139  19.632  0.00  0.00    +0.000 C 
ATOM     15  C   UNL     1       2.903   5.378  20.217  0.00  0.00    +0.000 C 
ATOM     16  C   UNL     1       1.901   4.401  19.591  0.00  0.00    +0.000 C 
ATOM     17  C   UNL     1       2.440   6.803  19.892  0.00  0.00    +0.000 C 
ATOM     18  C   UNL     1       3.872   6.702  17.731  0.00  0.00    +0.000 C 
ENDBRANCH   2   9
BRANCH   6  19
ATOM     19  C   UNL     1      -0.199  11.745  21.779  0.00  0.00    +0.000 A 
ATOM     20  C   UNL     1      -0.107  13.139  21.888  0.00  0.00    +0.000 A 
ATOM     21  C   UNL     1      -0.961  13.867  22.722  0.00  0.00    +0.000 A 
ATOM     22  C   UNL     1      -1.929  13.204  23.459  0.00  0.00    +0.000 A 
ATOM     23  F   UNL     1      -2.740  13.901  24.264  0.00  0.00    +0.000 F 
ATOM     24  C   UNL     1      -2.064  11.829  23.372  0.00  0.00    +0.000 A 
ATOM     25  C   UNL     1      -1.206  11.112  22.534  0.00  0.00    +0.000 A 
ENDBRANCH   6  19
TORSDOF 2
ENDMDL
MODEL 9
REMARK VINA RESULT:      -6.7      2.828      4.021
REMARK  Name = 
REMARK  2 active torsions:
REMARK  status: ('A' for Active; 'I' for Inactive)
REMARK    1  A    between atoms: C_2  and  C_16
REMARK    2  A    between atoms: N_6  and  C_7
REMARK                            x       y       z     vdW  Elec       q    Type
REMARK                         _______ _______ _______ _____ _____    ______ ____
ROOT
ATOM      1  O   UNL     1       2.700   8.936  17.055  0.00  0.00    +0.000 OA
ATOM      2  C   UNL     1       2.168   8.389  18.024  0.00  0.00    +0.000 C 
ATOM      3  N   UNL     1       1.298   9.097  18.843  0.00  0.00    +0.000 N 
ATOM      4  C   UNL     1       0.608   8.632  20.057  0.00  0.00    +0.000 C 
ATOM      5  C   UNL     1       1.014   9.472  21.273  0.00  0.00    +0.000 C 
ATOM      6  N   UNL     1       0.730  10.883  21.004  0.00  0.00    +0.000 N 
ATOM      7  C   UNL     1       1.374  11.418  19.787  0.00  0.00    +0.000 C 
ATOM      8  C   UNL     1       1.045  10.524  18.564  0.00  0.00    +0.000 C 
ENDROOT
BRANCH   2   9
ATOM      9  C   UNL     1       2.498   6.912  18.342  0.00  0.00    +0.000 C 
ATOM     10  C   UNL     1       3.873   6.497  17.722  0.00  0.00    +0.000 C 
ATOM     11  C   UNL     1       4.203   5.021  18.052  0.00  0.00    +0.000 C 
ATOM     12  C   UNL     1       4.274   4.841  19.576  0.00  0.00    +0.000 C 
ATOM     13  C   UNL     1       2.938   5.249  20.209  0.00  0.00    +0.000 C 
ATOM     14  C   UNL     1       1.802   4.383  19.639  0.00  0.00    +0.000 C 
ATOM     15  C   UNL     1       1.747   4.502  18.105  0.00  0.00    +0.000 C 
ATOM     16  C   UNL     1       3.099   4.104  17.502  0.00  0.00    +0.000 C 
ATOM     17  C   UNL     1       1.459   5.953  17.706  0.00  0.00    +0.000 C 
ATOM     18  C   UNL     1       2.664   6.718  19.872  0.00  0.00    +0.000 C 
ENDBRANCH   2   9
BRANCH   6  19
ATOM     19  C   UNL     1      -0.136  11.608  21.791  0.00  0.00    +0.000 A 
ATOM     20  C   UNL     1      -1.116  10.977  22.569  0.00  0.00    +0.000 A 
ATOM     21  C   UNL     1      -2.025  11.710  23.337  0.00  0.00    +0.000 A 
ATOM     22  C   UNL     1      -1.962  13.094  23.341  0.00  0.00    +0.000 A 
ATOM     23  F   UNL     1      -2.838  13.795  24.069  0.00  0.00    +0.000 F 
ATOM     24  C   UNL     1      -1.001  13.758  22.597  0.00  0.00    +0.000 A 
ATOM     25  C   UNL     1      -0.096  13.016  21.835  0.00  0.00    +0.000 A 
ENDBRANCH   6  19
TORSDOF 2
ENDMDL
