MODEL 1
REMARK VINA RESULT:      -7.0      0.000      0.000
REMARK  Name = 
REMARK  7 active torsions:
REMARK  status: ('A' for Active; 'I' for Inactive)
REMARK    1  A    between atoms: C_1  and  O_2
REMARK    2  A    between atoms: O_2  and  C_3
REMARK    3  A    between atoms: C_3  and  C_5
REMARK    4  A    between atoms: C_6  and  C_7
REMARK    5  A    between atoms: N_8  and  N_9
REMARK    6  A    between atoms: C_13  and  C_14
REMARK    7  A    between atoms: C_13  and  O_15
REMARK                            x       y       z     vdW  Elec       q    Type
REMARK                         _______ _______ _______ _____ _____    ______ ____
ROOT
ATOM      1  C   UNL     1       3.080   5.914  18.418  0.00  0.00    +0.000 C 
ATOM      2  C   UNL     1       4.207   5.917  17.673  0.00  0.00    +0.000 C 
ATOM      3  C   UNL     1       4.976   7.099  17.175  0.00  0.00    +0.000 C 
ATOM      4  N   UNL     1       4.615   4.593  17.400  0.00  0.00    +0.000 N 
ATOM      5  C   UNL     1       3.952   3.683  18.387  0.00  0.00    +0.000 C 
ATOM      6  C   UNL     1       4.870   3.471  19.601  0.00  0.00    +0.000 C 
ATOM      7  C   UNL     1       2.641   4.485  18.655  0.00  0.00    +0.000 C 
ATOM      8  C   UNL     1       1.488   4.099  17.725  0.00  0.00    +0.000 C 
ATOM      9  C   UNL     1       0.768   3.033  18.508  0.00  0.00    +0.000 C 
ATOM     10  O   UNL     1       0.974   3.356  19.885  0.00  0.00    +0.000 OA
ATOM     11  C   UNL     1       2.067   4.176  20.006  0.00  0.00    +0.000 C 
ATOM     12  O   UNL     1       2.478   4.585  21.082  0.00  0.00    +0.000 OA
ENDROOT
BRANCH   4  13
ATOM     13  N   UNL     1       5.901   4.290  16.885  0.00  0.00    +0.000 N 
ATOM     14  C   UNL     1       6.150   4.437  15.540  0.00  0.00    +0.000 C 
ATOM     15  N   UNL     1       7.471   4.394  15.218  0.00  0.00    +0.000 N 
ATOM     16  O   UNL     1       5.306   4.511  14.656  0.00  0.00    +0.000 OA
ATOM     17  H   UNL     1       6.668   4.523  17.503  0.00  0.00    +0.000 HD
ATOM     18  H   UNL     1       8.136   4.845  15.827  0.00  0.00    +0.000 HD
ATOM     19  H   UNL     1       7.643   4.533  14.230  0.00  0.00    +0.000 HD
ENDBRANCH   4  13
BRANCH   1  20
ATOM     20  C   UNL     1       2.340   7.083  18.927  0.00  0.00    +0.000 C 
ATOM     21  O   UNL     1       2.318   7.445  20.090  0.00  0.00    +0.000 OA
BRANCH  20  23
ATOM     22  C   UNL     1       1.895   9.136  17.881  0.00  0.00    +0.000 C 
ATOM     23  O   UNL     1       1.742   7.716  17.889  0.00  0.00    +0.000 OA
ENDBRANCH  20  23
ENDBRANCH   1  20
BRANCH   5  24
ATOM     24  O   UNL     1       3.636   2.415  17.843  0.00  0.00    +0.000 OA
ATOM     25  H   UNL     1       2.805   2.138  18.279  0.00  0.00    +0.000 HD
ENDBRANCH   5  24
TORSDOF 4
ENDMDL
MODEL 2
REMARK VINA RESULT:      -6.7      2.132      4.494
REMARK  Name = 
REMARK  7 active torsions:
REMARK  status: ('A' for Active; 'I' for Inactive)
REMARK    1  A    between atoms: C_1  and  O_2
REMARK    2  A    between atoms: O_2  and  C_3
REMARK    3  A    between atoms: C_3  and  C_5
REMARK    4  A    between atoms: C_6  and  C_7
REMARK    5  A    between atoms: N_8  and  N_9
REMARK    6  A    between atoms: C_13  and  C_14
REMARK    7  A    between atoms: C_13  and  O_15
REMARK                            x       y       z     vdW  Elec       q    Type
REMARK                         _______ _______ _______ _____ _____    ______ ____
ROOT
ATOM      1  C   UNL     1       3.837   6.032  17.845  0.00  0.00    +0.000 C 
ATOM      2  C   UNL     1       3.351   4.802  18.120  0.00  0.00    +0.000 C 
ATOM      3  C   UNL     1       1.970   4.438  18.564  0.00  0.00    +0.000 C 
ATOM      4  N   UNL     1       4.354   3.827  17.923  0.00  0.00    +0.000 N 
ATOM      5  C   UNL     1       5.424   4.419  17.059  0.00  0.00    +0.000 C 
ATOM      6  C   UNL     1       5.142   4.095  15.584  0.00  0.00    +0.000 C 
ATOM      7  C   UNL     1       5.297   5.920  17.464  0.00  0.00    +0.000 C 
ATOM      8  C   UNL     1       6.206   6.316  18.631  0.00  0.00    +0.000 C 
ATOM      9  C   UNL     1       7.449   6.807  17.936  0.00  0.00    +0.000 C 
ATOM     10  O   UNL     1       7.010   7.345  16.687  0.00  0.00    +0.000 OA
ATOM     11  C   UNL     1       5.777   6.832  16.374  0.00  0.00    +0.000 C 
ATOM     12  O   UNL     1       5.181   7.110  15.344  0.00  0.00    +0.000 OA
ENDROOT
BRANCH   4  13
ATOM     13  N   UNL     1       4.057   2.441  17.865  0.00  0.00    +0.000 N 
ATOM     14  C   UNL     1       4.178   1.669  18.997  0.00  0.00    +0.000 C 
ATOM     15  N   UNL     1       3.602   0.441  18.887  0.00  0.00    +0.000 N 
ATOM     16  O   UNL     1       4.807   1.962  20.005  0.00  0.00    +0.000 OA
ATOM     17  H   UNL     1       3.295   2.199  17.244  0.00  0.00    +0.000 HD
ATOM     18  H   UNL     1       2.720   0.357  18.405  0.00  0.00    +0.000 HD
ATOM     19  H   UNL     1       3.670  -0.106  19.735  0.00  0.00    +0.000 HD
ENDBRANCH   4  13
BRANCH   1  20
ATOM     20  C   UNL     1       3.114   7.316  17.910  0.00  0.00    +0.000 C 
ATOM     21  O   UNL     1       2.862   8.027  16.953  0.00  0.00    +0.000 OA
BRANCH  20  23
ATOM     22  C   UNL     1       1.716   8.538  19.344  0.00  0.00    +0.000 C 
ATOM     23  O   UNL     1       2.728   7.543  19.189  0.00  0.00    +0.000 OA
ENDBRANCH  20  23
ENDBRANCH   1  20
BRANCH   5  24
ATOM     24  O   UNL     1       6.717   3.943  17.379  0.00  0.00    +0.000 OA
ATOM     25  H   UNL     1       7.122   4.631  17.944  0.00  0.00    +0.000 HD
ENDBRANCH   5  24
TORSDOF 4
ENDMDL
MODEL 3
REMARK VINA RESULT:      -6.6      1.927      4.756
REMARK  Name = 
REMARK  7 active torsions:
REMARK  status: ('A' for Active; 'I' for Inactive)
REMARK    1  A    between atoms: C_1  and  O_2
REMARK    2  A    between atoms: O_2  and  C_3
REMARK    3  A    between atoms: C_3  and  C_5
REMARK    4  A    between atoms: C_6  and  C_7
REMARK    5  A    between atoms: N_8  and  N_9
REMARK    6  A    between atoms: C_13  and  C_14
REMARK    7  A    between atoms: C_13  and  O_15
REMARK                            x       y       z     vdW  Elec       q    Type
REMARK                         _______ _______ _______ _____ _____    ______ ____
ROOT
ATOM      1  C   UNL     1       4.725   4.809  17.366  0.00  0.00    +0.000 C 
ATOM      2  C   UNL     1       4.224   6.063  17.302  0.00  0.00    +0.000 C 
ATOM      3  C   UNL     1       4.691   7.195  16.445  0.00  0.00    +0.000 C 
ATOM      4  N   UNL     1       3.133   6.197  18.188  0.00  0.00    +0.000 N 
ATOM      5  C   UNL     1       2.630   4.829  18.528  0.00  0.00    +0.000 C 
ATOM      6  C   UNL     1       1.502   4.433  17.563  0.00  0.00    +0.000 C 
ATOM      7  C   UNL     1       3.954   4.015  18.399  0.00  0.00    +0.000 C 
ATOM      8  C   UNL     1       4.736   3.909  19.711  0.00  0.00    +0.000 C 
ATOM      9  C   UNL     1       4.226   2.620  20.301  0.00  0.00    +0.000 C 
ATOM     10  O   UNL     1       3.880   1.793  19.189  0.00  0.00    +0.000 OA
ATOM     11  C   UNL     1       3.692   2.574  18.077  0.00  0.00    +0.000 C 
ATOM     12  O   UNL     1       3.364   2.120  16.991  0.00  0.00    +0.000 OA
ENDROOT
BRANCH   4  13
ATOM     13  N   UNL     1       2.246   7.303  18.130  0.00  0.00    +0.000 N 
ATOM     14  C   UNL     1       1.960   8.010  19.275  0.00  0.00    +0.000 C 
ATOM     15  N   UNL     1       1.337   9.197  19.045  0.00  0.00    +0.000 N 
ATOM     16  O   UNL     1       2.139   7.624  20.423  0.00  0.00    +0.000 OA
ATOM     17  H   UNL     1       2.306   7.847  17.279  0.00  0.00    +0.000 HD
ATOM     18  H   UNL     1       1.629   9.758  18.259  0.00  0.00    +0.000 HD
ATOM     19  H   UNL     1       1.159   9.723  19.892  0.00  0.00    +0.000 HD
ENDBRANCH   4  13
BRANCH   1  20
ATOM     20  C   UNL     1       5.852   4.254  16.595  0.00  0.00    +0.000 C 
ATOM     21  O   UNL     1       6.985   4.105  17.018  0.00  0.00    +0.000 OA
BRANCH  20  23
ATOM     22  C   UNL     1       6.335   4.113  14.303  0.00  0.00    +0.000 C 
ATOM     23  O   UNL     1       5.410   3.887  15.367  0.00  0.00    +0.000 OA
ENDBRANCH  20  23
ENDBRANCH   1  20
BRANCH   5  24
ATOM     24  O   UNL     1       2.136   4.735  19.851  0.00  0.00    +0.000 OA
ATOM     25  H   UNL     1       2.748   5.263  20.402  0.00  0.00    +0.000 HD
ENDBRANCH   5  24
TORSDOF 4
ENDMDL
MODEL 4
REMARK VINA RESULT:      -6.5      2.220      4.716
REMARK  Name = 
REMARK  7 active torsions:
REMARK  status: ('A' for Active; 'I' for Inactive)
REMARK    1  A    between atoms: C_1  and  O_2
REMARK    2  A    between atoms: O_2  and  C_3
REMARK    3  A    between atoms: C_3  and  C_5
REMARK    4  A    between atoms: C_6  and  C_7
REMARK    5  A    between atoms: N_8  and  N_9
REMARK    6  A    between atoms: C_13  and  C_14
REMARK    7  A    between atoms: C_13  and  O_15
REMARK                            x       y       z     vdW  Elec       q    Type
REMARK                         _______ _______ _______ _____ _____    ______ ____
ROOT
ATOM      1  C   UNL     1       4.419   4.726  17.780  0.00  0.00    +0.000 C 
ATOM      2  C   UNL     1       4.049   6.016  17.630  0.00  0.00    +0.000 C 
ATOM      3  C   UNL     1       4.735   7.082  16.836  0.00  0.00    +0.000 C 
ATOM      4  N   UNL     1       2.858   6.268  18.345  0.00  0.00    +0.000 N 
ATOM      5  C   UNL     1       2.189   4.958  18.623  0.00  0.00    +0.000 C 
ATOM      6  C   UNL     1       1.181   4.639  17.509  0.00  0.00    +0.000 C 
ATOM      7  C   UNL     1       3.439   4.028  18.698  0.00  0.00    +0.000 C 
ATOM      8  C   UNL     1       4.011   3.886  20.112  0.00  0.00    +0.000 C 
ATOM      9  C   UNL     1       3.307   2.662  20.636  0.00  0.00    +0.000 C 
ATOM     10  O   UNL     1       3.051   1.841  19.495  0.00  0.00    +0.000 OA
ATOM     11  C   UNL     1       3.097   2.608  18.358  0.00  0.00    +0.000 C 
ATOM     12  O   UNL     1       2.890   2.157  17.241  0.00  0.00    +0.000 OA
ENDROOT
BRANCH   4  13
ATOM     13  N   UNL     1       2.093   7.446  18.145  0.00  0.00    +0.000 N 
ATOM     14  C   UNL     1       1.807   8.264  19.213  0.00  0.00    +0.000 C 
ATOM     15  N   UNL     1       1.323   9.484  18.856  0.00  0.00    +0.000 N 
ATOM     16  O   UNL     1       1.872   7.953  20.396  0.00  0.00    +0.000 OA
ATOM     17  H   UNL     1       2.262   7.914  17.264  0.00  0.00    +0.000 HD
ATOM     18  H   UNL     1       1.720   9.951  18.055  0.00  0.00    +0.000 HD
ATOM     19  H   UNL     1       1.145  10.088  19.649  0.00  0.00    +0.000 HD
ENDBRANCH   4  13
BRANCH   1  20
ATOM     20  C   UNL     1       5.591   4.055  17.188  0.00  0.00    +0.000 C 
ATOM     21  O   UNL     1       5.650   3.624  16.050  0.00  0.00    +0.000 OA
BRANCH  20  23
ATOM     22  C   UNL     1       7.674   4.946  17.798  0.00  0.00    +0.000 C 
ATOM     23  O   UNL     1       6.602   4.050  18.091  0.00  0.00    +0.000 OA
ENDBRANCH  20  23
ENDBRANCH   1  20
BRANCH   5  24
ATOM     24  O   UNL     1       1.503   4.941  19.861  0.00  0.00    +0.000 OA
ATOM     25  H   UNL     1       2.102   4.492  20.492  0.00  0.00    +0.000 HD
ENDBRANCH   5  24
TORSDOF 4
ENDMDL
MODEL 5
REMARK VINA RESULT:      -6.4      2.220      5.193
REMARK  Name = 
REMARK  7 active torsions:
REMARK  status: ('A' for Active; 'I' for Inactive)
REMARK    1  A    between atoms: C_1  and  O_2
REMARK    2  A    between atoms: O_2  and  C_3
REMARK    3  A    between atoms: C_3  and  C_5
REMARK    4  A    between atoms: C_6  and  C_7
REMARK    5  A    between atoms: N_8  and  N_9
REMARK    6  A    between atoms: C_13  and  C_14
REMARK    7  A    between atoms: C_13  and  O_15
REMARK                            x       y       z     vdW  Elec       q    Type
REMARK                         _______ _______ _______ _____ _____    ______ ____
ROOT
ATOM      1  C   UNL     1       4.582   4.693  18.067  0.00  0.00    +0.000 C 
ATOM      2  C   UNL     1       3.843   5.764  18.431  0.00  0.00    +0.000 C 
ATOM      3  C   UNL     1       2.946   5.898  19.620  0.00  0.00    +0.000 C 
ATOM      4  N   UNL     1       4.025   6.818  17.510  0.00  0.00    +0.000 N 
ATOM      5  C   UNL     1       5.286   6.562  16.744  0.00  0.00    +0.000 C 
ATOM      6  C   UNL     1       6.467   7.264  17.431  0.00  0.00    +0.000 C 
ATOM      7  C   UNL     1       5.308   5.002  16.775  0.00  0.00    +0.000 C 
ATOM      8  C   UNL     1       4.605   4.358  15.577  0.00  0.00    +0.000 C 
ATOM      9  C   UNL     1       5.730   4.163  14.594  0.00  0.00    +0.000 C 
ATOM     10  O   UNL     1       6.905   3.966  15.382  0.00  0.00    +0.000 OA
ATOM     11  C   UNL     1       6.701   4.464  16.644  0.00  0.00    +0.000 C 
ATOM     12  O   UNL     1       7.558   4.444  17.515  0.00  0.00    +0.000 OA
ENDROOT
BRANCH   4  13
ATOM     13  N   UNL     1       3.601   8.143  17.787  0.00  0.00    +0.000 N 
ATOM     14  C   UNL     1       2.257   8.440  17.805  0.00  0.00    +0.000 C 
ATOM     15  N   UNL     1       1.971   9.651  18.353  0.00  0.00    +0.000 N 
ATOM     16  O   UNL     1       1.365   7.765  17.309  0.00  0.00    +0.000 OA
ATOM     17  H   UNL     1       4.171   8.636  18.463  0.00  0.00    +0.000 HD
ATOM     18  H   UNL     1       2.485   9.953  19.167  0.00  0.00    +0.000 HD
ATOM     19  H   UNL     1       0.978   9.846  18.389  0.00  0.00    +0.000 HD
ENDBRANCH   4  13
BRANCH   1  20
ATOM     20  C   UNL     1       4.686   3.397  18.763  0.00  0.00    +0.000 C 
ATOM     21  O   UNL     1       5.356   3.190  19.760  0.00  0.00    +0.000 OA
BRANCH  20  23
ATOM     22  C   UNL     1       2.705   2.146  18.888  0.00  0.00    +0.000 C 
ATOM     23  O   UNL     1       3.877   2.499  18.151  0.00  0.00    +0.000 OA
ENDBRANCH  20  23
ENDBRANCH   1  20
BRANCH   5  24
ATOM     24  O   UNL     1       5.218   7.014  15.405  0.00  0.00    +0.000 OA
ATOM     25  H   UNL     1       4.690   7.837  15.427  0.00  0.00    +0.000 HD
ENDBRANCH   5  24
TORSDOF 4
ENDMDL
MODEL 6
REMARK VINA RESULT:      -6.2      1.285      1.291
REMARK  Name = 
REMARK  7 active torsions:
REMARK  status: ('A' for Active; 'I' for Inactive)
REMARK    1  A    between atoms: C_1  and  O_2
REMARK    2  A    between atoms: O_2  and  C_3
REMARK    3  A    between atoms: C_3  and  C_5
REMARK    4  A    between atoms: C_6  and  C_7
REMARK    5  A    between atoms: N_8  and  N_9
REMARK    6  A    between atoms: C_13  and  C_14
REMARK    7  A    between atoms: C_13  and  O_15
REMARK                            x       y       z     vdW  Elec       q    Type
REMARK                         _______ _______ _______ _____ _____    ______ ____
ROOT
ATOM      1  C   UNL     1       3.058   5.990  18.477  0.00  0.00    +0.000 C 
ATOM      2  C   UNL     1       4.226   5.976  17.798  0.00  0.00    +0.000 C 
ATOM      3  C   UNL     1       5.016   7.147  17.307  0.00  0.00    +0.000 C 
ATOM      4  N   UNL     1       4.655   4.647  17.594  0.00  0.00    +0.000 N 
ATOM      5  C   UNL     1       3.941   3.765  18.571  0.00  0.00    +0.000 C 
ATOM      6  C   UNL     1       4.788   3.600  19.842  0.00  0.00    +0.000 C 
ATOM      7  C   UNL     1       2.613   4.567  18.736  0.00  0.00    +0.000 C 
ATOM      8  C   UNL     1       1.518   4.142  17.754  0.00  0.00    +0.000 C 
ATOM      9  C   UNL     1       0.759   3.097  18.529  0.00  0.00    +0.000 C 
ATOM     10  O   UNL     1       0.883   3.467  19.904  0.00  0.00    +0.000 OA
ATOM     11  C   UNL     1       1.963   4.299  20.060  0.00  0.00    +0.000 C 
ATOM     12  O   UNL     1       2.309   4.745  21.144  0.00  0.00    +0.000 OA
ENDROOT
BRANCH   4  13
ATOM     13  N   UNL     1       5.971   4.337  17.164  0.00  0.00    +0.000 N 
ATOM     14  C   UNL     1       7.046   4.690  17.947  0.00  0.00    +0.000 C 
ATOM     15  N   UNL     1       8.213   4.098  17.577  0.00  0.00    +0.000 N 
ATOM     16  O   UNL     1       7.040   5.521  18.846  0.00  0.00    +0.000 OA
ATOM     17  H   UNL     1       6.057   3.459  16.668  0.00  0.00    +0.000 HD
ATOM     18  H   UNL     1       8.198   3.133  17.282  0.00  0.00    +0.000 HD
ATOM     19  H   UNL     1       8.990   4.341  18.178  0.00  0.00    +0.000 HD
ENDBRANCH   4  13
BRANCH   1  20
ATOM     20  C   UNL     1       2.283   7.170  18.904  0.00  0.00    +0.000 C 
ATOM     21  O   UNL     1       2.187   7.567  20.051  0.00  0.00    +0.000 OA
BRANCH  20  23
ATOM     22  C   UNL     1       1.846   9.193  17.798  0.00  0.00    +0.000 C 
ATOM     23  O   UNL     1       1.749   7.768  17.811  0.00  0.00    +0.000 OA
ENDBRANCH  20  23
ENDBRANCH   1  20
BRANCH   5  24
ATOM     24  O   UNL     1       3.664   2.478  18.052  0.00  0.00    +0.000 OA
ATOM     25  H   UNL     1       3.381   1.937  18.817  0.00  0.00    +0.000 HD
ENDBRANCH   5  24
TORSDOF 4
ENDMDL
MODEL 7
REMARK VINA RESULT:      -6.2      2.486      5.026
REMARK  Name = 
REMARK  7 active torsions:
REMARK  status: ('A' for Active; 'I' for Inactive)
REMARK    1  A    between atoms: C_1  and  O_2
REMARK    2  A    between atoms: O_2  and  C_3
REMARK    3  A    between atoms: C_3  and  C_5
REMARK    4  A    between atoms: C_6  and  C_7
REMARK    5  A    between atoms: N_8  and  N_9
REMARK    6  A    between atoms: C_13  and  C_14
REMARK    7  A    between atoms: C_13  and  O_15
REMARK                            x       y       z     vdW  Elec       q    Type
REMARK                         _______ _______ _______ _____ _____    ______ ____
ROOT
ATOM      1  C   UNL     1       4.843   5.998  17.542  0.00  0.00    +0.000 C 
ATOM      2  C   UNL     1       3.580   5.774  17.967  0.00  0.00    +0.000 C 
ATOM      3  C   UNL     1       2.357   6.583  17.677  0.00  0.00    +0.000 C 
ATOM      4  N   UNL     1       3.534   4.610  18.765  0.00  0.00    +0.000 N 
ATOM      5  C   UNL     1       4.760   3.797  18.485  0.00  0.00    +0.000 C 
ATOM      6  C   UNL     1       4.466   2.773  17.378  0.00  0.00    +0.000 C 
ATOM      7  C   UNL     1       5.759   4.936  18.112  0.00  0.00    +0.000 C 
ATOM      8  C   UNL     1       6.548   5.471  19.310  0.00  0.00    +0.000 C 
ATOM      9  C   UNL     1       7.798   4.631  19.290  0.00  0.00    +0.000 C 
ATOM     10  O   UNL     1       8.022   4.299  17.918  0.00  0.00    +0.000 OA
ATOM     11  C   UNL     1       6.854   4.443  17.214  0.00  0.00    +0.000 C 
ATOM     12  O   UNL     1       6.761   4.201  16.020  0.00  0.00    +0.000 OA
ENDROOT
BRANCH   4  13
ATOM     13  N   UNL     1       2.311   3.981  19.112  0.00  0.00    +0.000 N 
ATOM     14  C   UNL     1       1.960   3.853  20.436  0.00  0.00    +0.000 C 
ATOM     15  N   UNL     1       0.661   3.501  20.628  0.00  0.00    +0.000 N 
ATOM     16  O   UNL     1       2.718   3.945  21.393  0.00  0.00    +0.000 OA
ATOM     17  H   UNL     1       1.549   4.157  18.469  0.00  0.00    +0.000 HD
ATOM     18  H   UNL     1      -0.048   3.907  20.036  0.00  0.00    +0.000 HD
ATOM     19  H   UNL     1       0.406   3.440  21.606  0.00  0.00    +0.000 HD
ENDBRANCH   4  13
BRANCH   1  20
ATOM     20  C   UNL     1       5.316   7.095  16.679  0.00  0.00    +0.000 C 
ATOM     21  O   UNL     1       5.124   7.175  15.478  0.00  0.00    +0.000 OA
BRANCH  20  23
ATOM     22  C   UNL     1       7.364   8.061  17.296  0.00  0.00    +0.000 C 
ATOM     23  O   UNL     1       5.944   8.021  17.444  0.00  0.00    +0.000 OA
ENDBRANCH  20  23
ENDBRANCH   1  20
BRANCH   5  24
ATOM     24  O   UNL     1       5.231   3.099  19.622  0.00  0.00    +0.000 OA
ATOM     25  H   UNL     1       5.245   3.753  20.350  0.00  0.00    +0.000 HD
ENDBRANCH   5  24
TORSDOF 4
ENDMDL
MODEL 8
REMARK VINA RESULT:      -6.1      2.386      4.636
REMARK  Name = 
REMARK  7 active torsions:
REMARK  status: ('A' for Active; 'I' for Inactive)
REMARK    1  A    between atoms: C_1  and  O_2
REMARK    2  A    between atoms: O_2  and  C_3
REMARK    3  A    between atoms: C_3  and  C_5
REMARK    4  A    between atoms: C_6  and  C_7
REMARK    5  A    between atoms: N_8  and  N_9
REMARK    6  A    between atoms: C_13  and  C_14
REMARK    7  A    between atoms: C_13  and  O_15
REMARK                            x       y       z     vdW  Elec       q    Type
REMARK                         _______ _______ _______ _____ _____    ______ ____
ROOT
ATOM      1  C   UNL     1       3.697   5.957  18.409  0.00  0.00    +0.000 C 
ATOM      2  C   UNL     1       2.785   5.516  19.303  0.00  0.00    +0.000 C 
ATOM      3  C   UNL     1       1.611   6.257  19.858  0.00  0.00    +0.000 C 
ATOM      4  N   UNL     1       3.075   4.186  19.679  0.00  0.00    +0.000 N 
ATOM      5  C   UNL     1       3.977   3.589  18.644  0.00  0.00    +0.000 C 
ATOM      6  C   UNL     1       3.142   2.863  17.579  0.00  0.00    +0.000 C 
ATOM      7  C   UNL     1       4.725   4.872  18.166  0.00  0.00    +0.000 C 
ATOM      8  C   UNL     1       6.016   5.150  18.941  0.00  0.00    +0.000 C 
ATOM      9  C   UNL     1       7.063   4.461  18.105  0.00  0.00    +0.000 C 
ATOM     10  O   UNL     1       6.585   4.518  16.759  0.00  0.00    +0.000 OA
ATOM     11  C   UNL     1       5.230   4.730  16.761  0.00  0.00    +0.000 C 
ATOM     12  O   UNL     1       4.564   4.797  15.739  0.00  0.00    +0.000 OA
ENDROOT
BRANCH   4  13
ATOM     13  N   UNL     1       2.141   3.380  20.379  0.00  0.00    +0.000 N 
ATOM     14  C   UNL     1       2.557   2.632  21.456  0.00  0.00    +0.000 C 
ATOM     15  N   UNL     1       1.538   2.135  22.206  0.00  0.00    +0.000 N 
ATOM     16  O   UNL     1       3.714   2.328  21.718  0.00  0.00    +0.000 OA
ATOM     17  H   UNL     1       1.212   3.775  20.449  0.00  0.00    +0.000 HD
ATOM     18  H   UNL     1       0.729   2.714  22.376  0.00  0.00    +0.000 HD
ATOM     19  H   UNL     1       1.856   1.612  23.013  0.00  0.00    +0.000 HD
ENDBRANCH   4  13
BRANCH   1  20
ATOM     20  C   UNL     1       3.747   7.279  17.757  0.00  0.00    +0.000 C 
ATOM     21  O   UNL     1       4.767   7.865  17.440  0.00  0.00    +0.000 OA
BRANCH  20  23
ATOM     22  C   UNL     1       2.261   9.095  17.751  0.00  0.00    +0.000 C 
ATOM     23  O   UNL     1       2.482   7.703  17.520  0.00  0.00    +0.000 OA
ENDBRANCH  20  23
ENDBRANCH   1  20
BRANCH   5  24
ATOM     24  O   UNL     1       4.904   2.667  19.186  0.00  0.00    +0.000 OA
ATOM     25  H   UNL     1       4.739   2.658  20.150  0.00  0.00    +0.000 HD
ENDBRANCH   5  24
TORSDOF 4
ENDMDL
MODEL 9
REMARK VINA RESULT:      -6.0      7.793      9.521
REMARK  Name = 
REMARK  7 active torsions:
REMARK  status: ('A' for Active; 'I' for Inactive)
REMARK    1  A    between atoms: C_1  and  O_2
REMARK    2  A    between atoms: O_2  and  C_3
REMARK    3  A    between atoms: C_3  and  C_5
REMARK    4  A    between atoms: C_6  and  C_7
REMARK    5  A    between atoms: N_8  and  N_9
REMARK    6  A    between atoms: C_13  and  C_14
REMARK    7  A    between atoms: C_13  and  O_15
REMARK                            x       y       z     vdW  Elec       q    Type
REMARK                         _______ _______ _______ _____ _____    ______ ____
ROOT
ATOM      1  C   UNL     1      -2.212  12.287  20.697  0.00  0.00    +0.000 C 
ATOM      2  C   UNL     1      -2.963  12.191  19.578  0.00  0.00    +0.000 C 
ATOM      3  C   UNL     1      -4.427  12.457  19.430  0.00  0.00    +0.000 C 
ATOM      4  N   UNL     1      -2.162  11.793  18.486  0.00  0.00    +0.000 N 
ATOM      5  C   UNL     1      -0.730  12.063  18.829  0.00  0.00    +0.000 C 
ATOM      6  C   UNL     1      -0.324  13.455  18.322  0.00  0.00    +0.000 C 
ATOM      7  C   UNL     1      -0.786  11.890  20.378  0.00  0.00    +0.000 C 
ATOM      8  C   UNL     1      -0.492  10.462  20.845  0.00  0.00    +0.000 C 
ATOM      9  C   UNL     1       0.993  10.491  21.095  0.00  0.00    +0.000 C 
ATOM     10  O   UNL     1       1.296  11.832  21.486  0.00  0.00    +0.000 OA
ATOM     11  C   UNL     1       0.295  12.670  21.064  0.00  0.00    +0.000 C 
ATOM     12  O   UNL     1       0.316  13.878  21.249  0.00  0.00    +0.000 OA
ENDROOT
BRANCH   4  13
ATOM     13  N   UNL     1      -2.616  11.883  17.145  0.00  0.00    +0.000 N 
ATOM     14  C   UNL     1      -2.633  10.757  16.353  0.00  0.00    +0.000 C 
ATOM     15  N   UNL     1      -3.343  10.906  15.203  0.00  0.00    +0.000 N 
ATOM     16  O   UNL     1      -2.014   9.722  16.562  0.00  0.00    +0.000 OA
ATOM     17  H   UNL     1      -3.376  12.535  17.000  0.00  0.00    +0.000 HD
ATOM     18  H   UNL     1      -4.209  11.424  15.228  0.00  0.00    +0.000 HD
ATOM     19  H   UNL     1      -3.375  10.063  14.644  0.00  0.00    +0.000 HD
ENDBRANCH   4  13
BRANCH   1  20
ATOM     20  C   UNL     1      -2.659  12.686  22.045  0.00  0.00    +0.000 C 
ATOM     21  O   UNL     1      -2.754  11.937  23.001  0.00  0.00    +0.000 OA
BRANCH  20  23
ATOM     22  C   UNL     1      -4.107  14.417  22.687  0.00  0.00    +0.000 C 
ATOM     23  O   UNL     1      -2.887  14.022  22.058  0.00  0.00    +0.000 OA
ENDBRANCH  20  23
ENDBRANCH   1  20
BRANCH   5  24
ATOM     24  O   UNL     1       0.159  11.112  18.273  0.00  0.00    +0.000 OA
ATOM     25  H   UNL     1       0.007  11.137  17.307  0.00  0.00    +0.000 HD
ENDBRANCH   5  24
TORSDOF 4
ENDMDL
