MODEL 1
REMARK VINA RESULT:      -8.1      0.000      0.000
REMARK  Name = 
REMARK  8 active torsions:
REMARK  status: ('A' for Active; 'I' for Inactive)
REMARK    1  A    between atoms: C_1  and  C_2
REMARK    2  A    between atoms: C_5  and  C_6
REMARK    3  A    between atoms: C_6  and  O_7
REMARK    4  A    between atoms: O_7  and  C_8
REMARK    5  A    between atoms: C_11  and  C_12
REMARK    6  A    between atoms: N_14  and  C_15
REMARK    7  A    between atoms: C_15  and  C_16
REMARK    8  A    between atoms: C_16  and  C_17
REMARK                            x       y       z     vdW  Elec       q    Type
REMARK                         _______ _______ _______ _____ _____    ______ ____
ROOT
ATOM      1  C   UNL     1       7.561   7.841  17.778  0.00  0.00    +0.000 A 
ATOM      2  C   UNL     1       6.324   7.683  17.149  0.00  0.00    +0.000 A 
ATOM      3  C   UNL     1       5.506   6.585  17.448  0.00  0.00    +0.000 A 
ATOM      4  C   UNL     1       5.929   5.614  18.360  0.00  0.00    +0.000 A 
ATOM      5  C   UNL     1       7.196   5.746  18.950  0.00  0.00    +0.000 A 
ATOM      6  C   UNL     1       8.010   6.850  18.653  0.00  0.00    +0.000 A 
ENDROOT
BRANCH   4   7
ATOM      7  C   UNL     1       5.039   4.483  18.692  0.00  0.00    +0.000 A 
ATOM      8  N   UNL     1       3.813   4.266  18.315  0.00  0.00    +0.000 NA
ATOM      9  N   UNL     1       3.507   3.086  18.953  0.00  0.00    +0.000 N 
ATOM     10  C   UNL     1       4.596   2.625  19.661  0.00  0.00    +0.000 A 
ATOM     11  O   UNL     1       4.687   1.590  20.302  0.00  0.00    +0.000 OA
ATOM     12  O   UNL     1       5.579   3.544  19.506  0.00  0.00    +0.000 OA
BRANCH   9  13
ATOM     13  C   UNL     1       2.282   2.341  18.706  0.00  0.00    +0.000 C 
BRANCH  13  14
ATOM     14  C   UNL     1       1.082   2.848  19.520  0.00  0.00    +0.000 C 
BRANCH  14  15
ATOM     15  C   UNL     1       1.347   2.731  20.957  0.00  0.00    +0.000 C 
ATOM     16  N   UNL     1       1.555   2.641  22.099  0.00  0.00    +0.000 NA
ENDBRANCH  14  15
ENDBRANCH  13  14
ENDBRANCH   9  13
ENDBRANCH   4   7
BRANCH   1  17
ATOM     17  O   UNL     1       8.390   8.920  17.603  0.00  0.00    +0.000 OA
BRANCH  17  18
ATOM     18  C   UNL     1       8.961   9.447  18.811  0.00  0.00    +0.000 C 
BRANCH  18  23
ATOM     19  C   UNL     1      10.947  14.895  18.139  0.00  0.00    +0.000 C 
ATOM     20  C   UNL     1      10.422  13.500  18.312  0.00  0.00    +0.000 A 
ATOM     21  C   UNL     1       9.268  13.077  17.643  0.00  0.00    +0.000 A 
ATOM     22  C   UNL     1       8.789  11.774  17.803  0.00  0.00    +0.000 A 
ATOM     23  C   UNL     1       9.464  10.861  18.621  0.00  0.00    +0.000 A 
ATOM     24  C   UNL     1      10.604  11.298  19.315  0.00  0.00    +0.000 A 
ATOM     25  C   UNL     1      11.083  12.602  19.155  0.00  0.00    +0.000 A 
ENDBRANCH  18  23
ENDBRANCH  17  18
ENDBRANCH   1  17
TORSDOF 7
ENDMDL
MODEL 2
REMARK VINA RESULT:      -7.7      0.657      1.244
REMARK  Name = 
REMARK  8 active torsions:
REMARK  status: ('A' for Active; 'I' for Inactive)
REMARK    1  A    between atoms: C_1  and  C_2
REMARK    2  A    between atoms: C_5  and  C_6
REMARK    3  A    between atoms: C_6  and  O_7
REMARK    4  A    between atoms: O_7  and  C_8
REMARK    5  A    between atoms: C_11  and  C_12
REMARK    6  A    between atoms: N_14  and  C_15
REMARK    7  A    between atoms: C_15  and  C_16
REMARK    8  A    between atoms: C_16  and  C_17
REMARK                            x       y       z     vdW  Elec       q    Type
REMARK                         _______ _______ _______ _____ _____    ______ ____
ROOT
ATOM      1  C   UNL     1       7.769   7.668  17.950  0.00  0.00    +0.000 A 
ATOM      2  C   UNL     1       8.058   6.663  18.876  0.00  0.00    +0.000 A 
ATOM      3  C   UNL     1       7.166   5.601  19.078  0.00  0.00    +0.000 A 
ATOM      4  C   UNL     1       5.959   5.545  18.374  0.00  0.00    +0.000 A 
ATOM      5  C   UNL     1       5.647   6.584  17.484  0.00  0.00    +0.000 A 
ATOM      6  C   UNL     1       6.544   7.643  17.281  0.00  0.00    +0.000 A 
ENDROOT
BRANCH   4   7
ATOM      7  C   UNL     1       5.050   4.398  18.571  0.00  0.00    +0.000 A 
ATOM      8  N   UNL     1       3.906   4.151  18.002  0.00  0.00    +0.000 NA
ATOM      9  N   UNL     1       3.524   2.970  18.597  0.00  0.00    +0.000 N 
ATOM     10  C   UNL     1       4.492   2.540  19.478  0.00  0.00    +0.000 A 
ATOM     11  O   UNL     1       4.498   1.514  20.140  0.00  0.00    +0.000 OA
ATOM     12  O   UNL     1       5.468   3.479  19.475  0.00  0.00    +0.000 OA
BRANCH   9  13
ATOM     13  C   UNL     1       2.371   2.197  18.164  0.00  0.00    +0.000 C 
BRANCH  13  14
ATOM     14  C   UNL     1       1.045   2.680  18.770  0.00  0.00    +0.000 C 
BRANCH  14  15
ATOM     15  C   UNL     1       1.163   2.816  20.226  0.00  0.00    +0.000 C 
ATOM     16  N   UNL     1       1.260   2.922  21.381  0.00  0.00    +0.000 NA
ENDBRANCH  14  15
ENDBRANCH  13  14
ENDBRANCH   9  13
ENDBRANCH   4   7
BRANCH   1  17
ATOM     17  O   UNL     1       8.615   8.701  17.635  0.00  0.00    +0.000 OA
BRANCH  17  18
ATOM     18  C   UNL     1       8.052  10.013  17.790  0.00  0.00    +0.000 C 
BRANCH  18  23
ATOM     19  C   UNL     1      12.045  13.828  19.680  0.00  0.00    +0.000 C 
ATOM     20  C   UNL     1      11.009  12.860  19.192  0.00  0.00    +0.000 A 
ATOM     21  C   UNL     1      10.184  13.174  18.106  0.00  0.00    +0.000 A 
ATOM     22  C   UNL     1       9.226  12.263  17.652  0.00  0.00    +0.000 A 
ATOM     23  C   UNL     1       9.085  11.012  18.263  0.00  0.00    +0.000 A 
ATOM     24  C   UNL     1       9.893  10.713  19.372  0.00  0.00    +0.000 A 
ATOM     25  C   UNL     1      10.851  11.624  19.826  0.00  0.00    +0.000 A 
ENDBRANCH  18  23
ENDBRANCH  17  18
ENDBRANCH   1  17
TORSDOF 7
ENDMDL
MODEL 3
REMARK VINA RESULT:      -7.6      6.262      8.870
REMARK  Name = 
REMARK  8 active torsions:
REMARK  status: ('A' for Active; 'I' for Inactive)
REMARK    1  A    between atoms: C_1  and  C_2
REMARK    2  A    between atoms: C_5  and  C_6
REMARK    3  A    between atoms: C_6  and  O_7
REMARK    4  A    between atoms: O_7  and  C_8
REMARK    5  A    between atoms: C_11  and  C_12
REMARK    6  A    between atoms: N_14  and  C_15
REMARK    7  A    between atoms: C_15  and  C_16
REMARK    8  A    between atoms: C_16  and  C_17
REMARK                            x       y       z     vdW  Elec       q    Type
REMARK                         _______ _______ _______ _____ _____    ______ ____
ROOT
ATOM      1  C   UNL     1       0.945   9.361  19.772  0.00  0.00    +0.000 A 
ATOM      2  C   UNL     1       1.213   8.306  20.648  0.00  0.00    +0.000 A 
ATOM      3  C   UNL     1       2.016   7.230  20.246  0.00  0.00    +0.000 A 
ATOM      4  C   UNL     1       2.538   7.181  18.949  0.00  0.00    +0.000 A 
ATOM      5  C   UNL     1       2.223   8.215  18.054  0.00  0.00    +0.000 A 
ATOM      6  C   UNL     1       1.423   9.294  18.462  0.00  0.00    +0.000 A 
ENDROOT
BRANCH   4   7
ATOM      7  C   UNL     1       3.413   6.059  18.554  0.00  0.00    +0.000 A 
ATOM      8  N   UNL     1       3.844   5.732  17.372  0.00  0.00    +0.000 NA
ATOM      9  N   UNL     1       4.587   4.602  17.625  0.00  0.00    +0.000 N 
ATOM     10  C   UNL     1       4.597   4.325  18.974  0.00  0.00    +0.000 A 
ATOM     11  O   UNL     1       5.191   3.426  19.549  0.00  0.00    +0.000 OA
ATOM     12  O   UNL     1       3.817   5.259  19.570  0.00  0.00    +0.000 OA
BRANCH   9  13
ATOM     13  C   UNL     1       5.418   3.954  16.623  0.00  0.00    +0.000 C 
BRANCH  13  14
ATOM     14  C   UNL     1       6.869   4.458  16.609  0.00  0.00    +0.000 C 
BRANCH  14  15
ATOM     15  C   UNL     1       7.218   4.989  15.288  0.00  0.00    +0.000 C 
ATOM     16  N   UNL     1       7.492   5.411  14.238  0.00  0.00    +0.000 NA
ENDBRANCH  14  15
ENDBRANCH  13  14
ENDBRANCH   9  13
ENDBRANCH   4   7
BRANCH   1  17
ATOM     17  O   UNL     1       0.235  10.485  20.105  0.00  0.00    +0.000 OA
BRANCH  17  18
ATOM     18  C   UNL     1      -0.135  11.319  18.995  0.00  0.00    +0.000 C 
BRANCH  18  23
ATOM     19  C   UNL     1      -5.868  11.051  17.932  0.00  0.00    +0.000 C 
ATOM     20  C   UNL     1      -4.395  11.104  18.206  0.00  0.00    +0.000 A 
ATOM     21  C   UNL     1      -3.522  10.168  17.640  0.00  0.00    +0.000 A 
ATOM     22  C   UNL     1      -2.149  10.228  17.894  0.00  0.00    +0.000 A 
ATOM     23  C   UNL     1      -1.617  11.237  18.704  0.00  0.00    +0.000 A 
ATOM     24  C   UNL     1      -2.499  12.157  19.296  0.00  0.00    +0.000 A 
ATOM     25  C   UNL     1      -3.873  12.096  19.042  0.00  0.00    +0.000 A 
ENDBRANCH  18  23
ENDBRANCH  17  18
ENDBRANCH   1  17
TORSDOF 7
ENDMDL
MODEL 4
REMARK VINA RESULT:      -7.6      1.568      2.193
REMARK  Name = 
REMARK  8 active torsions:
REMARK  status: ('A' for Active; 'I' for Inactive)
REMARK    1  A    between atoms: C_1  and  C_2
REMARK    2  A    between atoms: C_5  and  C_6
REMARK    3  A    between atoms: C_6  and  O_7
REMARK    4  A    between atoms: O_7  and  C_8
REMARK    5  A    between atoms: C_11  and  C_12
REMARK    6  A    between atoms: N_14  and  C_15
REMARK    7  A    between atoms: C_15  and  C_16
REMARK    8  A    between atoms: C_16  and  C_17
REMARK                            x       y       z     vdW  Elec       q    Type
REMARK                         _______ _______ _______ _____ _____    ______ ____
ROOT
ATOM      1  C   UNL     1       7.609   7.333  18.140  0.00  0.00    +0.000 A 
ATOM      2  C   UNL     1       7.618   6.192  18.945  0.00  0.00    +0.000 A 
ATOM      3  C   UNL     1       6.523   5.317  18.956  0.00  0.00    +0.000 A 
ATOM      4  C   UNL     1       5.391   5.589  18.181  0.00  0.00    +0.000 A 
ATOM      5  C   UNL     1       5.363   6.764  17.415  0.00  0.00    +0.000 A 
ATOM      6  C   UNL     1       6.463   7.635  17.403  0.00  0.00    +0.000 A 
ENDROOT
BRANCH   4   7
ATOM      7  C   UNL     1       4.262   4.637  18.175  0.00  0.00    +0.000 A 
ATOM      8  N   UNL     1       4.160   3.481  18.761  0.00  0.00    +0.000 NA
ATOM      9  N   UNL     1       2.909   3.058  18.376  0.00  0.00    +0.000 N 
ATOM     10  C   UNL     1       2.295   4.015  17.598  0.00  0.00    +0.000 A 
ATOM     11  O   UNL     1       1.169   3.987  17.126  0.00  0.00    +0.000 OA
ATOM     12  O   UNL     1       3.184   5.027  17.452  0.00  0.00    +0.000 OA
BRANCH   9  13
ATOM     13  C   UNL     1       2.266   1.872  18.921  0.00  0.00    +0.000 C 
BRANCH  13  14
ATOM     14  C   UNL     1       1.145   2.187  19.923  0.00  0.00    +0.000 C 
BRANCH  14  15
ATOM     15  C   UNL     1       1.705   2.683  21.184  0.00  0.00    +0.000 C 
ATOM     16  N   UNL     1       2.153   3.075  22.184  0.00  0.00    +0.000 NA
ENDBRANCH  14  15
ENDBRANCH  13  14
ENDBRANCH   9  13
ENDBRANCH   4   7
BRANCH   1  17
ATOM     17  O   UNL     1       8.663   8.201  18.012  0.00  0.00    +0.000 OA
BRANCH  17  18
ATOM     18  C   UNL     1       8.315   9.511  17.533  0.00  0.00    +0.000 C 
BRANCH  18  23
ATOM     19  C   UNL     1      10.605  13.752  20.825  0.00  0.00    +0.000 C 
ATOM     20  C   UNL     1      10.027  12.652  19.985  0.00  0.00    +0.000 A 
ATOM     21  C   UNL     1       9.877  11.358  20.496  0.00  0.00    +0.000 A 
ATOM     22  C   UNL     1       9.331  10.340  19.710  0.00  0.00    +0.000 A 
ATOM     23  C   UNL     1       8.905  10.598  18.403  0.00  0.00    +0.000 A 
ATOM     24  C   UNL     1       9.086  11.891  17.882  0.00  0.00    +0.000 A 
ATOM     25  C   UNL     1       9.632  12.909  18.668  0.00  0.00    +0.000 A 
ENDBRANCH  18  23
ENDBRANCH  17  18
ENDBRANCH   1  17
TORSDOF 7
ENDMDL
MODEL 5
REMARK VINA RESULT:      -7.5      1.478      1.645
REMARK  Name = 
REMARK  8 active torsions:
REMARK  status: ('A' for Active; 'I' for Inactive)
REMARK    1  A    between atoms: C_1  and  C_2
REMARK    2  A    between atoms: C_5  and  C_6
REMARK    3  A    between atoms: C_6  and  O_7
REMARK    4  A    between atoms: O_7  and  C_8
REMARK    5  A    between atoms: C_11  and  C_12
REMARK    6  A    between atoms: N_14  and  C_15
REMARK    7  A    between atoms: C_15  and  C_16
REMARK    8  A    between atoms: C_16  and  C_17
REMARK                            x       y       z     vdW  Elec       q    Type
REMARK                         _______ _______ _______ _____ _____    ______ ____
ROOT
ATOM      1  C   UNL     1       7.721   7.547  18.019  0.00  0.00    +0.000 A 
ATOM      2  C   UNL     1       6.602   7.584  17.184  0.00  0.00    +0.000 A 
ATOM      3  C   UNL     1       5.608   6.600  17.277  0.00  0.00    +0.000 A 
ATOM      4  C   UNL     1       5.737   5.548  18.189  0.00  0.00    +0.000 A 
ATOM      5  C   UNL     1       6.888   5.483  18.988  0.00  0.00    +0.000 A 
ATOM      6  C   UNL     1       7.878   6.473  18.896  0.00  0.00    +0.000 A 
ENDROOT
BRANCH   4   7
ATOM      7  C   UNL     1       4.663   4.541  18.301  0.00  0.00    +0.000 A 
ATOM      8  N   UNL     1       4.319   3.818  19.326  0.00  0.00    +0.000 NA
ATOM      9  N   UNL     1       3.285   3.060  18.826  0.00  0.00    +0.000 N 
ATOM     10  C   UNL     1       3.030   3.399  17.515  0.00  0.00    +0.000 A 
ATOM     11  O   UNL     1       2.157   2.957  16.785  0.00  0.00    +0.000 OA
ATOM     12  O   UNL     1       3.939   4.343  17.172  0.00  0.00    +0.000 OA
BRANCH   9  13
ATOM     13  C   UNL     1       2.453   2.202  19.655  0.00  0.00    +0.000 C 
BRANCH  13  14
ATOM     14  C   UNL     1       1.112   2.840  20.045  0.00  0.00    +0.000 C 
BRANCH  14  15
ATOM     15  C   UNL     1       1.306   4.230  20.471  0.00  0.00    +0.000 C 
ATOM     16  N   UNL     1       1.461   5.334  20.806  0.00  0.00    +0.000 NA
ENDBRANCH  14  15
ENDBRANCH  13  14
ENDBRANCH   9  13
ENDBRANCH   4   7
BRANCH   1  17
ATOM     17  O   UNL     1       8.701   8.506  18.047  0.00  0.00    +0.000 OA
BRANCH  17  18
ATOM     18  C   UNL     1       8.228   9.858  17.936  0.00  0.00    +0.000 C 
BRANCH  18  23
ATOM     19  C   UNL     1      12.263  13.676  19.728  0.00  0.00    +0.000 C 
ATOM     20  C   UNL     1      11.218  12.707  19.261  0.00  0.00    +0.000 A 
ATOM     21  C   UNL     1      10.563  12.887  18.038  0.00  0.00    +0.000 A 
ATOM     22  C   UNL     1       9.595  11.975  17.607  0.00  0.00    +0.000 A 
ATOM     23  C   UNL     1       9.275  10.855  18.381  0.00  0.00    +0.000 A 
ATOM     24  C   UNL     1       9.911  10.694  19.623  0.00  0.00    +0.000 A 
ATOM     25  C   UNL     1      10.879  11.606  20.054  0.00  0.00    +0.000 A 
ENDBRANCH  18  23
ENDBRANCH  17  18
ENDBRANCH   1  17
TORSDOF 7
ENDMDL
MODEL 6
REMARK VINA RESULT:      -7.5      5.910      8.458
REMARK  Name = 
REMARK  8 active torsions:
REMARK  status: ('A' for Active; 'I' for Inactive)
REMARK    1  A    between atoms: C_1  and  C_2
REMARK    2  A    between atoms: C_5  and  C_6
REMARK    3  A    between atoms: C_6  and  O_7
REMARK    4  A    between atoms: O_7  and  C_8
REMARK    5  A    between atoms: C_11  and  C_12
REMARK    6  A    between atoms: N_14  and  C_15
REMARK    7  A    between atoms: C_15  and  C_16
REMARK    8  A    between atoms: C_16  and  C_17
REMARK                            x       y       z     vdW  Elec       q    Type
REMARK                         _______ _______ _______ _____ _____    ______ ____
ROOT
ATOM      1  C   UNL     1       1.692   8.426  19.261  0.00  0.00    +0.000 A 
ATOM      2  C   UNL     1       2.316   8.699  18.042  0.00  0.00    +0.000 A 
ATOM      3  C   UNL     1       3.288   7.831  17.527  0.00  0.00    +0.000 A 
ATOM      4  C   UNL     1       3.668   6.690  18.240  0.00  0.00    +0.000 A 
ATOM      5  C   UNL     1       3.079   6.447  19.490  0.00  0.00    +0.000 A 
ATOM      6  C   UNL     1       2.102   7.316  20.000  0.00  0.00    +0.000 A 
ENDROOT
BRANCH   4   7
ATOM      7  C   UNL     1       4.666   5.766  17.665  0.00  0.00    +0.000 A 
ATOM      8  N   UNL     1       4.619   5.098  16.550  0.00  0.00    +0.000 NA
ATOM      9  N   UNL     1       5.806   4.402  16.566  0.00  0.00    +0.000 N 
ATOM     10  C   UNL     1       6.536   4.722  17.690  0.00  0.00    +0.000 A 
ATOM     11  O   UNL     1       7.649   4.324  17.998  0.00  0.00    +0.000 OA
ATOM     12  O   UNL     1       5.784   5.589  18.410  0.00  0.00    +0.000 OA
BRANCH   9  13
ATOM     13  C   UNL     1       6.292   3.629  15.435  0.00  0.00    +0.000 C 
BRANCH  13  14
ATOM     14  C   UNL     1       6.481   4.462  14.158  0.00  0.00    +0.000 C 
BRANCH  14  15
ATOM     15  C   UNL     1       5.995   3.727  12.986  0.00  0.00    +0.000 C 
ATOM     16  N   UNL     1       5.608   3.142  12.058  0.00  0.00    +0.000 NA
ENDBRANCH  14  15
ENDBRANCH  13  14
ENDBRANCH   9  13
ENDBRANCH   4   7
BRANCH   1  17
ATOM     17  O   UNL     1       0.681   9.179  19.801  0.00  0.00    +0.000 OA
BRANCH  17  18
ATOM     18  C   UNL     1       0.529  10.489  19.231  0.00  0.00    +0.000 C 
BRANCH  18  23
ATOM     19  C   UNL     1      -4.821  11.267  17.031  0.00  0.00    +0.000 C 
ATOM     20  C   UNL     1      -3.446  11.082  17.599  0.00  0.00    +0.000 A 
ATOM     21  C   UNL     1      -3.031  11.796  18.729  0.00  0.00    +0.000 A 
ATOM     22  C   UNL     1      -1.750  11.613  19.257  0.00  0.00    +0.000 A 
ATOM     23  C   UNL     1      -0.863  10.699  18.678  0.00  0.00    +0.000 A 
ATOM     24  C   UNL     1      -1.271  10.007  17.525  0.00  0.00    +0.000 A 
ATOM     25  C   UNL     1      -2.553  10.191  16.997  0.00  0.00    +0.000 A 
ENDBRANCH  18  23
ENDBRANCH  17  18
ENDBRANCH   1  17
TORSDOF 7
ENDMDL
MODEL 7
REMARK VINA RESULT:      -7.5      1.339      1.754
REMARK  Name = 
REMARK  8 active torsions:
REMARK  status: ('A' for Active; 'I' for Inactive)
REMARK    1  A    between atoms: C_1  and  C_2
REMARK    2  A    between atoms: C_5  and  C_6
REMARK    3  A    between atoms: C_6  and  O_7
REMARK    4  A    between atoms: O_7  and  C_8
REMARK    5  A    between atoms: C_11  and  C_12
REMARK    6  A    between atoms: N_14  and  C_15
REMARK    7  A    between atoms: C_15  and  C_16
REMARK    8  A    between atoms: C_16  and  C_17
REMARK                            x       y       z     vdW  Elec       q    Type
REMARK                         _______ _______ _______ _____ _____    ______ ____
ROOT
ATOM      1  C   UNL     1       7.597   7.712  17.751  0.00  0.00    +0.000 A 
ATOM      2  C   UNL     1       6.382   7.873  17.080  0.00  0.00    +0.000 A 
ATOM      3  C   UNL     1       5.381   6.897  17.172  0.00  0.00    +0.000 A 
ATOM      4  C   UNL     1       5.594   5.731  17.914  0.00  0.00    +0.000 A 
ATOM      5  C   UNL     1       6.835   5.547  18.543  0.00  0.00    +0.000 A 
ATOM      6  C   UNL     1       7.833   6.529  18.453  0.00  0.00    +0.000 A 
ENDROOT
BRANCH   4   7
ATOM      7  C   UNL     1       4.514   4.731  18.031  0.00  0.00    +0.000 A 
ATOM      8  N   UNL     1       4.506   3.605  18.683  0.00  0.00    +0.000 NA
ATOM      9  N   UNL     1       3.254   3.106  18.403  0.00  0.00    +0.000 N 
ATOM     10  C   UNL     1       2.547   3.990  17.618  0.00  0.00    +0.000 A 
ATOM     11  O   UNL     1       1.397   3.886  17.223  0.00  0.00    +0.000 OA
ATOM     12  O   UNL     1       3.375   5.031  17.361  0.00  0.00    +0.000 OA
BRANCH   9  13
ATOM     13  C   UNL     1       2.705   1.925  19.050  0.00  0.00    +0.000 C 
BRANCH  13  14
ATOM     14  C   UNL     1       1.489   2.222  19.941  0.00  0.00    +0.000 C 
BRANCH  14  15
ATOM     15  C   UNL     1       1.919   2.709  21.255  0.00  0.00    +0.000 C 
ATOM     16  N   UNL     1       2.261   3.098  22.298  0.00  0.00    +0.000 NA
ENDBRANCH  14  15
ENDBRANCH  13  14
ENDBRANCH   9  13
ENDBRANCH   4   7
BRANCH   1  17
ATOM     17  O   UNL     1       8.599   8.648  17.778  0.00  0.00    +0.000 OA
BRANCH  17  18
ATOM     18  C   UNL     1       8.738   9.351  19.023  0.00  0.00    +0.000 C 
BRANCH  18  23
ATOM     19  C   UNL     1      11.001  14.667  18.189  0.00  0.00    +0.000 C 
ATOM     20  C   UNL     1      10.434  13.295  18.405  0.00  0.00    +0.000 A 
ATOM     21  C   UNL     1      10.997  12.423  19.342  0.00  0.00    +0.000 A 
ATOM     22  C   UNL     1      10.458  11.148  19.543  0.00  0.00    +0.000 A 
ATOM     23  C   UNL     1       9.335  10.727  18.824  0.00  0.00    +0.000 A 
ATOM     24  C   UNL     1       8.791  11.594  17.861  0.00  0.00    +0.000 A 
ATOM     25  C   UNL     1       9.330  12.868  17.660  0.00  0.00    +0.000 A 
ENDBRANCH  18  23
ENDBRANCH  17  18
ENDBRANCH   1  17
TORSDOF 7
ENDMDL
MODEL 8
REMARK VINA RESULT:      -7.5      1.523      1.897
REMARK  Name = 
REMARK  8 active torsions:
REMARK  status: ('A' for Active; 'I' for Inactive)
REMARK    1  A    between atoms: C_1  and  C_2
REMARK    2  A    between atoms: C_5  and  C_6
REMARK    3  A    between atoms: C_6  and  O_7
REMARK    4  A    between atoms: O_7  and  C_8
REMARK    5  A    between atoms: C_11  and  C_12
REMARK    6  A    between atoms: N_14  and  C_15
REMARK    7  A    between atoms: C_15  and  C_16
REMARK    8  A    between atoms: C_16  and  C_17
REMARK                            x       y       z     vdW  Elec       q    Type
REMARK                         _______ _______ _______ _____ _____    ______ ____
ROOT
ATOM      1  C   UNL     1       7.638   7.327  18.095  0.00  0.00    +0.000 A 
ATOM      2  C   UNL     1       6.504   7.385  17.281  0.00  0.00    +0.000 A 
ATOM      3  C   UNL     1       5.505   6.407  17.377  0.00  0.00    +0.000 A 
ATOM      4  C   UNL     1       5.642   5.341  18.271  0.00  0.00    +0.000 A 
ATOM      5  C   UNL     1       6.806   5.255  19.048  0.00  0.00    +0.000 A 
ATOM      6  C   UNL     1       7.802   6.239  18.953  0.00  0.00    +0.000 A 
ENDROOT
BRANCH   4   7
ATOM      7  C   UNL     1       4.562   4.340  18.387  0.00  0.00    +0.000 A 
ATOM      8  N   UNL     1       4.232   3.603  19.406  0.00  0.00    +0.000 NA
ATOM      9  N   UNL     1       3.183   2.861  18.914  0.00  0.00    +0.000 N 
ATOM     10  C   UNL     1       2.905   3.224  17.614  0.00  0.00    +0.000 A 
ATOM     11  O   UNL     1       2.015   2.801  16.893  0.00  0.00    +0.000 OA
ATOM     12  O   UNL     1       3.815   4.167  17.269  0.00  0.00    +0.000 OA
BRANCH   9  13
ATOM     13  C   UNL     1       2.360   1.996  19.744  0.00  0.00    +0.000 C 
BRANCH  13  14
ATOM     14  C   UNL     1       1.909   2.654  21.057  0.00  0.00    +0.000 C 
BRANCH  14  15
ATOM     15  C   UNL     1       1.507   4.045  20.826  0.00  0.00    +0.000 C 
ATOM     16  N   UNL     1       1.191   5.150  20.643  0.00  0.00    +0.000 NA
ENDBRANCH  14  15
ENDBRANCH  13  14
ENDBRANCH   9  13
ENDBRANCH   4   7
BRANCH   1  17
ATOM     17  O   UNL     1       8.626   8.279  18.120  0.00  0.00    +0.000 OA
BRANCH  17  18
ATOM     18  C   UNL     1       8.222   9.582  17.670  0.00  0.00    +0.000 C 
BRANCH  18  23
ATOM     19  C   UNL     1      11.063  13.857  20.450  0.00  0.00    +0.000 C 
ATOM     20  C   UNL     1      10.343  12.748  19.741  0.00  0.00    +0.000 A 
ATOM     21  C   UNL     1      10.168  11.500  20.348  0.00  0.00    +0.000 A 
ATOM     22  C   UNL     1       9.489  10.474  19.685  0.00  0.00    +0.000 A 
ATOM     23  C   UNL     1       8.956  10.680  18.408  0.00  0.00    +0.000 A 
ATOM     24  C   UNL     1       9.162  11.924  17.789  0.00  0.00    +0.000 A 
ATOM     25  C   UNL     1       9.841  12.950  18.452  0.00  0.00    +0.000 A 
ENDBRANCH  18  23
ENDBRANCH  17  18
ENDBRANCH   1  17
TORSDOF 7
ENDMDL
MODEL 9
REMARK VINA RESULT:      -7.4      6.266      8.710
REMARK  Name = 
REMARK  8 active torsions:
REMARK  status: ('A' for Active; 'I' for Inactive)
REMARK    1  A    between atoms: C_1  and  C_2
REMARK    2  A    between atoms: C_5  and  C_6
REMARK    3  A    between atoms: C_6  and  O_7
REMARK    4  A    between atoms: O_7  and  C_8
REMARK    5  A    between atoms: C_11  and  C_12
REMARK    6  A    between atoms: N_14  and  C_15
REMARK    7  A    between atoms: C_15  and  C_16
REMARK    8  A    between atoms: C_16  and  C_17
REMARK                            x       y       z     vdW  Elec       q    Type
REMARK                         _______ _______ _______ _____ _____    ______ ____
ROOT
ATOM      1  C   UNL     1       1.065   9.236  19.816  0.00  0.00    +0.000 A 
ATOM      2  C   UNL     1       1.552   9.207  18.507  0.00  0.00    +0.000 A 
ATOM      3  C   UNL     1       2.257   8.094  18.032  0.00  0.00    +0.000 A 
ATOM      4  C   UNL     1       2.510   7.004  18.871  0.00  0.00    +0.000 A 
ATOM      5  C   UNL     1       2.067   7.058  20.201  0.00  0.00    +0.000 A 
ATOM      6  C   UNL     1       1.356   8.173  20.672  0.00  0.00    +0.000 A 
ENDROOT
BRANCH   4   7
ATOM      7  C   UNL     1       3.221   5.822  18.343  0.00  0.00    +0.000 A 
ATOM      8  N   UNL     1       3.972   5.721  17.286  0.00  0.00    +0.000 NA
ATOM      9  N   UNL     1       4.328   4.392  17.296  0.00  0.00    +0.000 N 
ATOM     10  C   UNL     1       3.797   3.760  18.399  0.00  0.00    +0.000 A 
ATOM     11  O   UNL     1       3.948   2.598  18.741  0.00  0.00    +0.000 OA
ATOM     12  O   UNL     1       3.062   4.685  19.063  0.00  0.00    +0.000 OA
BRANCH   9  13
ATOM     13  C   UNL     1       5.313   3.824  16.390  0.00  0.00    +0.000 C 
BRANCH  13  14
ATOM     14  C   UNL     1       6.702   4.469  16.511  0.00  0.00    +0.000 C 
BRANCH  14  15
ATOM     15  C   UNL     1       7.156   4.966  15.208  0.00  0.00    +0.000 C 
ATOM     16  N   UNL     1       7.516   5.357  14.173  0.00  0.00    +0.000 NA
ENDBRANCH  14  15
ENDBRANCH  13  14
ENDBRANCH   9  13
ENDBRANCH   4   7
BRANCH   1  17
ATOM     17  O   UNL     1       0.303  10.250  20.339  0.00  0.00    +0.000 OA
BRANCH  17  18
ATOM     18  C   UNL     1       0.014  11.322  19.428  0.00  0.00    +0.000 C 
BRANCH  18  23
ATOM     19  C   UNL     1      -5.550  11.227  17.666  0.00  0.00    +0.000 C 
ATOM     20  C   UNL     1      -4.121  11.267  18.121  0.00  0.00    +0.000 A 
ATOM     21  C   UNL     1      -3.728  12.082  19.188  0.00  0.00    +0.000 A 
ATOM     22  C   UNL     1      -2.396  12.108  19.612  0.00  0.00    +0.000 A 
ATOM     23  C   UNL     1      -1.433  11.306  18.989  0.00  0.00    +0.000 A 
ATOM     24  C   UNL     1      -1.826  10.513  17.898  0.00  0.00    +0.000 A 
ATOM     25  C   UNL     1      -3.158  10.487  17.474  0.00  0.00    +0.000 A 
ENDBRANCH  18  23
ENDBRANCH  17  18
ENDBRANCH   1  17
TORSDOF 7
ENDMDL
