MODEL 1
REMARK VINA RESULT:      -8.9      0.000      0.000
REMARK  Name = 
REMARK  11 active torsions:
REMARK  status: ('A' for Active; 'I' for Inactive)
REMARK    1  A    between atoms: C_1  and  C_2
REMARK    2  A    between atoms: C_2  and  C_3
REMARK    3  A    between atoms: C_2  and  C_4
REMARK    4  A    between atoms: C_4  and  N_5
REMARK    5  A    between atoms: C_4  and  P_26
REMARK    6  A    between atoms: N_5  and  S_6
REMARK    7  A    between atoms: S_6  and  C_9
REMARK    8  A    between atoms: C_12  and  C_13
REMARK    9  A    between atoms: C_16  and  N_17
REMARK   10  A    between atoms: P_26  and  O_28
REMARK   11  A    between atoms: P_26  and  O_29
REMARK                            x       y       z     vdW  Elec       q    Type
REMARK                         _______ _______ _______ _____ _____    ______ ____
ROOT
ATOM      1  C   UNL     1       3.286   4.817  19.153  0.00  0.00    +0.000 A 
ATOM      2  C   UNL     1       3.466   5.983  18.402  0.00  0.00    +0.000 A 
ATOM      3  C   UNL     1       2.883   7.147  18.853  0.00  0.00    +0.000 A 
ATOM      4  C   UNL     1       2.074   7.133  20.011  0.00  0.00    +0.000 A 
ATOM      5  C   UNL     1       1.891   5.932  20.709  0.00  0.00    +0.000 A 
ATOM      6  C   UNL     1       2.477   4.764  20.279  0.00  0.00    +0.000 A 
ENDROOT
BRANCH   4   7
ATOM      7  C   UNL     1       1.405   8.344  20.456  0.00  0.00    +0.000 A 
ATOM      8  C   UNL     1       1.061   9.318  19.515  0.00  0.00    +0.000 A 
ATOM      9  C   UNL     1       0.355  10.434  19.891  0.00  0.00    +0.000 A 
ATOM     10  C   UNL     1      -0.031  10.648  21.212  0.00  0.00    +0.000 A 
ATOM     11  C   UNL     1       0.330   9.684  22.170  0.00  0.00    +0.000 A 
ATOM     12  C   UNL     1       1.040   8.542  21.796  0.00  0.00    +0.000 A 
BRANCH  10  13
ATOM     13  N   UNL     1      -0.755  11.776  21.552  0.00  0.00    +0.000 N 
ATOM     14  C   UNL     1      -1.206  11.985  22.931  0.00  0.00    +0.000 C 
ATOM     15  C   UNL     1      -2.700  12.239  22.822  0.00  0.00    +0.000 C 
ATOM     16  C   UNL     1      -2.846  12.884  21.454  0.00  0.00    +0.000 C 
ATOM     17  C   UNL     1      -1.781  12.202  20.597  0.00  0.00    +0.000 C 
ENDBRANCH  10  13
ENDBRANCH   4   7
BRANCH   1  18
ATOM     18  S   UNL     1       4.234   3.402  18.779  0.00  0.00    +0.000 S 
ATOM     19  O   UNL     1       3.619   2.949  17.511  0.00  0.00    +0.000 OA
ATOM     20  O   UNL     1       4.265   2.560  19.933  0.00  0.00    +0.000 OA
BRANCH  18  21
ATOM     21  N   UNL     1       5.841   4.030  18.550  0.00  0.00    +0.000 NA
ATOM     22  H   UNL     1       6.456   3.208  18.501  0.00  0.00    +0.000 HD
BRANCH  21  23
ATOM     23  C   UNL     1       6.075   5.066  17.394  0.00  0.00    +0.000 C 
BRANCH  23  25
ATOM     24  C   UNL     1       7.730   5.757  19.219  0.00  0.00    +0.000 C 
ATOM     25  C   UNL     1       7.324   5.925  17.749  0.00  0.00    +0.000 C 
ATOM     26  C   UNL     1       7.151   7.428  17.480  0.00  0.00    +0.000 C 
ENDBRANCH  23  25
BRANCH  23  27
ATOM     27  P   UNL     1       6.228   4.248  15.763  0.00  0.00    +0.000 P 
ATOM     28  O   UNL     1       5.523   5.369  14.994  0.00  0.00    +0.000 OA
BRANCH  27  29
ATOM     29  O   UNL     1       7.803   4.673  15.626  0.00  0.00    +0.000 OA
ATOM     30  H   UNL     1       8.065   4.804  16.574  0.00  0.00    +0.000 HD
ENDBRANCH  27  29
BRANCH  27  31
ATOM     31  O   UNL     1       6.372   3.476  14.223  0.00  0.00    +0.000 OA
ATOM     32  H   UNL     1       7.284   3.627  13.909  0.00  0.00    +0.000 HD
ENDBRANCH  27  31
ENDBRANCH  23  27
ENDBRANCH  21  23
ENDBRANCH  18  21
ENDBRANCH   1  18
TORSDOF 9
ENDMDL
MODEL 2
REMARK VINA RESULT:      -8.7      2.621      3.872
REMARK  Name = 
REMARK  11 active torsions:
REMARK  status: ('A' for Active; 'I' for Inactive)
REMARK    1  A    between atoms: C_1  and  C_2
REMARK    2  A    between atoms: C_2  and  C_3
REMARK    3  A    between atoms: C_2  and  C_4
REMARK    4  A    between atoms: C_4  and  N_5
REMARK    5  A    between atoms: C_4  and  P_26
REMARK    6  A    between atoms: N_5  and  S_6
REMARK    7  A    between atoms: S_6  and  C_9
REMARK    8  A    between atoms: C_12  and  C_13
REMARK    9  A    between atoms: C_16  and  N_17
REMARK   10  A    between atoms: P_26  and  O_28
REMARK   11  A    between atoms: P_26  and  O_29
REMARK                            x       y       z     vdW  Elec       q    Type
REMARK                         _______ _______ _______ _____ _____    ______ ____
ROOT
ATOM      1  C   UNL     1       2.518   7.236  18.873  0.00  0.00    +0.000 A 
ATOM      2  C   UNL     1       2.103   8.311  18.081  0.00  0.00    +0.000 A 
ATOM      3  C   UNL     1       1.345   9.300  18.667  0.00  0.00    +0.000 A 
ATOM      4  C   UNL     1       0.951   9.186  20.019  0.00  0.00    +0.000 A 
ATOM      5  C   UNL     1       1.361   8.071  20.762  0.00  0.00    +0.000 A 
ATOM      6  C   UNL     1       2.128   7.080  20.195  0.00  0.00    +0.000 A 
ENDROOT
BRANCH   4   7
ATOM      7  C   UNL     1       0.099  10.195  20.625  0.00  0.00    +0.000 A 
ATOM      8  C   UNL     1      -0.649  11.039  19.803  0.00  0.00    +0.000 A 
ATOM      9  C   UNL     1      -1.525  11.946  20.345  0.00  0.00    +0.000 A 
ATOM     10  C   UNL     1      -1.694  12.072  21.722  0.00  0.00    +0.000 A 
ATOM     11  C   UNL     1      -0.929  11.240  22.559  0.00  0.00    +0.000 A 
ATOM     12  C   UNL     1      -0.042  10.310  22.017  0.00  0.00    +0.000 A 
BRANCH  10  13
ATOM     13  N   UNL     1      -2.598  12.985  22.232  0.00  0.00    +0.000 N 
ATOM     14  C   UNL     1      -2.454  13.491  23.601  0.00  0.00    +0.000 C 
ATOM     15  C   UNL     1      -3.805  13.247  24.254  0.00  0.00    +0.000 C 
ATOM     16  C   UNL     1      -4.778  13.338  23.090  0.00  0.00    +0.000 C 
ATOM     17  C   UNL     1      -4.008  12.756  21.905  0.00  0.00    +0.000 C 
ENDBRANCH  10  13
ENDBRANCH   4   7
BRANCH   1  18
ATOM     18  S   UNL     1       3.707   6.122  18.251  0.00  0.00    +0.000 S 
ATOM     19  O   UNL     1       4.674   6.052  19.369  0.00  0.00    +0.000 OA
ATOM     20  O   UNL     1       4.104   6.562  16.951  0.00  0.00    +0.000 OA
BRANCH  18  21
ATOM     21  N   UNL     1       2.818   4.640  18.049  0.00  0.00    +0.000 NA
ATOM     22  H   UNL     1       3.141   4.241  17.158  0.00  0.00    +0.000 HD
BRANCH  21  23
ATOM     23  C   UNL     1       2.807   3.612  19.236  0.00  0.00    +0.000 C 
BRANCH  23  25
ATOM     24  C   UNL     1       1.258   3.045  21.192  0.00  0.00    +0.000 C 
ATOM     25  C   UNL     1       1.335   3.417  19.705  0.00  0.00    +0.000 C 
ATOM     26  C   UNL     1       0.558   2.353  18.915  0.00  0.00    +0.000 C 
ENDBRANCH  23  25
BRANCH  23  27
ATOM     27  P   UNL     1       3.613   2.033  18.780  0.00  0.00    +0.000 P 
ATOM     28  O   UNL     1       4.016   2.497  17.378  0.00  0.00    +0.000 OA
BRANCH  27  29
ATOM     29  O   UNL     1       4.948   2.387  19.658  0.00  0.00    +0.000 OA
ATOM     30  H   UNL     1       4.584   2.433  20.580  0.00  0.00    +0.000 HD
ENDBRANCH  27  29
BRANCH  27  31
ATOM     31  O   UNL     1       4.373   0.540  18.350  0.00  0.00    +0.000 OA
ATOM     32  H   UNL     1       5.299   0.745  18.116  0.00  0.00    +0.000 HD
ENDBRANCH  27  31
ENDBRANCH  23  27
ENDBRANCH  21  23
ENDBRANCH  18  21
ENDBRANCH   1  18
TORSDOF 9
ENDMDL
MODEL 3
REMARK VINA RESULT:      -8.7      0.464      1.012
REMARK  Name = 
REMARK  11 active torsions:
REMARK  status: ('A' for Active; 'I' for Inactive)
REMARK    1  A    between atoms: C_1  and  C_2
REMARK    2  A    between atoms: C_2  and  C_3
REMARK    3  A    between atoms: C_2  and  C_4
REMARK    4  A    between atoms: C_4  and  N_5
REMARK    5  A    between atoms: C_4  and  P_26
REMARK    6  A    between atoms: N_5  and  S_6
REMARK    7  A    between atoms: S_6  and  C_9
REMARK    8  A    between atoms: C_12  and  C_13
REMARK    9  A    between atoms: C_16  and  N_17
REMARK   10  A    between atoms: P_26  and  O_28
REMARK   11  A    between atoms: P_26  and  O_29
REMARK                            x       y       z     vdW  Elec       q    Type
REMARK                         _______ _______ _______ _____ _____    ______ ____
ROOT
ATOM      1  C   UNL     1       3.126   5.137  19.096  0.00  0.00    +0.000 A 
ATOM      2  C   UNL     1       2.528   5.073  20.358  0.00  0.00    +0.000 A 
ATOM      3  C   UNL     1       1.854   6.183  20.818  0.00  0.00    +0.000 A 
ATOM      4  C   UNL     1       1.831   7.369  20.050  0.00  0.00    +0.000 A 
ATOM      5  C   UNL     1       2.478   7.396  18.807  0.00  0.00    +0.000 A 
ATOM      6  C   UNL     1       3.145   6.293  18.328  0.00  0.00    +0.000 A 
ENDROOT
BRANCH   4   7
ATOM      7  C   UNL     1       1.175   8.562  20.558  0.00  0.00    +0.000 A 
ATOM      8  C   UNL     1       0.758   9.546  19.660  0.00  0.00    +0.000 A 
ATOM      9  C   UNL     1       0.062  10.645  20.100  0.00  0.00    +0.000 A 
ATOM     10  C   UNL     1      -0.241  10.831  21.447  0.00  0.00    +0.000 A 
ATOM     11  C   UNL     1       0.194   9.855  22.362  0.00  0.00    +0.000 A 
ATOM     12  C   UNL     1       0.894   8.731  21.923  0.00  0.00    +0.000 A 
BRANCH  10  13
ATOM     13  N   UNL     1      -0.958  11.941  21.853  0.00  0.00    +0.000 N 
ATOM     14  C   UNL     1      -1.690  11.932  23.123  0.00  0.00    +0.000 C 
ATOM     15  C   UNL     1      -3.106  12.349  22.763  0.00  0.00    +0.000 C 
ATOM     16  C   UNL     1      -2.909  13.250  21.555  0.00  0.00    +0.000 C 
ATOM     17  C   UNL     1      -1.722  12.637  20.814  0.00  0.00    +0.000 C 
ENDBRANCH  10  13
ENDBRANCH   4   7
BRANCH   1  18
ATOM     18  S   UNL     1       3.735   3.677  18.361  0.00  0.00    +0.000 S 
ATOM     19  O   UNL     1       3.052   3.688  17.048  0.00  0.00    +0.000 OA
ATOM     20  O   UNL     1       3.559   2.599  19.282  0.00  0.00    +0.000 OA
BRANCH  18  21
ATOM     21  N   UNL     1       5.445   3.968  18.222  0.00  0.00    +0.000 NA
ATOM     22  H   UNL     1       5.873   3.045  18.077  0.00  0.00    +0.000 HD
BRANCH  21  23
ATOM     23  C   UNL     1       5.932   5.058  17.202  0.00  0.00    +0.000 C 
BRANCH  23  25
ATOM     24  C   UNL     1       7.278   5.577  19.316  0.00  0.00    +0.000 C 
ATOM     25  C   UNL     1       7.189   5.760  17.795  0.00  0.00    +0.000 C 
ATOM     26  C   UNL     1       7.267   7.266  17.499  0.00  0.00    +0.000 C 
ENDBRANCH  23  25
BRANCH  23  27
ATOM     27  P   UNL     1       6.243   4.352  15.542  0.00  0.00    +0.000 P 
ATOM     28  O   UNL     1       5.883   5.636  14.790  0.00  0.00    +0.000 OA
BRANCH  27  29
ATOM     29  O   UNL     1       7.864   4.495  15.714  0.00  0.00    +0.000 OA
ATOM     30  H   UNL     1       8.072   5.245  15.099  0.00  0.00    +0.000 HD
ENDBRANCH  27  29
BRANCH  27  31
ATOM     31  O   UNL     1       6.536   3.685  13.973  0.00  0.00    +0.000 OA
ATOM     32  H   UNL     1       6.292   4.367  13.319  0.00  0.00    +0.000 HD
ENDBRANCH  27  31
ENDBRANCH  23  27
ENDBRANCH  21  23
ENDBRANCH  18  21
ENDBRANCH   1  18
TORSDOF 9
ENDMDL
MODEL 4
REMARK VINA RESULT:      -8.6      0.844      1.442
REMARK  Name = 
REMARK  11 active torsions:
REMARK  status: ('A' for Active; 'I' for Inactive)
REMARK    1  A    between atoms: C_1  and  C_2
REMARK    2  A    between atoms: C_2  and  C_3
REMARK    3  A    between atoms: C_2  and  C_4
REMARK    4  A    between atoms: C_4  and  N_5
REMARK    5  A    between atoms: C_4  and  P_26
REMARK    6  A    between atoms: N_5  and  S_6
REMARK    7  A    between atoms: S_6  and  C_9
REMARK    8  A    between atoms: C_12  and  C_13
REMARK    9  A    between atoms: C_16  and  N_17
REMARK   10  A    between atoms: P_26  and  O_28
REMARK   11  A    between atoms: P_26  and  O_29
REMARK                            x       y       z     vdW  Elec       q    Type
REMARK                         _______ _______ _______ _____ _____    ______ ____
ROOT
ATOM      1  C   UNL     1       3.496   4.792  18.963  0.00  0.00    +0.000 A 
ATOM      2  C   UNL     1       3.409   5.777  17.975  0.00  0.00    +0.000 A 
ATOM      3  C   UNL     1       2.777   6.961  18.288  0.00  0.00    +0.000 A 
ATOM      4  C   UNL     1       2.183   7.135  19.558  0.00  0.00    +0.000 A 
ATOM      5  C   UNL     1       2.263   6.103  20.502  0.00  0.00    +0.000 A 
ATOM      6  C   UNL     1       2.901   4.920  20.210  0.00  0.00    +0.000 A 
ENDROOT
BRANCH   4   7
ATOM      7  C   UNL     1       1.461   8.357  19.871  0.00  0.00    +0.000 A 
ATOM      8  C   UNL     1       1.000   8.562  21.173  0.00  0.00    +0.000 A 
ATOM      9  C   UNL     1       0.388   9.741  21.520  0.00  0.00    +0.000 A 
ATOM     10  C   UNL     1       0.190  10.765  20.597  0.00  0.00    +0.000 A 
ATOM     11  C   UNL     1       0.632  10.560  19.278  0.00  0.00    +0.000 A 
ATOM     12  C   UNL     1       1.262   9.368  18.918  0.00  0.00    +0.000 A 
BRANCH  10  13
ATOM     13  N   UNL     1      -0.414  11.946  20.986  0.00  0.00    +0.000 N 
ATOM     14  C   UNL     1       0.165  13.239  20.610  0.00  0.00    +0.000 C 
ATOM     15  C   UNL     1       0.297  14.005  21.916  0.00  0.00    +0.000 C 
ATOM     16  C   UNL     1      -0.841  13.456  22.760  0.00  0.00    +0.000 C 
ATOM     17  C   UNL     1      -0.942  11.987  22.353  0.00  0.00    +0.000 C 
ENDBRANCH  10  13
ENDBRANCH   4   7
BRANCH   1  18
ATOM     18  S   UNL     1       4.527   3.408  18.705  0.00  0.00    +0.000 S 
ATOM     19  O   UNL     1       3.927   2.802  17.496  0.00  0.00    +0.000 OA
ATOM     20  O   UNL     1       4.624   2.682  19.931  0.00  0.00    +0.000 OA
BRANCH  18  21
ATOM     21  N   UNL     1       6.088   4.110  18.392  0.00  0.00    +0.000 NA
ATOM     22  H   UNL     1       6.734   3.317  18.293  0.00  0.00    +0.000 HD
BRANCH  21  23
ATOM     23  C   UNL     1       6.207   5.172  17.241  0.00  0.00    +0.000 C 
BRANCH  23  25
ATOM     24  C   UNL     1       7.948   5.876  18.979  0.00  0.00    +0.000 C 
ATOM     25  C   UNL     1       7.396   6.122  17.569  0.00  0.00    +0.000 C 
ATOM     26  C   UNL     1       7.058   7.616  17.452  0.00  0.00    +0.000 C 
ENDBRANCH  23  25
BRANCH  23  27
ATOM     27  P   UNL     1       6.373   4.383  15.597  0.00  0.00    +0.000 P 
ATOM     28  O   UNL     1       5.284   5.234  14.939  0.00  0.00    +0.000 OA
BRANCH  27  29
ATOM     29  O   UNL     1       7.729   5.234  15.255  0.00  0.00    +0.000 OA
ATOM     30  H   UNL     1       7.667   5.989  15.895  0.00  0.00    +0.000 HD
ENDBRANCH  27  29
BRANCH  27  31
ATOM     31  O   UNL     1       6.530   3.638  14.044  0.00  0.00    +0.000 OA
ATOM     32  H   UNL     1       5.958   2.847  14.045  0.00  0.00    +0.000 HD
ENDBRANCH  27  31
ENDBRANCH  23  27
ENDBRANCH  21  23
ENDBRANCH  18  21
ENDBRANCH   1  18
TORSDOF 9
ENDMDL
MODEL 5
REMARK VINA RESULT:      -8.5      0.641      1.432
REMARK  Name = 
REMARK  11 active torsions:
REMARK  status: ('A' for Active; 'I' for Inactive)
REMARK    1  A    between atoms: C_1  and  C_2
REMARK    2  A    between atoms: C_2  and  C_3
REMARK    3  A    between atoms: C_2  and  C_4
REMARK    4  A    between atoms: C_4  and  N_5
REMARK    5  A    between atoms: C_4  and  P_26
REMARK    6  A    between atoms: N_5  and  S_6
REMARK    7  A    between atoms: S_6  and  C_9
REMARK    8  A    between atoms: C_12  and  C_13
REMARK    9  A    between atoms: C_16  and  N_17
REMARK   10  A    between atoms: P_26  and  O_28
REMARK   11  A    between atoms: P_26  and  O_29
REMARK                            x       y       z     vdW  Elec       q    Type
REMARK                         _______ _______ _______ _____ _____    ______ ____
ROOT
ATOM      1  C   UNL     1       3.448   4.632  18.957  0.00  0.00    +0.000 A 
ATOM      2  C   UNL     1       3.141   5.567  17.964  0.00  0.00    +0.000 A 
ATOM      3  C   UNL     1       2.507   6.733  18.338  0.00  0.00    +0.000 A 
ATOM      4  C   UNL     1       2.127   6.934  19.683  0.00  0.00    +0.000 A 
ATOM      5  C   UNL     1       2.423   5.950  20.636  0.00  0.00    +0.000 A 
ATOM      6  C   UNL     1       3.065   4.787  20.282  0.00  0.00    +0.000 A 
ENDROOT
BRANCH   4   7
ATOM      7  C   UNL     1       1.403   8.133  20.071  0.00  0.00    +0.000 A 
ATOM      8  C   UNL     1       0.812   8.193  21.335  0.00  0.00    +0.000 A 
ATOM      9  C   UNL     1       0.192   9.341  21.762  0.00  0.00    +0.000 A 
ATOM     10  C   UNL     1       0.115  10.477  20.959  0.00  0.00    +0.000 A 
ATOM     11  C   UNL     1       0.688  10.418  19.676  0.00  0.00    +0.000 A 
ATOM     12  C   UNL     1       1.327   9.259  19.236  0.00  0.00    +0.000 A 
BRANCH  10  13
ATOM     13  N   UNL     1      -0.502  11.622  21.428  0.00  0.00    +0.000 N 
ATOM     14  C   UNL     1      -0.989  11.693  22.809  0.00  0.00    +0.000 C 
ATOM     15  C   UNL     1      -2.443  12.121  22.691  0.00  0.00    +0.000 C 
ATOM     16  C   UNL     1      -2.460  12.955  21.420  0.00  0.00    +0.000 C 
ATOM     17  C   UNL     1      -1.435  12.280  20.510  0.00  0.00    +0.000 C 
ENDBRANCH  10  13
ENDBRANCH   4   7
BRANCH   1  18
ATOM     18  S   UNL     1       4.495   3.290  18.576  0.00  0.00    +0.000 S 
ATOM     19  O   UNL     1       3.899   2.785  17.320  0.00  0.00    +0.000 OA
ATOM     20  O   UNL     1       4.604   2.459  19.733  0.00  0.00    +0.000 OA
BRANCH  18  21
ATOM     21  N   UNL     1       6.046   4.036  18.323  0.00  0.00    +0.000 NA
ATOM     22  H   UNL     1       6.633   3.315  17.884  0.00  0.00    +0.000 HD
BRANCH  21  23
ATOM     23  C   UNL     1       6.092   5.423  17.589  0.00  0.00    +0.000 C 
BRANCH  23  25
ATOM     24  C   UNL     1       7.613   7.480  17.644  0.00  0.00    +0.000 C 
ATOM     25  C   UNL     1       6.876   6.428  18.483  0.00  0.00    +0.000 C 
ATOM     26  C   UNL     1       7.904   5.770  19.417  0.00  0.00    +0.000 C 
ENDBRANCH  23  25
BRANCH  23  27
ATOM     27  P   UNL     1       6.799   5.283  15.906  0.00  0.00    +0.000 P 
ATOM     28  O   UNL     1       7.881   4.276  16.307  0.00  0.00    +0.000 OA
BRANCH  27  29
ATOM     29  O   UNL     1       5.585   4.305  15.408  0.00  0.00    +0.000 OA
ATOM     30  H   UNL     1       6.028   3.767  14.703  0.00  0.00    +0.000 HD
ENDBRANCH  27  29
BRANCH  27  31
ATOM     31  O   UNL     1       7.467   5.151  14.316  0.00  0.00    +0.000 OA
ATOM     32  H   UNL     1       8.250   5.734  14.283  0.00  0.00    +0.000 HD
ENDBRANCH  27  31
ENDBRANCH  23  27
ENDBRANCH  21  23
ENDBRANCH  18  21
ENDBRANCH   1  18
TORSDOF 9
ENDMDL
MODEL 6
REMARK VINA RESULT:      -8.5      1.238      1.756
REMARK  Name = 
REMARK  11 active torsions:
REMARK  status: ('A' for Active; 'I' for Inactive)
REMARK    1  A    between atoms: C_1  and  C_2
REMARK    2  A    between atoms: C_2  and  C_3
REMARK    3  A    between atoms: C_2  and  C_4
REMARK    4  A    between atoms: C_4  and  N_5
REMARK    5  A    between atoms: C_4  and  P_26
REMARK    6  A    between atoms: N_5  and  S_6
REMARK    7  A    between atoms: S_6  and  C_9
REMARK    8  A    between atoms: C_12  and  C_13
REMARK    9  A    between atoms: C_16  and  N_17
REMARK   10  A    between atoms: P_26  and  O_28
REMARK   11  A    between atoms: P_26  and  O_29
REMARK                            x       y       z     vdW  Elec       q    Type
REMARK                         _______ _______ _______ _____ _____    ______ ____
ROOT
ATOM      1  C   UNL     1       3.558   4.700  18.849  0.00  0.00    +0.000 A 
ATOM      2  C   UNL     1       3.460   5.561  17.752  0.00  0.00    +0.000 A 
ATOM      3  C   UNL     1       2.879   6.796  17.940  0.00  0.00    +0.000 A 
ATOM      4  C   UNL     1       2.345   7.145  19.201  0.00  0.00    +0.000 A 
ATOM      5  C   UNL     1       2.434   6.233  20.261  0.00  0.00    +0.000 A 
ATOM      6  C   UNL     1       3.021   5.000  20.093  0.00  0.00    +0.000 A 
ENDROOT
BRANCH   4   7
ATOM      7  C   UNL     1       1.676   8.421  19.389  0.00  0.00    +0.000 A 
ATOM      8  C   UNL     1       1.483   9.258  18.288  0.00  0.00    +0.000 A 
ATOM      9  C   UNL     1       0.782  10.432  18.417  0.00  0.00    +0.000 A 
ATOM     10  C   UNL     1       0.251  10.839  19.639  0.00  0.00    +0.000 A 
ATOM     11  C   UNL     1       0.459  10.013  20.758  0.00  0.00    +0.000 A 
ATOM     12  C   UNL     1       1.163   8.814  20.634  0.00  0.00    +0.000 A 
BRANCH  10  13
ATOM     13  N   UNL     1      -0.464  12.019  19.729  0.00  0.00    +0.000 N 
ATOM     14  C   UNL     1      -0.693  12.844  18.540  0.00  0.00    +0.000 C 
ATOM     15  C   UNL     1      -0.215  14.234  18.927  0.00  0.00    +0.000 C 
ATOM     16  C   UNL     1      -0.461  14.283  20.426  0.00  0.00    +0.000 C 
ATOM     17  C   UNL     1      -0.193  12.856  20.901  0.00  0.00    +0.000 C 
ENDBRANCH  10  13
ENDBRANCH   4   7
BRANCH   1  18
ATOM     18  S   UNL     1       4.534   3.260  18.724  0.00  0.00    +0.000 S 
ATOM     19  O   UNL     1       3.857   2.527  17.631  0.00  0.00    +0.000 OA
ATOM     20  O   UNL     1       4.671   2.691  20.027  0.00  0.00    +0.000 OA
BRANCH  18  21
ATOM     21  N   UNL     1       6.097   3.860  18.252  0.00  0.00    +0.000 NA
ATOM     22  H   UNL     1       6.622   3.040  17.923  0.00  0.00    +0.000 HD
BRANCH  21  23
ATOM     23  C   UNL     1       6.157   5.085  17.271  0.00  0.00    +0.000 C 
BRANCH  23  25
ATOM     24  C   UNL     1       7.637   5.855  19.211  0.00  0.00    +0.000 C 
ATOM     25  C   UNL     1       7.322   6.017  17.718  0.00  0.00    +0.000 C 
ATOM     26  C   UNL     1       7.071   7.509  17.451  0.00  0.00    +0.000 C 
ENDBRANCH  23  25
BRANCH  23  27
ATOM     27  P   UNL     1       6.314   4.556  15.526  0.00  0.00    +0.000 P 
ATOM     28  O   UNL     1       7.844   4.615  15.513  0.00  0.00    +0.000 OA
BRANCH  27  29
ATOM     29  O   UNL     1       6.033   2.989  15.908  0.00  0.00    +0.000 OA
ATOM     30  H   UNL     1       5.067   3.002  16.135  0.00  0.00    +0.000 HD
ENDBRANCH  27  29
BRANCH  27  31
ATOM     31  O   UNL     1       6.462   4.057  13.876  0.00  0.00    +0.000 OA
ATOM     32  H   UNL     1       5.734   3.433  13.698  0.00  0.00    +0.000 HD
ENDBRANCH  27  31
ENDBRANCH  23  27
ENDBRANCH  21  23
ENDBRANCH  18  21
ENDBRANCH   1  18
TORSDOF 9
ENDMDL
MODEL 7
REMARK VINA RESULT:      -8.4      0.578      1.050
REMARK  Name = 
REMARK  11 active torsions:
REMARK  status: ('A' for Active; 'I' for Inactive)
REMARK    1  A    between atoms: C_1  and  C_2
REMARK    2  A    between atoms: C_2  and  C_3
REMARK    3  A    between atoms: C_2  and  C_4
REMARK    4  A    between atoms: C_4  and  N_5
REMARK    5  A    between atoms: C_4  and  P_26
REMARK    6  A    between atoms: N_5  and  S_6
REMARK    7  A    between atoms: S_6  and  C_9
REMARK    8  A    between atoms: C_12  and  C_13
REMARK    9  A    between atoms: C_16  and  N_17
REMARK   10  A    between atoms: P_26  and  O_28
REMARK   11  A    between atoms: P_26  and  O_29
REMARK                            x       y       z     vdW  Elec       q    Type
REMARK                         _______ _______ _______ _____ _____    ______ ____
ROOT
ATOM      1  C   UNL     1       3.289   4.818  18.847  0.00  0.00    +0.000 A 
ATOM      2  C   UNL     1       3.156   5.905  17.979  0.00  0.00    +0.000 A 
ATOM      3  C   UNL     1       2.600   7.067  18.468  0.00  0.00    +0.000 A 
ATOM      4  C   UNL     1       2.123   7.122  19.796  0.00  0.00    +0.000 A 
ATOM      5  C   UNL     1       2.243   5.993  20.617  0.00  0.00    +0.000 A 
ATOM      6  C   UNL     1       2.807   4.829  20.148  0.00  0.00    +0.000 A 
ENDROOT
BRANCH   4   7
ATOM      7  C   UNL     1       1.478   8.324  20.297  0.00  0.00    +0.000 A 
ATOM      8  C   UNL     1       1.112   9.327  19.398  0.00  0.00    +0.000 A 
ATOM      9  C   UNL     1       0.428  10.437  19.829  0.00  0.00    +0.000 A 
ATOM     10  C   UNL     1       0.086  10.615  21.168  0.00  0.00    +0.000 A 
ATOM     11  C   UNL     1       0.469   9.620  22.085  0.00  0.00    +0.000 A 
ATOM     12  C   UNL     1       1.158   8.485  21.655  0.00  0.00    +0.000 A 
BRANCH  10  13
ATOM     13  N   UNL     1      -0.618  11.737  21.564  0.00  0.00    +0.000 N 
ATOM     14  C   UNL     1      -1.133  11.849  22.931  0.00  0.00    +0.000 C 
ATOM     15  C   UNL     1      -2.611  12.166  22.770  0.00  0.00    +0.000 C 
ATOM     16  C   UNL     1      -2.663  12.925  21.455  0.00  0.00    +0.000 C 
ATOM     17  C   UNL     1      -1.578  12.276  20.597  0.00  0.00    +0.000 C 
ENDBRANCH  10  13
ENDBRANCH   4   7
BRANCH   1  18
ATOM     18  S   UNL     1       4.239   3.440  18.356  0.00  0.00    +0.000 S 
ATOM     19  O   UNL     1       3.654   3.120  17.035  0.00  0.00    +0.000 OA
ATOM     20  O   UNL     1       4.238   2.487  19.420  0.00  0.00    +0.000 OA
BRANCH  18  21
ATOM     21  N   UNL     1       5.854   4.076  18.232  0.00  0.00    +0.000 NA
ATOM     22  H   UNL     1       6.421   3.319  17.831  0.00  0.00    +0.000 HD
BRANCH  21  23
ATOM     23  C   UNL     1       6.053   5.462  17.520  0.00  0.00    +0.000 C 
BRANCH  23  25
ATOM     24  C   UNL     1       7.646   7.458  17.683  0.00  0.00    +0.000 C 
ATOM     25  C   UNL     1       6.872   6.388  18.465  0.00  0.00    +0.000 C 
ATOM     26  C   UNL     1       7.875   5.645  19.361  0.00  0.00    +0.000 C 
ENDBRANCH  23  25
BRANCH  23  27
ATOM     27  P   UNL     1       6.830   5.279  15.872  0.00  0.00    +0.000 P 
ATOM     28  O   UNL     1       6.431   3.810  15.707  0.00  0.00    +0.000 OA
BRANCH  27  29
ATOM     29  O   UNL     1       5.595   6.057  15.132  0.00  0.00    +0.000 OA
ATOM     30  H   UNL     1       4.830   5.845  15.728  0.00  0.00    +0.000 HD
ENDBRANCH  27  29
BRANCH  27  31
ATOM     31  O   UNL     1       7.564   5.106  14.316  0.00  0.00    +0.000 OA
ATOM     32  H   UNL     1       7.383   4.196  14.011  0.00  0.00    +0.000 HD
ENDBRANCH  27  31
ENDBRANCH  23  27
ENDBRANCH  21  23
ENDBRANCH  18  21
ENDBRANCH   1  18
TORSDOF 9
ENDMDL
MODEL 8
REMARK VINA RESULT:      -8.4      2.558      4.026
REMARK  Name = 
REMARK  11 active torsions:
REMARK  status: ('A' for Active; 'I' for Inactive)
REMARK    1  A    between atoms: C_1  and  C_2
REMARK    2  A    between atoms: C_2  and  C_3
REMARK    3  A    between atoms: C_2  and  C_4
REMARK    4  A    between atoms: C_4  and  N_5
REMARK    5  A    between atoms: C_4  and  P_26
REMARK    6  A    between atoms: N_5  and  S_6
REMARK    7  A    between atoms: S_6  and  C_9
REMARK    8  A    between atoms: C_12  and  C_13
REMARK    9  A    between atoms: C_16  and  N_17
REMARK   10  A    between atoms: P_26  and  O_28
REMARK   11  A    between atoms: P_26  and  O_29
REMARK                            x       y       z     vdW  Elec       q    Type
REMARK                         _______ _______ _______ _____ _____    ______ ____
ROOT
ATOM      1  C   UNL     1       2.816   7.259  18.917  0.00  0.00    +0.000 A 
ATOM      2  C   UNL     1       2.345   7.085  20.221  0.00  0.00    +0.000 A 
ATOM      3  C   UNL     1       1.396   7.964  20.696  0.00  0.00    +0.000 A 
ATOM      4  C   UNL     1       0.967   9.047  19.895  0.00  0.00    +0.000 A 
ATOM      5  C   UNL     1       1.498   9.202  18.608  0.00  0.00    +0.000 A 
ATOM      6  C   UNL     1       2.437   8.326  18.114  0.00  0.00    +0.000 A 
ENDROOT
BRANCH   4   7
ATOM      7  C   UNL     1       0.014  10.013  20.414  0.00  0.00    +0.000 A 
ATOM      8  C   UNL     1      -0.129  10.156  21.795  0.00  0.00    +0.000 A 
ATOM      9  C   UNL     1      -0.960  11.117  22.316  0.00  0.00    +0.000 A 
ATOM     10  C   UNL     1      -1.697  11.971  21.500  0.00  0.00    +0.000 A 
ATOM     11  C   UNL     1      -1.576  11.821  20.107  0.00  0.00    +0.000 A 
ATOM     12  C   UNL     1      -0.728  10.853  19.568  0.00  0.00    +0.000 A 
BRANCH  10  13
ATOM     13  N   UNL     1      -2.511  12.939  22.059  0.00  0.00    +0.000 N 
ATOM     14  C   UNL     1      -2.944  12.833  23.455  0.00  0.00    +0.000 C 
ATOM     15  C   UNL     1      -4.457  12.963  23.409  0.00  0.00    +0.000 C 
ATOM     16  C   UNL     1      -4.695  13.845  22.194  0.00  0.00    +0.000 C 
ATOM     17  C   UNL     1      -3.596  13.444  21.212  0.00  0.00    +0.000 C 
ENDBRANCH  10  13
ENDBRANCH   4   7
BRANCH   1  18
ATOM     18  S   UNL     1       3.792   6.013  18.184  0.00  0.00    +0.000 S 
ATOM     19  O   UNL     1       4.878   5.853  19.176  0.00  0.00    +0.000 OA
ATOM     20  O   UNL     1       4.068   6.389  16.834  0.00  0.00    +0.000 OA
BRANCH  18  21
ATOM     21  N   UNL     1       2.730   4.635  18.133  0.00  0.00    +0.000 NA
ATOM     22  H   UNL     1       2.881   4.202  17.213  0.00  0.00    +0.000 HD
BRANCH  21  23
ATOM     23  C   UNL     1       2.778   3.617  19.327  0.00  0.00    +0.000 C 
BRANCH  23  25
ATOM     24  C   UNL     1       1.311   2.855  21.281  0.00  0.00    +0.000 C 
ATOM     25  C   UNL     1       1.326   3.399  19.846  0.00  0.00    +0.000 C 
ATOM     26  C   UNL     1       0.482   2.453  18.977  0.00  0.00    +0.000 C 
ENDBRANCH  23  25
BRANCH  23  27
ATOM     27  P   UNL     1       3.596   2.048  18.858  0.00  0.00    +0.000 P 
ATOM     28  O   UNL     1       3.912   2.494  17.427  0.00  0.00    +0.000 OA
BRANCH  27  29
ATOM     29  O   UNL     1       4.968   2.452  19.655  0.00  0.00    +0.000 OA
ATOM     30  H   UNL     1       5.105   3.391  19.369  0.00  0.00    +0.000 HD
ENDBRANCH  27  29
BRANCH  27  31
ATOM     31  O   UNL     1       4.370   0.567  18.414  0.00  0.00    +0.000 OA
ATOM     32  H   UNL     1       5.151   0.799  17.877  0.00  0.00    +0.000 HD
ENDBRANCH  27  31
ENDBRANCH  23  27
ENDBRANCH  21  23
ENDBRANCH  18  21
ENDBRANCH   1  18
TORSDOF 9
ENDMDL
MODEL 9
REMARK VINA RESULT:      -8.3      5.128      9.738
REMARK  Name = 
REMARK  11 active torsions:
REMARK  status: ('A' for Active; 'I' for Inactive)
REMARK    1  A    between atoms: C_1  and  C_2
REMARK    2  A    between atoms: C_2  and  C_3
REMARK    3  A    between atoms: C_2  and  C_4
REMARK    4  A    between atoms: C_4  and  N_5
REMARK    5  A    between atoms: C_4  and  P_26
REMARK    6  A    between atoms: N_5  and  S_6
REMARK    7  A    between atoms: S_6  and  C_9
REMARK    8  A    between atoms: C_12  and  C_13
REMARK    9  A    between atoms: C_16  and  N_17
REMARK   10  A    between atoms: P_26  and  O_28
REMARK   11  A    between atoms: P_26  and  O_29
REMARK                            x       y       z     vdW  Elec       q    Type
REMARK                         _______ _______ _______ _____ _____    ______ ____
ROOT
ATOM      1  C   UNL     1       1.505   8.221  20.196  0.00  0.00    +0.000 A 
ATOM      2  C   UNL     1       1.955   6.934  20.503  0.00  0.00    +0.000 A 
ATOM      3  C   UNL     1       2.785   6.300  19.604  0.00  0.00    +0.000 A 
ATOM      4  C   UNL     1       3.113   6.923  18.379  0.00  0.00    +0.000 A 
ATOM      5  C   UNL     1       2.606   8.199  18.099  0.00  0.00    +0.000 A 
ATOM      6  C   UNL     1       1.786   8.850  18.991  0.00  0.00    +0.000 A 
ENDROOT
BRANCH   4   7
ATOM      7  C   UNL     1       3.936   6.233  17.400  0.00  0.00    +0.000 A 
ATOM      8  C   UNL     1       3.957   4.837  17.389  0.00  0.00    +0.000 A 
ATOM      9  C   UNL     1       4.659   4.156  16.426  0.00  0.00    +0.000 A 
ATOM     10  C   UNL     1       5.384   4.820  15.438  0.00  0.00    +0.000 A 
ATOM     11  C   UNL     1       5.386   6.226  15.454  0.00  0.00    +0.000 A 
ATOM     12  C   UNL     1       4.669   6.927  16.424  0.00  0.00    +0.000 A 
BRANCH  10  13
ATOM     13  N   UNL     1       6.065   4.102  14.473  0.00  0.00    +0.000 N 
ATOM     14  C   UNL     1       7.382   4.546  14.005  0.00  0.00    +0.000 C 
ATOM     15  C   UNL     1       7.260   4.610  12.492  0.00  0.00    +0.000 C 
ATOM     16  C   UNL     1       6.229   3.538  12.178  0.00  0.00    +0.000 C 
ATOM     17  C   UNL     1       5.264   3.583  13.361  0.00  0.00    +0.000 C 
ENDBRANCH  10  13
ENDBRANCH   4   7
BRANCH   1  18
ATOM     18  S   UNL     1       0.697   9.162  21.422  0.00  0.00    +0.000 S 
ATOM     19  O   UNL     1       1.708   9.189  22.502  0.00  0.00    +0.000 OA
ATOM     20  O   UNL     1      -0.603   8.609  21.634  0.00  0.00    +0.000 OA
BRANCH  18  21
ATOM     21  N   UNL     1       0.483  10.718  20.673  0.00  0.00    +0.000 NA
ATOM     22  H   UNL     1       1.058  10.698  19.822  0.00  0.00    +0.000 HD
BRANCH  21  23
ATOM     23  C   UNL     1      -0.981  11.234  20.436  0.00  0.00    +0.000 C 
BRANCH  23  25
ATOM     24  C   UNL     1      -0.123  13.256  21.749  0.00  0.00    +0.000 C 
ATOM     25  C   UNL     1      -1.306  12.307  21.517  0.00  0.00    +0.000 C 
ATOM     26  C   UNL     1      -1.714  11.725  22.879  0.00  0.00    +0.000 C 
ENDBRANCH  23  25
BRANCH  23  27
ATOM     27  P   UNL     1      -1.219  11.861  18.733  0.00  0.00    +0.000 P 
ATOM     28  O   UNL     1      -1.692  10.518  18.170  0.00  0.00    +0.000 OA
BRANCH  27  29
ATOM     29  O   UNL     1      -2.632  12.586  19.129  0.00  0.00    +0.000 OA
ATOM     30  H   UNL     1      -2.857  12.146  19.989  0.00  0.00    +0.000 HD
ENDBRANCH  27  29
BRANCH  27  31
ATOM     31  O   UNL     1      -1.443  12.453  17.124  0.00  0.00    +0.000 OA
ATOM     32  H   UNL     1      -0.845  13.216  17.011  0.00  0.00    +0.000 HD
ENDBRANCH  27  31
ENDBRANCH  23  27
ENDBRANCH  21  23
ENDBRANCH  18  21
ENDBRANCH   1  18
TORSDOF 9
ENDMDL
