MODEL 1
REMARK VINA RESULT:      -7.3      0.000      0.000
REMARK  Name = 
REMARK  5 active torsions:
REMARK  status: ('A' for Active; 'I' for Inactive)
REMARK    1  A    between atoms: C_4  and  O_5
REMARK    2  A    between atoms: O_5  and  C_6
REMARK    3  A    between atoms: C_6  and  C_7
REMARK    4  A    between atoms: C_7  and  N_8
REMARK    5  A    between atoms: N_11  and  C_12
REMARK                            x       y       z     vdW  Elec       q    Type
REMARK                         _______ _______ _______ _____ _____    ______ ____
ROOT
ATOM      1  N   UNL     1       7.369   6.380  17.247  0.00  0.00    +0.000 NA
ATOM      2  C   UNL     1       7.200   5.581  18.490  0.00  0.00    +0.000 C 
ATOM      3  C   UNL     1       5.764   5.658  19.043  0.00  0.00    +0.000 C 
ATOM      4  N   UNL     1       4.806   5.347  17.983  0.00  0.00    +0.000 N 
ATOM      5  C   UNL     1       4.938   6.120  16.757  0.00  0.00    +0.000 C 
ATOM      6  C   UNL     1       6.375   5.949  16.239  0.00  0.00    +0.000 C 
ENDROOT
BRANCH   4   7
ATOM      7  C   UNL     1       3.813   4.309  18.086  0.00  0.00    +0.000 A 
ATOM      8  C   UNL     1       2.438   4.642  18.076  0.00  0.00    +0.000 A 
ATOM      9  C   UNL     1       1.457   3.656  18.147  0.00  0.00    +0.000 A 
ATOM     10  C   UNL     1       1.822   2.315  18.229  0.00  0.00    +0.000 A 
ATOM     11  C   UNL     1       3.173   1.960  18.253  0.00  0.00    +0.000 A 
ATOM     12  C   UNL     1       4.165   2.948  18.192  0.00  0.00    +0.000 A 
ENDBRANCH   4   7
BRANCH   1  13
ATOM     13  C   UNL     1       7.320   7.855  17.410  0.00  0.00    +0.000 C 
BRANCH  13  14
ATOM     14  C   UNL     1       8.424   8.425  18.289  0.00  0.00    +0.000 C 
BRANCH  14  15
ATOM     15  O   UNL     1       8.756   9.709  17.906  0.00  0.00    +0.000 OA
BRANCH  15  19
ATOM     16  C   UNL     1      10.997  12.393  20.173  0.00  0.00    +0.000 A 
ATOM     17  C   UNL     1      10.064  11.573  20.811  0.00  0.00    +0.000 A 
ATOM     18  C   UNL     1       9.308  10.666  20.069  0.00  0.00    +0.000 A 
ATOM     19  C   UNL     1       9.480  10.570  18.668  0.00  0.00    +0.000 A 
ATOM     20  C   UNL     1      10.419  11.399  18.041  0.00  0.00    +0.000 A 
ATOM     21  C   UNL     1      11.176  12.305  18.792  0.00  0.00    +0.000 A 
ENDBRANCH  15  19
ENDBRANCH  14  15
ENDBRANCH  13  14
ENDBRANCH   1  13
TORSDOF 5
ENDMDL
MODEL 2
REMARK VINA RESULT:      -7.2      0.655      1.134
REMARK  Name = 
REMARK  5 active torsions:
REMARK  status: ('A' for Active; 'I' for Inactive)
REMARK    1  A    between atoms: C_4  and  O_5
REMARK    2  A    between atoms: O_5  and  C_6
REMARK    3  A    between atoms: C_6  and  C_7
REMARK    4  A    between atoms: C_7  and  N_8
REMARK    5  A    between atoms: N_11  and  C_12
REMARK                            x       y       z     vdW  Elec       q    Type
REMARK                         _______ _______ _______ _____ _____    ______ ____
ROOT
ATOM      1  N   UNL     1       7.485   5.909  17.586  0.00  0.00    +0.000 NA
ATOM      2  C   UNL     1       6.950   5.567  18.931  0.00  0.00    +0.000 C 
ATOM      3  C   UNL     1       5.428   5.791  19.026  0.00  0.00    +0.000 C 
ATOM      4  N   UNL     1       4.756   5.120  17.915  0.00  0.00    +0.000 N 
ATOM      5  C   UNL     1       5.251   5.441  16.584  0.00  0.00    +0.000 C 
ATOM      6  C   UNL     1       6.758   5.140  16.551  0.00  0.00    +0.000 C 
ENDROOT
BRANCH   4   7
ATOM      7  C   UNL     1       3.704   4.152  18.086  0.00  0.00    +0.000 A 
ATOM      8  C   UNL     1       2.357   4.577  18.153  0.00  0.00    +0.000 A 
ATOM      9  C   UNL     1       1.318   3.660  18.291  0.00  0.00    +0.000 A 
ATOM     10  C   UNL     1       1.596   2.298  18.367  0.00  0.00    +0.000 A 
ATOM     11  C   UNL     1       2.919   1.853  18.317  0.00  0.00    +0.000 A 
ATOM     12  C   UNL     1       3.970   2.771  18.187  0.00  0.00    +0.000 A 
ENDBRANCH   4   7
BRANCH   1  13
ATOM     13  C   UNL     1       7.495   7.351  17.236  0.00  0.00    +0.000 C 
BRANCH  13  14
ATOM     14  C   UNL     1       8.271   8.227  18.208  0.00  0.00    +0.000 C 
BRANCH  14  15
ATOM     15  O   UNL     1       8.173   9.561  17.868  0.00  0.00    +0.000 OA
BRANCH  15  19
ATOM     16  C   UNL     1      10.368  12.556  19.760  0.00  0.00    +0.000 A 
ATOM     17  C   UNL     1       9.823  12.802  18.499  0.00  0.00    +0.000 A 
ATOM     18  C   UNL     1       9.082  11.813  17.852  0.00  0.00    +0.000 A 
ATOM     19  C   UNL     1       8.878  10.556  18.467  0.00  0.00    +0.000 A 
ATOM     20  C   UNL     1       9.431  10.322  19.733  0.00  0.00    +0.000 A 
ATOM     21  C   UNL     1      10.172  11.320  20.376  0.00  0.00    +0.000 A 
ENDBRANCH  15  19
ENDBRANCH  14  15
ENDBRANCH  13  14
ENDBRANCH   1  13
TORSDOF 5
ENDMDL
MODEL 3
REMARK VINA RESULT:      -7.0      4.575      6.610
REMARK  Name = 
REMARK  5 active torsions:
REMARK  status: ('A' for Active; 'I' for Inactive)
REMARK    1  A    between atoms: C_4  and  O_5
REMARK    2  A    between atoms: O_5  and  C_6
REMARK    3  A    between atoms: C_6  and  C_7
REMARK    4  A    between atoms: C_7  and  N_8
REMARK    5  A    between atoms: N_11  and  C_12
REMARK                            x       y       z     vdW  Elec       q    Type
REMARK                         _______ _______ _______ _____ _____    ______ ____
ROOT
ATOM      1  N   UNL     1       5.775   4.355  18.688  0.00  0.00    +0.000 NA
ATOM      2  C   UNL     1       4.902   3.651  17.711  0.00  0.00    +0.000 C 
ATOM      3  C   UNL     1       4.668   4.481  16.434  0.00  0.00    +0.000 C 
ATOM      4  N   UNL     1       5.949   4.932  15.892  0.00  0.00    +0.000 N 
ATOM      5  C   UNL     1       6.823   5.634  16.821  0.00  0.00    +0.000 C 
ATOM      6  C   UNL     1       7.053   4.723  18.039  0.00  0.00    +0.000 C 
ENDROOT
BRANCH   4   7
ATOM      7  C   UNL     1       6.382   4.669  14.544  0.00  0.00    +0.000 A 
ATOM      8  C   UNL     1       5.680   3.738  13.745  0.00  0.00    +0.000 A 
ATOM      9  C   UNL     1       6.061   3.484  12.430  0.00  0.00    +0.000 A 
ATOM     10  C   UNL     1       7.151   4.154  11.879  0.00  0.00    +0.000 A 
ATOM     11  C   UNL     1       7.869   5.070  12.651  0.00  0.00    +0.000 A 
ATOM     12  C   UNL     1       7.497   5.322  13.978  0.00  0.00    +0.000 A 
ENDBRANCH   4   7
BRANCH   1  13
ATOM     13  C   UNL     1       5.183   5.542  19.354  0.00  0.00    +0.000 C 
BRANCH  13  14
ATOM     14  C   UNL     1       3.674   5.470  19.538  0.00  0.00    +0.000 C 
BRANCH  14  15
ATOM     15  O   UNL     1       3.021   6.292  18.642  0.00  0.00    +0.000 OA
BRANCH  15  19
ATOM     16  C   UNL     1       0.842   9.700  19.644  0.00  0.00    +0.000 A 
ATOM     17  C   UNL     1       1.126   8.757  20.632  0.00  0.00    +0.000 A 
ATOM     18  C   UNL     1       1.858   7.612  20.317  0.00  0.00    +0.000 A 
ATOM     19  C   UNL     1       2.316   7.399  18.995  0.00  0.00    +0.000 A 
ATOM     20  C   UNL     1       2.022   8.353  18.013  0.00  0.00    +0.000 A 
ATOM     21  C   UNL     1       1.290   9.501  18.338  0.00  0.00    +0.000 A 
ENDBRANCH  15  19
ENDBRANCH  14  15
ENDBRANCH  13  14
ENDBRANCH   1  13
TORSDOF 5
ENDMDL
MODEL 4
REMARK VINA RESULT:      -7.0      0.957      1.551
REMARK  Name = 
REMARK  5 active torsions:
REMARK  status: ('A' for Active; 'I' for Inactive)
REMARK    1  A    between atoms: C_4  and  O_5
REMARK    2  A    between atoms: O_5  and  C_6
REMARK    3  A    between atoms: C_6  and  C_7
REMARK    4  A    between atoms: C_7  and  N_8
REMARK    5  A    between atoms: N_11  and  C_12
REMARK                            x       y       z     vdW  Elec       q    Type
REMARK                         _______ _______ _______ _____ _____    ______ ____
ROOT
ATOM      1  N   UNL     1       7.695   6.498  17.339  0.00  0.00    +0.000 NA
ATOM      2  C   UNL     1       7.577   5.784  18.638  0.00  0.00    +0.000 C 
ATOM      3  C   UNL     1       6.122   5.734  19.146  0.00  0.00    +0.000 C 
ATOM      4  N   UNL     1       5.245   5.230  18.091  0.00  0.00    +0.000 N 
ATOM      5  C   UNL     1       5.330   5.914  16.809  0.00  0.00    +0.000 C 
ATOM      6  C   UNL     1       6.794   5.874  16.344  0.00  0.00    +0.000 C 
ENDROOT
BRANCH   4   7
ATOM      7  C   UNL     1       4.376   4.093  18.252  0.00  0.00    +0.000 A 
ATOM      8  C   UNL     1       4.494   3.269  19.395  0.00  0.00    +0.000 A 
ATOM      9  C   UNL     1       3.649   2.179  19.589  0.00  0.00    +0.000 A 
ATOM     10  C   UNL     1       2.666   1.884  18.648  0.00  0.00    +0.000 A 
ATOM     11  C   UNL     1       2.536   2.674  17.504  0.00  0.00    +0.000 A 
ATOM     12  C   UNL     1       3.390   3.767  17.298  0.00  0.00    +0.000 A 
ENDBRANCH   4   7
BRANCH   1  13
ATOM     13  C   UNL     1       7.470   7.965  17.379  0.00  0.00    +0.000 C 
BRANCH  13  14
ATOM     14  C   UNL     1       8.440   8.724  18.273  0.00  0.00    +0.000 C 
BRANCH  14  15
ATOM     15  O   UNL     1       8.143  10.071  18.303  0.00  0.00    +0.000 OA
BRANCH  15  19
ATOM     16  C   UNL     1      11.062  13.042  18.440  0.00  0.00    +0.000 A 
ATOM     17  C   UNL     1       9.891  13.269  17.716  0.00  0.00    +0.000 A 
ATOM     18  C   UNL     1       8.901  12.288  17.662  0.00  0.00    +0.000 A 
ATOM     19  C   UNL     1       9.076  11.058  18.339  0.00  0.00    +0.000 A 
ATOM     20  C   UNL     1      10.256  10.844  19.062  0.00  0.00    +0.000 A 
ATOM     21  C   UNL     1      11.244  11.834  19.114  0.00  0.00    +0.000 A 
ENDBRANCH  15  19
ENDBRANCH  14  15
ENDBRANCH  13  14
ENDBRANCH   1  13
TORSDOF 5
ENDMDL
MODEL 5
REMARK VINA RESULT:      -7.0      4.529      7.680
REMARK  Name = 
REMARK  5 active torsions:
REMARK  status: ('A' for Active; 'I' for Inactive)
REMARK    1  A    between atoms: C_4  and  O_5
REMARK    2  A    between atoms: O_5  and  C_6
REMARK    3  A    between atoms: C_6  and  C_7
REMARK    4  A    between atoms: C_7  and  N_8
REMARK    5  A    between atoms: N_11  and  C_12
REMARK                            x       y       z     vdW  Elec       q    Type
REMARK                         _______ _______ _______ _____ _____    ______ ____
ROOT
ATOM      1  N   UNL     1       5.785   4.360  18.551  0.00  0.00    +0.000 NA
ATOM      2  C   UNL     1       4.817   3.761  17.595  0.00  0.00    +0.000 C 
ATOM      3  C   UNL     1       4.647   4.616  16.324  0.00  0.00    +0.000 C 
ATOM      4  N   UNL     1       5.957   4.924  15.753  0.00  0.00    +0.000 N 
ATOM      5  C   UNL     1       6.924   5.521  16.661  0.00  0.00    +0.000 C 
ATOM      6  C   UNL     1       7.081   4.587  17.872  0.00  0.00    +0.000 C 
ENDROOT
BRANCH   4   7
ATOM      7  C   UNL     1       6.326   4.619  14.394  0.00  0.00    +0.000 A 
ATOM      8  C   UNL     1       7.425   5.276  13.796  0.00  0.00    +0.000 A 
ATOM      9  C   UNL     1       7.819   4.982  12.493  0.00  0.00    +0.000 A 
ATOM     10  C   UNL     1       7.127   4.024  11.756  0.00  0.00    +0.000 A 
ATOM     11  C   UNL     1       6.030   3.369  12.319  0.00  0.00    +0.000 A 
ATOM     12  C   UNL     1       5.622   3.668  13.626  0.00  0.00    +0.000 A 
ENDBRANCH   4   7
BRANCH   1  13
ATOM     13  C   UNL     1       5.344   5.603  19.231  0.00  0.00    +0.000 C 
BRANCH  13  14
ATOM     14  C   UNL     1       3.993   6.128  18.765  0.00  0.00    +0.000 C 
BRANCH  14  15
ATOM     15  O   UNL     1       3.051   6.047  19.771  0.00  0.00    +0.000 OA
BRANCH  15  19
ATOM     16  C   UNL     1       1.060   2.527  20.775  0.00  0.00    +0.000 A 
ATOM     17  C   UNL     1       1.939   3.100  21.695  0.00  0.00    +0.000 A 
ATOM     18  C   UNL     1       2.612   4.280  21.378  0.00  0.00    +0.000 A 
ATOM     19  C   UNL     1       2.408   4.904  20.125  0.00  0.00    +0.000 A 
ATOM     20  C   UNL     1       1.523   4.318  19.210  0.00  0.00    +0.000 A 
ATOM     21  C   UNL     1       0.851   3.134  19.536  0.00  0.00    +0.000 A 
ENDBRANCH  15  19
ENDBRANCH  14  15
ENDBRANCH  13  14
ENDBRANCH   1  13
TORSDOF 5
ENDMDL
MODEL 6
REMARK VINA RESULT:      -7.0      1.350      2.039
REMARK  Name = 
REMARK  5 active torsions:
REMARK  status: ('A' for Active; 'I' for Inactive)
REMARK    1  A    between atoms: C_4  and  O_5
REMARK    2  A    between atoms: O_5  and  C_6
REMARK    3  A    between atoms: C_6  and  C_7
REMARK    4  A    between atoms: C_7  and  N_8
REMARK    5  A    between atoms: N_11  and  C_12
REMARK                            x       y       z     vdW  Elec       q    Type
REMARK                         _______ _______ _______ _____ _____    ______ ____
ROOT
ATOM      1  N   UNL     1       6.137   6.145  16.901  0.00  0.00    +0.000 NA
ATOM      2  C   UNL     1       5.971   4.670  16.815  0.00  0.00    +0.000 C 
ATOM      3  C   UNL     1       5.506   4.057  18.150  0.00  0.00    +0.000 C 
ATOM      4  N   UNL     1       4.332   4.775  18.645  0.00  0.00    +0.000 N 
ATOM      5  C   UNL     1       4.467   6.220  18.751  0.00  0.00    +0.000 C 
ATOM      6  C   UNL     1       4.877   6.762  17.372  0.00  0.00    +0.000 C 
ENDROOT
BRANCH   4   7
ATOM      7  C   UNL     1       3.083   4.135  18.966  0.00  0.00    +0.000 A 
ATOM      8  C   UNL     1       2.744   2.902  18.362  0.00  0.00    +0.000 A 
ATOM      9  C   UNL     1       1.554   2.249  18.675  0.00  0.00    +0.000 A 
ATOM     10  C   UNL     1       0.673   2.809  19.596  0.00  0.00    +0.000 A 
ATOM     11  C   UNL     1       0.978   4.032  20.198  0.00  0.00    +0.000 A 
ATOM     12  C   UNL     1       2.169   4.699  19.880  0.00  0.00    +0.000 A 
ENDBRANCH   4   7
BRANCH   1  13
ATOM     13  C   UNL     1       7.276   6.626  17.724  0.00  0.00    +0.000 C 
BRANCH  13  14
ATOM     14  C   UNL     1       7.664   8.075  17.472  0.00  0.00    +0.000 C 
BRANCH  14  15
ATOM     15  O   UNL     1       8.430   8.575  18.506  0.00  0.00    +0.000 OA
BRANCH  15  19
ATOM     16  C   UNL     1       9.596  12.553  18.933  0.00  0.00    +0.000 A 
ATOM     17  C   UNL     1       8.835  12.181  17.824  0.00  0.00    +0.000 A 
ATOM     18  C   UNL     1       8.433  10.855  17.666  0.00  0.00    +0.000 A 
ATOM     19  C   UNL     1       8.791   9.880  18.627  0.00  0.00    +0.000 A 
ATOM     20  C   UNL     1       9.556  10.267  19.735  0.00  0.00    +0.000 A 
ATOM     21  C   UNL     1       9.954  11.600  19.887  0.00  0.00    +0.000 A 
ENDBRANCH  15  19
ENDBRANCH  14  15
ENDBRANCH  13  14
ENDBRANCH   1  13
TORSDOF 5
ENDMDL
MODEL 7
REMARK VINA RESULT:      -6.9      4.243      7.829
REMARK  Name = 
REMARK  5 active torsions:
REMARK  status: ('A' for Active; 'I' for Inactive)
REMARK    1  A    between atoms: C_4  and  O_5
REMARK    2  A    between atoms: O_5  and  C_6
REMARK    3  A    between atoms: C_6  and  C_7
REMARK    4  A    between atoms: C_7  and  N_8
REMARK    5  A    between atoms: N_11  and  C_12
REMARK                            x       y       z     vdW  Elec       q    Type
REMARK                         _______ _______ _______ _____ _____    ______ ____
ROOT
ATOM      1  N   UNL     1       5.859   6.343  18.082  0.00  0.00    +0.000 NA
ATOM      2  C   UNL     1       7.158   5.710  17.734  0.00  0.00    +0.000 C 
ATOM      3  C   UNL     1       6.980   4.465  16.843  0.00  0.00    +0.000 C 
ATOM      4  N   UNL     1       6.135   4.792  15.696  0.00  0.00    +0.000 N 
ATOM      5  C   UNL     1       4.851   5.404  16.004  0.00  0.00    +0.000 C 
ATOM      6  C   UNL     1       5.114   6.664  16.844  0.00  0.00    +0.000 C 
ENDROOT
BRANCH   4   7
ATOM      7  C   UNL     1       6.534   4.588  14.327  0.00  0.00    +0.000 A 
ATOM      8  C   UNL     1       5.877   3.617  13.536  0.00  0.00    +0.000 A 
ATOM      9  C   UNL     1       6.225   3.418  12.203  0.00  0.00    +0.000 A 
ATOM     10  C   UNL     1       7.236   4.181  11.625  0.00  0.00    +0.000 A 
ATOM     11  C   UNL     1       7.909   5.138  12.387  0.00  0.00    +0.000 A 
ATOM     12  C   UNL     1       7.571   5.337  13.733  0.00  0.00    +0.000 A 
ENDBRANCH   4   7
BRANCH   1  13
ATOM     13  C   UNL     1       4.991   5.580  19.014  0.00  0.00    +0.000 C 
BRANCH  13  14
ATOM     14  C   UNL     1       3.760   6.339  19.487  0.00  0.00    +0.000 C 
BRANCH  14  15
ATOM     15  O   UNL     1       2.615   5.863  18.881  0.00  0.00    +0.000 OA
BRANCH  15  19
ATOM     16  C   UNL     1       0.869   2.170  19.706  0.00  0.00    +0.000 A 
ATOM     17  C   UNL     1       1.045   3.089  20.742  0.00  0.00    +0.000 A 
ATOM     18  C   UNL     1       1.624   4.331  20.484  0.00  0.00    +0.000 A 
ATOM     19  C   UNL     1       2.036   4.669  19.174  0.00  0.00    +0.000 A 
ATOM     20  C   UNL     1       1.854   3.737  18.144  0.00  0.00    +0.000 A 
ATOM     21  C   UNL     1       1.271   2.493  18.410  0.00  0.00    +0.000 A 
ENDBRANCH  15  19
ENDBRANCH  14  15
ENDBRANCH  13  14
ENDBRANCH   1  13
TORSDOF 5
ENDMDL
MODEL 8
REMARK VINA RESULT:      -6.9      4.629      7.260
REMARK  Name = 
REMARK  5 active torsions:
REMARK  status: ('A' for Active; 'I' for Inactive)
REMARK    1  A    between atoms: C_4  and  O_5
REMARK    2  A    between atoms: O_5  and  C_6
REMARK    3  A    between atoms: C_6  and  C_7
REMARK    4  A    between atoms: C_7  and  N_8
REMARK    5  A    between atoms: N_11  and  C_12
REMARK                            x       y       z     vdW  Elec       q    Type
REMARK                         _______ _______ _______ _____ _____    ______ ____
ROOT
ATOM      1  N   UNL     1       6.066   5.702  16.738  0.00  0.00    +0.000 NA
ATOM      2  C   UNL     1       5.021   6.543  17.380  0.00  0.00    +0.000 C 
ATOM      3  C   UNL     1       3.650   5.840  17.418  0.00  0.00    +0.000 C 
ATOM      4  N   UNL     1       3.792   4.503  17.991  0.00  0.00    +0.000 N 
ATOM      5  C   UNL     1       4.801   3.651  17.378  0.00  0.00    +0.000 C 
ATOM      6  C   UNL     1       6.146   4.394  17.427  0.00  0.00    +0.000 C 
ENDROOT
BRANCH   4   7
ATOM      7  C   UNL     1       3.040   4.037  19.127  0.00  0.00    +0.000 A 
ATOM      8  C   UNL     1       1.730   4.519  19.354  0.00  0.00    +0.000 A 
ATOM      9  C   UNL     1       0.971   4.066  20.430  0.00  0.00    +0.000 A 
ATOM     10  C   UNL     1       1.499   3.121  21.306  0.00  0.00    +0.000 A 
ATOM     11  C   UNL     1       2.795   2.638  21.112  0.00  0.00    +0.000 A 
ATOM     12  C   UNL     1       3.568   3.097  20.037  0.00  0.00    +0.000 A 
ENDBRANCH   4   7
BRANCH   1  13
ATOM     13  C   UNL     1       5.930   5.498  15.274  0.00  0.00    +0.000 C 
BRANCH  13  14
ATOM     14  C   UNL     1       7.082   4.734  14.638  0.00  0.00    +0.000 C 
BRANCH  14  15
ATOM     15  O   UNL     1       7.008   4.773  13.261  0.00  0.00    +0.000 OA
BRANCH  15  19
ATOM     16  C   UNL     1       5.695   1.594  10.908  0.00  0.00    +0.000 A 
ATOM     17  C   UNL     1       4.756   2.460  11.471  0.00  0.00    +0.000 A 
ATOM     18  C   UNL     1       5.177   3.532  12.258  0.00  0.00    +0.000 A 
ATOM     19  C   UNL     1       6.556   3.749  12.491  0.00  0.00    +0.000 A 
ATOM     20  C   UNL     1       7.487   2.872  11.920  0.00  0.00    +0.000 A 
ATOM     21  C   UNL     1       7.057   1.800  11.130  0.00  0.00    +0.000 A 
ENDBRANCH  15  19
ENDBRANCH  14  15
ENDBRANCH  13  14
ENDBRANCH   1  13
TORSDOF 5
ENDMDL
MODEL 9
REMARK VINA RESULT:      -6.9      1.027      1.498
REMARK  Name = 
REMARK  5 active torsions:
REMARK  status: ('A' for Active; 'I' for Inactive)
REMARK    1  A    between atoms: C_4  and  O_5
REMARK    2  A    between atoms: O_5  and  C_6
REMARK    3  A    between atoms: C_6  and  C_7
REMARK    4  A    between atoms: C_7  and  N_8
REMARK    5  A    between atoms: N_11  and  C_12
REMARK                            x       y       z     vdW  Elec       q    Type
REMARK                         _______ _______ _______ _____ _____    ______ ____
ROOT
ATOM      1  N   UNL     1       6.688   6.672  16.850  0.00  0.00    +0.000 NA
ATOM      2  C   UNL     1       6.724   5.202  16.634  0.00  0.00    +0.000 C 
ATOM      3  C   UNL     1       6.205   4.420  17.856  0.00  0.00    +0.000 C 
ATOM      4  N   UNL     1       4.903   4.944  18.265  0.00  0.00    +0.000 N 
ATOM      5  C   UNL     1       4.838   6.380  18.495  0.00  0.00    +0.000 C 
ATOM      6  C   UNL     1       5.316   7.088  17.217  0.00  0.00    +0.000 C 
ENDROOT
BRANCH   4   7
ATOM      7  C   UNL     1       3.721   4.132  18.392  0.00  0.00    +0.000 A 
ATOM      8  C   UNL     1       2.786   4.398  19.419  0.00  0.00    +0.000 A 
ATOM      9  C   UNL     1       1.622   3.645  19.547  0.00  0.00    +0.000 A 
ATOM     10  C   UNL     1       1.361   2.609  18.654  0.00  0.00    +0.000 A 
ATOM     11  C   UNL     1       2.273   2.317  17.639  0.00  0.00    +0.000 A 
ATOM     12  C   UNL     1       3.452   3.064  17.510  0.00  0.00    +0.000 A 
ENDBRANCH   4   7
BRANCH   1  13
ATOM     13  C   UNL     1       7.662   7.211  17.831  0.00  0.00    +0.000 C 
BRANCH  13  14
ATOM     14  C   UNL     1       7.999   8.682  17.638  0.00  0.00    +0.000 C 
BRANCH  14  15
ATOM     15  O   UNL     1       8.561   9.221  18.778  0.00  0.00    +0.000 OA
BRANCH  15  19
ATOM     16  C   UNL     1      10.421  12.943  19.006  0.00  0.00    +0.000 A 
ATOM     17  C   UNL     1       9.570  12.670  17.934  0.00  0.00    +0.000 A 
ATOM     18  C   UNL     1       8.936  11.431  17.843  0.00  0.00    +0.000 A 
ATOM     19  C   UNL     1       9.149  10.444  18.834  0.00  0.00    +0.000 A 
ATOM     20  C   UNL     1      10.007  10.732  19.904  0.00  0.00    +0.000 A 
ATOM     21  C   UNL     1      10.638  11.977  19.989  0.00  0.00    +0.000 A 
ENDBRANCH  15  19
ENDBRANCH  14  15
ENDBRANCH  13  14
ENDBRANCH   1  13
TORSDOF 5
ENDMDL
