MODEL 1
REMARK VINA RESULT:      -7.7      0.000      0.000
REMARK  Name = 
REMARK  10 active torsions:
REMARK  status: ('A' for Active; 'I' for Inactive)
REMARK    1  A    between atoms: C_1  and  C_2
REMARK    2  A    between atoms: C_2  and  C_3
REMARK    3  A    between atoms: C_3  and  C_4
REMARK    4  A    between atoms: C_4  and  O_5
REMARK    5  A    between atoms: O_5  and  C_6
REMARK    6  A    between atoms: C_18  and  C_19
REMARK    7  A    between atoms: N_22  and  C_23
REMARK    8  A    between atoms: C_23  and  C_24
REMARK    9  A    between atoms: C_24  and  C_25
REMARK   10  A    between atoms: C_25  and  C_26
REMARK                            x       y       z     vdW  Elec       q    Type
REMARK                         _______ _______ _______ _____ _____    ______ ____
ROOT
ATOM      1  C   UNL     1      -1.054  10.905  21.148  0.00  0.00    +0.000 A 
ATOM      2  C   UNL     1      -0.755   9.844  21.996  0.00  0.00    +0.000 A 
ATOM      3  C   UNL     1       0.228   8.919  21.650  0.00  0.00    +0.000 A 
ATOM      4  C   UNL     1       0.926   9.014  20.437  0.00  0.00    +0.000 A 
ATOM      5  C   UNL     1       0.654  10.113  19.598  0.00  0.00    +0.000 A 
ATOM      6  C   UNL     1      -0.345  11.037  19.957  0.00  0.00    +0.000 A 
ATOM      7  C   UNL     1       1.361  10.309  18.284  0.00  0.00    +0.000 C 
ATOM      8  C   UNL     1       2.621   9.459  18.145  0.00  0.00    +0.000 C 
ATOM      9  C   UNL     1       2.323   8.012  18.566  0.00  0.00    +0.000 C 
ATOM     10  C   UNL     1       2.004   8.000  20.083  0.00  0.00    +0.000 C 
ATOM     11  C   UNL     1       1.677   6.566  20.543  0.00  0.00    +0.000 C 
ATOM     12  C   UNL     1       2.786   5.584  20.184  0.00  0.00    +0.000 C 
ATOM     13  C   UNL     1       3.149   5.588  18.686  0.00  0.00    +0.000 C 
ATOM     14  C   UNL     1       2.011   4.923  17.880  0.00  0.00    +0.000 C 
ATOM     15  C   UNL     1       4.412   4.743  18.493  0.00  0.00    +0.000 C 
ATOM     16  O   UNL     1       4.678   3.828  19.274  0.00  0.00    +0.000 OA
ATOM     17  N   UNL     1       5.169   5.005  17.353  0.00  0.00    +0.000 N 
ATOM     18  C   UNL     1       4.864   5.970  16.397  0.00  0.00    +0.000 C 
ATOM     19  O   UNL     1       5.362   5.983  15.269  0.00  0.00    +0.000 OA
ATOM     20  C   UNL     1       3.846   7.027  16.759  0.00  0.00    +0.000 C 
ATOM     21  C   UNL     1       3.476   7.030  18.241  0.00  0.00    +0.000 C 
ENDROOT
BRANCH   1  22
ATOM     22  O   UNL     1      -2.004  11.863  21.382  0.00  0.00    +0.000 OA
BRANCH  22  23
ATOM     23  C   UNL     1      -2.172  12.239  22.749  0.00  0.00    +0.000 C 
BRANCH  23  24
ATOM     24  C   UNL     1      -1.112  13.268  23.113  0.00  0.00    +0.000 C 
BRANCH  24  26
ATOM     25  C   UNL     1      -2.971  14.246  24.492  0.00  0.00    +0.000 C 
ATOM     26  C   UNL     1      -1.763  14.549  23.626  0.00  0.00    +0.000 C 
ENDBRANCH  24  26
ENDBRANCH  23  24
ENDBRANCH  22  23
ENDBRANCH   1  22
BRANCH  17  27
ATOM     27  C   UNL     1       6.285   4.106  17.064  0.00  0.00    +0.000 C 
BRANCH  27  28
ATOM     28  C   UNL     1       7.662   4.659  17.454  0.00  0.00    +0.000 C 
BRANCH  28  29
ATOM     29  C   UNL     1       7.639   5.631  18.635  0.00  0.00    +0.000 C 
ATOM     30  C   UNL     1       7.904   7.050  18.149  0.00  0.00    +0.000 C 
ENDBRANCH  28  29
ENDBRANCH  27  28
ENDBRANCH  17  27
TORSDOF 7
ENDMDL
MODEL 2
REMARK VINA RESULT:      -7.3      0.945      1.201
REMARK  Name = 
REMARK  10 active torsions:
REMARK  status: ('A' for Active; 'I' for Inactive)
REMARK    1  A    between atoms: C_1  and  C_2
REMARK    2  A    between atoms: C_2  and  C_3
REMARK    3  A    between atoms: C_3  and  C_4
REMARK    4  A    between atoms: C_4  and  O_5
REMARK    5  A    between atoms: O_5  and  C_6
REMARK    6  A    between atoms: C_18  and  C_19
REMARK    7  A    between atoms: N_22  and  C_23
REMARK    8  A    between atoms: C_23  and  C_24
REMARK    9  A    between atoms: C_24  and  C_25
REMARK   10  A    between atoms: C_25  and  C_26
REMARK                            x       y       z     vdW  Elec       q    Type
REMARK                         _______ _______ _______ _____ _____    ______ ____
ROOT
ATOM      1  C   UNL     1      -0.984  10.723  21.493  0.00  0.00    +0.000 A 
ATOM      2  C   UNL     1      -0.681   9.613  22.275  0.00  0.00    +0.000 A 
ATOM      3  C   UNL     1       0.281   8.696  21.856  0.00  0.00    +0.000 A 
ATOM      4  C   UNL     1       0.954   8.849  20.634  0.00  0.00    +0.000 A 
ATOM      5  C   UNL     1       0.678   9.995  19.864  0.00  0.00    +0.000 A 
ATOM      6  C   UNL     1      -0.300  10.911  20.294  0.00  0.00    +0.000 A 
ATOM      7  C   UNL     1       1.360  10.254  18.546  0.00  0.00    +0.000 C 
ATOM      8  C   UNL     1       2.604   9.397  18.333  0.00  0.00    +0.000 C 
ATOM      9  C   UNL     1       2.296   7.934  18.680  0.00  0.00    +0.000 C 
ATOM     10  C   UNL     1       2.010   7.842  20.202  0.00  0.00    +0.000 C 
ATOM     11  C   UNL     1       1.673   6.389  20.589  0.00  0.00    +0.000 C 
ATOM     12  C   UNL     1       2.761   5.415  20.153  0.00  0.00    +0.000 C 
ATOM     13  C   UNL     1       3.091   5.497  18.649  0.00  0.00    +0.000 C 
ATOM     14  C   UNL     1       1.926   4.891  17.834  0.00  0.00    +0.000 C 
ATOM     15  C   UNL     1       4.337   4.648  18.382  0.00  0.00    +0.000 C 
ATOM     16  O   UNL     1       4.608   3.687  19.106  0.00  0.00    +0.000 OA
ATOM     17  N   UNL     1       5.072   4.963  17.241  0.00  0.00    +0.000 N 
ATOM     18  C   UNL     1       4.760   5.982  16.346  0.00  0.00    +0.000 C 
ATOM     19  O   UNL     1       5.234   6.051  15.209  0.00  0.00    +0.000 OA
ATOM     20  C   UNL     1       3.765   7.030  16.789  0.00  0.00    +0.000 C 
ATOM     21  C   UNL     1       3.428   6.957  18.276  0.00  0.00    +0.000 C 
ENDROOT
BRANCH   1  22
ATOM     22  O   UNL     1      -1.916  11.678  21.800  0.00  0.00    +0.000 OA
BRANCH  22  23
ATOM     23  C   UNL     1      -1.393  12.980  22.063  0.00  0.00    +0.000 C 
BRANCH  23  24
ATOM     24  C   UNL     1      -2.159  13.999  21.230  0.00  0.00    +0.000 C 
BRANCH  24  26
ATOM     25  C   UNL     1       0.248  14.520  20.732  0.00  0.00    +0.000 C 
ATOM     26  C   UNL     1      -1.194  14.931  20.504  0.00  0.00    +0.000 C 
ENDBRANCH  24  26
ENDBRANCH  23  24
ENDBRANCH  22  23
ENDBRANCH   1  22
BRANCH  17  27
ATOM     27  C   UNL     1       6.170   4.066  16.878  0.00  0.00    +0.000 C 
BRANCH  27  28
ATOM     28  C   UNL     1       7.569   4.636  17.148  0.00  0.00    +0.000 C 
BRANCH  28  29
ATOM     29  C   UNL     1       7.727   5.295  18.519  0.00  0.00    +0.000 C 
ATOM     30  C   UNL     1       7.826   6.808  18.363  0.00  0.00    +0.000 C 
ENDBRANCH  28  29
ENDBRANCH  27  28
ENDBRANCH  17  27
TORSDOF 7
ENDMDL
MODEL 3
REMARK VINA RESULT:      -7.1      3.482     10.418
REMARK  Name = 
REMARK  10 active torsions:
REMARK  status: ('A' for Active; 'I' for Inactive)
REMARK    1  A    between atoms: C_1  and  C_2
REMARK    2  A    between atoms: C_2  and  C_3
REMARK    3  A    between atoms: C_3  and  C_4
REMARK    4  A    between atoms: C_4  and  O_5
REMARK    5  A    between atoms: O_5  and  C_6
REMARK    6  A    between atoms: C_18  and  C_19
REMARK    7  A    between atoms: N_22  and  C_23
REMARK    8  A    between atoms: C_23  and  C_24
REMARK    9  A    between atoms: C_24  and  C_25
REMARK   10  A    between atoms: C_25  and  C_26
REMARK                            x       y       z     vdW  Elec       q    Type
REMARK                         _______ _______ _______ _____ _____    ______ ____
ROOT
ATOM      1  C   UNL     1       2.383   7.553  18.623  0.00  0.00    +0.000 A 
ATOM      2  C   UNL     1       2.341   8.703  17.841  0.00  0.00    +0.000 A 
ATOM      3  C   UNL     1       1.707   9.853  18.310  0.00  0.00    +0.000 A 
ATOM      4  C   UNL     1       1.080   9.881  19.564  0.00  0.00    +0.000 A 
ATOM      5  C   UNL     1       1.159   8.731  20.373  0.00  0.00    +0.000 A 
ATOM      6  C   UNL     1       1.796   7.574  19.886  0.00  0.00    +0.000 A 
ATOM      7  C   UNL     1       0.529   8.671  21.739  0.00  0.00    +0.000 C 
ATOM      8  C   UNL     1       0.158  10.043  22.292  0.00  0.00    +0.000 C 
ATOM      9  C   UNL     1      -0.583  10.855  21.220  0.00  0.00    +0.000 C 
ATOM     10  C   UNL     1       0.404  11.151  20.061  0.00  0.00    +0.000 C 
ATOM     11  C   UNL     1      -0.308  11.947  18.951  0.00  0.00    +0.000 C 
ATOM     12  C   UNL     1      -0.958  13.217  19.486  0.00  0.00    +0.000 C 
ATOM     13  C   UNL     1      -1.927  12.965  20.658  0.00  0.00    +0.000 C 
ATOM     14  C   UNL     1      -3.207  12.281  20.127  0.00  0.00    +0.000 C 
ATOM     15  C   UNL     1      -2.332  14.318  21.250  0.00  0.00    +0.000 C 
ATOM     16  O   UNL     1      -2.332  15.333  20.550  0.00  0.00    +0.000 OA
ATOM     17  N   UNL     1      -2.784  14.312  22.567  0.00  0.00    +0.000 N 
ATOM     18  C   UNL     1      -2.884  13.180  23.372  0.00  0.00    +0.000 C 
ATOM     19  O   UNL     1      -3.554  13.145  24.407  0.00  0.00    +0.000 OA
ATOM     20  C   UNL     1      -2.160  11.931  22.926  0.00  0.00    +0.000 C 
ATOM     21  C   UNL     1      -1.199  12.168  21.763  0.00  0.00    +0.000 C 
ENDROOT
BRANCH   1  22
ATOM     22  O   UNL     1       2.966   6.368  18.260  0.00  0.00    +0.000 OA
BRANCH  22  23
ATOM     23  C   UNL     1       2.445   5.207  18.906  0.00  0.00    +0.000 C 
BRANCH  23  24
ATOM     24  C   UNL     1       1.750   4.334  17.871  0.00  0.00    +0.000 C 
BRANCH  24  26
ATOM     25  C   UNL     1       0.890   3.347  20.016  0.00  0.00    +0.000 C 
ATOM     26  C   UNL     1       1.121   3.114  18.535  0.00  0.00    +0.000 C 
ENDBRANCH  24  26
ENDBRANCH  23  24
ENDBRANCH  22  23
ENDBRANCH   1  22
BRANCH  17  27
ATOM     27  C   UNL     1      -3.328  15.561  23.099  0.00  0.00    +0.000 C 
BRANCH  27  28
ATOM     28  C   UNL     1      -4.791  15.827  22.723  0.00  0.00    +0.000 C 
BRANCH  28  29
ATOM     29  C   UNL     1      -5.750  15.876  23.914  0.00  0.00    +0.000 C 
ATOM     30  C   UNL     1      -6.775  14.754  23.806  0.00  0.00    +0.000 C 
ENDBRANCH  28  29
ENDBRANCH  27  28
ENDBRANCH  17  27
TORSDOF 7
ENDMDL
MODEL 4
REMARK VINA RESULT:      -7.0      1.233      1.795
REMARK  Name = 
REMARK  10 active torsions:
REMARK  status: ('A' for Active; 'I' for Inactive)
REMARK    1  A    between atoms: C_1  and  C_2
REMARK    2  A    between atoms: C_2  and  C_3
REMARK    3  A    between atoms: C_3  and  C_4
REMARK    4  A    between atoms: C_4  and  O_5
REMARK    5  A    between atoms: O_5  and  C_6
REMARK    6  A    between atoms: C_18  and  C_19
REMARK    7  A    between atoms: N_22  and  C_23
REMARK    8  A    between atoms: C_23  and  C_24
REMARK    9  A    between atoms: C_24  and  C_25
REMARK   10  A    between atoms: C_25  and  C_26
REMARK                            x       y       z     vdW  Elec       q    Type
REMARK                         _______ _______ _______ _____ _____    ______ ____
ROOT
ATOM      1  C   UNL     1      -1.084  10.663  21.780  0.00  0.00    +0.000 A 
ATOM      2  C   UNL     1      -0.711   9.530  22.495  0.00  0.00    +0.000 A 
ATOM      3  C   UNL     1       0.277   8.678  22.004  0.00  0.00    +0.000 A 
ATOM      4  C   UNL     1       0.908   8.922  20.776  0.00  0.00    +0.000 A 
ATOM      5  C   UNL     1       0.561  10.093  20.072  0.00  0.00    +0.000 A 
ATOM      6  C   UNL     1      -0.442  10.941  20.575  0.00  0.00    +0.000 A 
ATOM      7  C   UNL     1       1.194  10.448  18.753  0.00  0.00    +0.000 C 
ATOM      8  C   UNL     1       2.467   9.658  18.463  0.00  0.00    +0.000 C 
ATOM      9  C   UNL     1       2.232   8.167  18.743  0.00  0.00    +0.000 C 
ATOM     10  C   UNL     1       1.993   7.986  20.264  0.00  0.00    +0.000 C 
ATOM     11  C   UNL     1       1.730   6.503  20.586  0.00  0.00    +0.000 C 
ATOM     12  C   UNL     1       2.845   5.600  20.071  0.00  0.00    +0.000 C 
ATOM     13  C   UNL     1       3.129   5.772  18.566  0.00  0.00    +0.000 C 
ATOM     14  C   UNL     1       1.969   5.157  17.751  0.00  0.00    +0.000 C 
ATOM     15  C   UNL     1       4.403   4.994  18.223  0.00  0.00    +0.000 C 
ATOM     16  O   UNL     1       4.735   4.011  18.889  0.00  0.00    +0.000 OA
ATOM     17  N   UNL     1       5.091   5.397  17.081  0.00  0.00    +0.000 N 
ATOM     18  C   UNL     1       4.711   6.446  16.248  0.00  0.00    +0.000 C 
ATOM     19  O   UNL     1       5.148   6.593  15.104  0.00  0.00    +0.000 OA
ATOM     20  C   UNL     1       3.684   7.425  16.770  0.00  0.00    +0.000 C 
ATOM     21  C   UNL     1       3.393   7.263  18.259  0.00  0.00    +0.000 C 
ENDROOT
BRANCH   1  22
ATOM     22  O   UNL     1      -2.047  11.560  22.159  0.00  0.00    +0.000 OA
BRANCH  22  23
ATOM     23  C   UNL     1      -1.584  12.888  22.405  0.00  0.00    +0.000 C 
BRANCH  23  24
ATOM     24  C   UNL     1      -2.537  13.574  23.372  0.00  0.00    +0.000 C 
BRANCH  24  26
ATOM     25  C   UNL     1      -4.960  13.022  23.750  0.00  0.00    +0.000 C 
ATOM     26  C   UNL     1      -3.526  12.569  23.953  0.00  0.00    +0.000 C 
ENDBRANCH  24  26
ENDBRANCH  23  24
ENDBRANCH  22  23
ENDBRANCH   1  22
BRANCH  17  27
ATOM     27  C   UNL     1       6.216   4.570  16.644  0.00  0.00    +0.000 C 
BRANCH  27  28
ATOM     28  C   UNL     1       5.892   3.626  15.479  0.00  0.00    +0.000 C 
BRANCH  28  29
ATOM     29  C   UNL     1       6.601   3.976  14.169  0.00  0.00    +0.000 C 
ATOM     30  C   UNL     1       5.743   3.554  12.982  0.00  0.00    +0.000 C 
ENDBRANCH  28  29
ENDBRANCH  27  28
ENDBRANCH  17  27
TORSDOF 7
ENDMDL
MODEL 5
REMARK VINA RESULT:      -7.0      2.533      9.243
REMARK  Name = 
REMARK  10 active torsions:
REMARK  status: ('A' for Active; 'I' for Inactive)
REMARK    1  A    between atoms: C_1  and  C_2
REMARK    2  A    between atoms: C_2  and  C_3
REMARK    3  A    between atoms: C_3  and  C_4
REMARK    4  A    between atoms: C_4  and  O_5
REMARK    5  A    between atoms: O_5  and  C_6
REMARK    6  A    between atoms: C_18  and  C_19
REMARK    7  A    between atoms: N_22  and  C_23
REMARK    8  A    between atoms: C_23  and  C_24
REMARK    9  A    between atoms: C_24  and  C_25
REMARK   10  A    between atoms: C_25  and  C_26
REMARK                            x       y       z     vdW  Elec       q    Type
REMARK                         _______ _______ _______ _____ _____    ______ ____
ROOT
ATOM      1  C   UNL     1       4.176   5.151  18.848  0.00  0.00    +0.000 A 
ATOM      2  C   UNL     1       3.476   5.038  20.044  0.00  0.00    +0.000 A 
ATOM      3  C   UNL     1       2.516   5.987  20.393  0.00  0.00    +0.000 A 
ATOM      4  C   UNL     1       2.242   7.086  19.566  0.00  0.00    +0.000 A 
ATOM      5  C   UNL     1       2.920   7.177  18.335  0.00  0.00    +0.000 A 
ATOM      6  C   UNL     1       3.891   6.217  17.997  0.00  0.00    +0.000 A 
ATOM      7  C   UNL     1       2.683   8.313  17.375  0.00  0.00    +0.000 C 
ATOM      8  C   UNL     1       1.411   9.100  17.676  0.00  0.00    +0.000 C 
ATOM      9  C   UNL     1       1.343   9.430  19.174  0.00  0.00    +0.000 C 
ATOM     10  C   UNL     1       1.181   8.104  19.960  0.00  0.00    +0.000 C 
ATOM     11  C   UNL     1       1.131   8.389  21.474  0.00  0.00    +0.000 C 
ATOM     12  C   UNL     1       0.047   9.400  21.829  0.00  0.00    +0.000 C 
ATOM     13  C   UNL     1       0.161  10.723  21.046  0.00  0.00    +0.000 C 
ATOM     14  C   UNL     1       1.375  11.525  21.567  0.00  0.00    +0.000 C 
ATOM     15  C   UNL     1      -1.096  11.554  21.317  0.00  0.00    +0.000 C 
ATOM     16  O   UNL     1      -1.724  11.416  22.369  0.00  0.00    +0.000 OA
ATOM     17  N   UNL     1      -1.423  12.519  20.366  0.00  0.00    +0.000 N 
ATOM     18  C   UNL     1      -0.699  12.771  19.204  0.00  0.00    +0.000 C 
ATOM     19  O   UNL     1      -0.824  13.804  18.542  0.00  0.00    +0.000 OA
ATOM     20  C   UNL     1       0.309  11.736  18.761  0.00  0.00    +0.000 C 
ATOM     21  C   UNL     1       0.208  10.421  19.532  0.00  0.00    +0.000 C 
ENDROOT
BRANCH   1  22
ATOM     22  O   UNL     1       5.145   4.287  18.411  0.00  0.00    +0.000 OA
BRANCH  22  23
ATOM     23  C   UNL     1       6.072   4.831  17.472  0.00  0.00    +0.000 C 
BRANCH  23  24
ATOM     24  C   UNL     1       7.453   4.880  18.110  0.00  0.00    +0.000 C 
BRANCH  24  26
ATOM     25  C   UNL     1       7.440   7.325  17.526  0.00  0.00    +0.000 C 
ATOM     26  C   UNL     1       7.772   6.294  18.588  0.00  0.00    +0.000 C 
ENDBRANCH  24  26
ENDBRANCH  23  24
ENDBRANCH  22  23
ENDBRANCH   1  22
BRANCH  17  27
ATOM     27  C   UNL     1      -2.522  13.431  20.681  0.00  0.00    +0.000 C 
BRANCH  27  28
ATOM     28  C   UNL     1      -3.895  12.965  20.180  0.00  0.00    +0.000 C 
BRANCH  28  29
ATOM     29  C   UNL     1      -5.081  13.608  20.902  0.00  0.00    +0.000 C 
ATOM     30  C   UNL     1      -5.416  12.819  22.162  0.00  0.00    +0.000 C 
ENDBRANCH  28  29
ENDBRANCH  27  28
ENDBRANCH  17  27
TORSDOF 7
ENDMDL
MODEL 6
REMARK VINA RESULT:      -7.0      2.676      9.236
REMARK  Name = 
REMARK  10 active torsions:
REMARK  status: ('A' for Active; 'I' for Inactive)
REMARK    1  A    between atoms: C_1  and  C_2
REMARK    2  A    between atoms: C_2  and  C_3
REMARK    3  A    between atoms: C_3  and  C_4
REMARK    4  A    between atoms: C_4  and  O_5
REMARK    5  A    between atoms: O_5  and  C_6
REMARK    6  A    between atoms: C_18  and  C_19
REMARK    7  A    between atoms: N_22  and  C_23
REMARK    8  A    between atoms: C_23  and  C_24
REMARK    9  A    between atoms: C_24  and  C_25
REMARK   10  A    between atoms: C_25  and  C_26
REMARK                            x       y       z     vdW  Elec       q    Type
REMARK                         _______ _______ _______ _____ _____    ______ ____
ROOT
ATOM      1  C   UNL     1       3.670   5.079  18.334  0.00  0.00    +0.000 A 
ATOM      2  C   UNL     1       3.865   6.127  17.440  0.00  0.00    +0.000 A 
ATOM      3  C   UNL     1       3.325   7.386  17.698  0.00  0.00    +0.000 A 
ATOM      4  C   UNL     1       2.557   7.629  18.846  0.00  0.00    +0.000 A 
ATOM      5  C   UNL     1       2.395   6.580  19.772  0.00  0.00    +0.000 A 
ATOM      6  C   UNL     1       2.940   5.312  19.497  0.00  0.00    +0.000 A 
ATOM      7  C   UNL     1       1.600   6.749  21.040  0.00  0.00    +0.000 C 
ATOM      8  C   UNL     1       1.335   8.210  21.394  0.00  0.00    +0.000 C 
ATOM      9  C   UNL     1       0.836   8.966  20.154  0.00  0.00    +0.000 C 
ATOM     10  C   UNL     1       1.986   9.014  19.115  0.00  0.00    +0.000 C 
ATOM     11  C   UNL     1       1.518   9.747  17.843  0.00  0.00    +0.000 C 
ATOM     12  C   UNL     1       0.969  11.134  18.152  0.00  0.00    +0.000 C 
ATOM     13  C   UNL     1      -0.160  11.127  19.202  0.00  0.00    +0.000 C 
ATOM     14  C   UNL     1      -1.440  10.529  18.576  0.00  0.00    +0.000 C 
ATOM     15  C   UNL     1      -0.466  12.576  19.592  0.00  0.00    +0.000 C 
ATOM     16  O   UNL     1      -0.255  13.496  18.798  0.00  0.00    +0.000 OA
ATOM     17  N   UNL     1      -1.072  12.775  20.830  0.00  0.00    +0.000 N 
ATOM     18  C   UNL     1      -1.408  11.763  21.726  0.00  0.00    +0.000 C 
ATOM     19  O   UNL     1      -2.199  11.922  22.658  0.00  0.00    +0.000 OA
ATOM     20  C   UNL     1      -0.794  10.398  21.512  0.00  0.00    +0.000 C 
ATOM     21  C   UNL     1       0.324  10.392  20.472  0.00  0.00    +0.000 C 
ENDROOT
BRANCH   1  22
ATOM     22  O   UNL     1       4.143   3.804  18.176  0.00  0.00    +0.000 OA
BRANCH  22  23
ATOM     23  C   UNL     1       3.439   2.796  18.901  0.00  0.00    +0.000 C 
BRANCH  23  24
ATOM     24  C   UNL     1       2.353   2.212  18.009  0.00  0.00    +0.000 C 
BRANCH  24  26
ATOM     25  C   UNL     1       1.096   2.637  20.144  0.00  0.00    +0.000 C 
ATOM     26  C   UNL     1       0.980   2.387  18.652  0.00  0.00    +0.000 C 
ENDBRANCH  24  26
ENDBRANCH  23  24
ENDBRANCH  22  23
ENDBRANCH   1  22
BRANCH  17  27
ATOM     27  C   UNL     1      -1.520  14.129  21.153  0.00  0.00    +0.000 C 
BRANCH  27  28
ATOM     28  C   UNL     1      -0.510  14.956  21.959  0.00  0.00    +0.000 C 
BRANCH  28  29
ATOM     29  C   UNL     1      -0.795  15.009  23.461  0.00  0.00    +0.000 C 
ATOM     30  C   UNL     1      -2.259  15.354  23.703  0.00  0.00    +0.000 C 
ENDBRANCH  28  29
ENDBRANCH  27  28
ENDBRANCH  17  27
TORSDOF 7
ENDMDL
MODEL 7
REMARK VINA RESULT:      -6.9      3.511     10.274
REMARK  Name = 
REMARK  10 active torsions:
REMARK  status: ('A' for Active; 'I' for Inactive)
REMARK    1  A    between atoms: C_1  and  C_2
REMARK    2  A    between atoms: C_2  and  C_3
REMARK    3  A    between atoms: C_3  and  C_4
REMARK    4  A    between atoms: C_4  and  O_5
REMARK    5  A    between atoms: O_5  and  C_6
REMARK    6  A    between atoms: C_18  and  C_19
REMARK    7  A    between atoms: N_22  and  C_23
REMARK    8  A    between atoms: C_23  and  C_24
REMARK    9  A    between atoms: C_24  and  C_25
REMARK   10  A    between atoms: C_25  and  C_26
REMARK                            x       y       z     vdW  Elec       q    Type
REMARK                         _______ _______ _______ _____ _____    ______ ____
ROOT
ATOM      1  C   UNL     1       2.310   7.734  18.567  0.00  0.00    +0.000 A 
ATOM      2  C   UNL     1       2.277   8.905  17.816  0.00  0.00    +0.000 A 
ATOM      3  C   UNL     1       1.645  10.044  18.312  0.00  0.00    +0.000 A 
ATOM      4  C   UNL     1       1.010  10.041  19.563  0.00  0.00    +0.000 A 
ATOM      5  C   UNL     1       1.081   8.869  20.341  0.00  0.00    +0.000 A 
ATOM      6  C   UNL     1       1.717   7.724  19.827  0.00  0.00    +0.000 A 
ATOM      7  C   UNL     1       0.443   8.774  21.702  0.00  0.00    +0.000 C 
ATOM      8  C   UNL     1       0.073  10.133  22.289  0.00  0.00    +0.000 C 
ATOM      9  C   UNL     1      -0.659  10.976  21.235  0.00  0.00    +0.000 C 
ATOM     10  C   UNL     1       0.336  11.299  20.090  0.00  0.00    +0.000 C 
ATOM     11  C   UNL     1      -0.366  12.128  18.998  0.00  0.00    +0.000 C 
ATOM     12  C   UNL     1      -1.015  13.386  19.563  0.00  0.00    +0.000 C 
ATOM     13  C   UNL     1      -1.992  13.105  20.722  0.00  0.00    +0.000 C 
ATOM     14  C   UNL     1      -3.271  12.441  20.166  0.00  0.00    +0.000 C 
ATOM     15  C   UNL     1      -2.396  14.443  21.348  0.00  0.00    +0.000 C 
ATOM     16  O   UNL     1      -2.387  15.477  20.675  0.00  0.00    +0.000 OA
ATOM     17  N   UNL     1      -2.855  14.404  22.662  0.00  0.00    +0.000 N 
ATOM     18  C   UNL     1      -2.964  13.251  23.436  0.00  0.00    +0.000 C 
ATOM     19  O   UNL     1      -3.640  13.190  24.465  0.00  0.00    +0.000 OA
ATOM     20  C   UNL     1      -2.242  12.011  22.960  0.00  0.00    +0.000 C 
ATOM     21  C   UNL     1      -1.274  12.277  21.810  0.00  0.00    +0.000 C 
ENDROOT
BRANCH   1  22
ATOM     22  O   UNL     1       2.891   6.557  18.176  0.00  0.00    +0.000 OA
BRANCH  22  23
ATOM     23  C   UNL     1       2.388   5.384  18.814  0.00  0.00    +0.000 C 
BRANCH  23  24
ATOM     24  C   UNL     1       1.722   4.499  17.770  0.00  0.00    +0.000 C 
BRANCH  24  26
ATOM     25  C   UNL     1       2.593   2.142  17.784  0.00  0.00    +0.000 C 
ATOM     26  C   UNL     1       1.528   3.086  18.310  0.00  0.00    +0.000 C 
ENDBRANCH  24  26
ENDBRANCH  23  24
ENDBRANCH  22  23
ENDBRANCH   1  22
BRANCH  17  27
ATOM     27  C   UNL     1      -3.398  15.640  23.224  0.00  0.00    +0.000 C 
BRANCH  27  28
ATOM     28  C   UNL     1      -2.336  16.659  23.658  0.00  0.00    +0.000 C 
BRANCH  28  29
ATOM     29  C   UNL     1      -1.195  16.066  24.487  0.00  0.00    +0.000 C 
ATOM     30  C   UNL     1      -1.682  15.750  25.896  0.00  0.00    +0.000 C 
ENDBRANCH  28  29
ENDBRANCH  27  28
ENDBRANCH  17  27
TORSDOF 7
ENDMDL
MODEL 8
REMARK VINA RESULT:      -6.9      1.388      1.845
REMARK  Name = 
REMARK  10 active torsions:
REMARK  status: ('A' for Active; 'I' for Inactive)
REMARK    1  A    between atoms: C_1  and  C_2
REMARK    2  A    between atoms: C_2  and  C_3
REMARK    3  A    between atoms: C_3  and  C_4
REMARK    4  A    between atoms: C_4  and  O_5
REMARK    5  A    between atoms: O_5  and  C_6
REMARK    6  A    between atoms: C_18  and  C_19
REMARK    7  A    between atoms: N_22  and  C_23
REMARK    8  A    between atoms: C_23  and  C_24
REMARK    9  A    between atoms: C_24  and  C_25
REMARK   10  A    between atoms: C_25  and  C_26
REMARK                            x       y       z     vdW  Elec       q    Type
REMARK                         _______ _______ _______ _____ _____    ______ ____
ROOT
ATOM      1  C   UNL     1      -1.129  11.619  20.676  0.00  0.00    +0.000 A 
ATOM      2  C   UNL     1      -0.936  10.618  21.622  0.00  0.00    +0.000 A 
ATOM      3  C   UNL     1       0.004   9.612  21.404  0.00  0.00    +0.000 A 
ATOM      4  C   UNL     1       0.763   9.565  20.226  0.00  0.00    +0.000 A 
ATOM      5  C   UNL     1       0.599  10.603  19.288  0.00  0.00    +0.000 A 
ATOM      6  C   UNL     1      -0.358  11.609  19.517  0.00  0.00    +0.000 A 
ATOM      7  C   UNL     1       1.379  10.646  18.001  0.00  0.00    +0.000 C 
ATOM      8  C   UNL     1       2.589   9.717  17.998  0.00  0.00    +0.000 C 
ATOM      9  C   UNL     1       2.184   8.331  18.519  0.00  0.00    +0.000 C 
ATOM     10  C   UNL     1       1.793   8.465  20.013  0.00  0.00    +0.000 C 
ATOM     11  C   UNL     1       1.357   7.096  20.570  0.00  0.00    +0.000 C 
ATOM     12  C   UNL     1       2.420   6.026  20.352  0.00  0.00    +0.000 C 
ATOM     13  C   UNL     1       2.854   5.883  18.879  0.00  0.00    +0.000 C 
ATOM     14  C   UNL     1       1.717   5.217  18.072  0.00  0.00    +0.000 C 
ATOM     15  C   UNL     1       4.070   4.954  18.822  0.00  0.00    +0.000 C 
ATOM     16  O   UNL     1       4.243   4.094  19.689  0.00  0.00    +0.000 OA
ATOM     17  N   UNL     1       4.895   5.075  17.707  0.00  0.00    +0.000 N 
ATOM     18  C   UNL     1       4.696   5.972  16.660  0.00  0.00    +0.000 C 
ATOM     19  O   UNL     1       5.247   5.861  15.562  0.00  0.00    +0.000 OA
ATOM     20  C   UNL     1       3.728   7.111  16.881  0.00  0.00    +0.000 C 
ATOM     21  C   UNL     1       3.289   7.261  18.336  0.00  0.00    +0.000 C 
ENDROOT
BRANCH   1  22
ATOM     22  O   UNL     1      -2.029  12.646  20.781  0.00  0.00    +0.000 OA
BRANCH  22  23
ATOM     23  C   UNL     1      -3.242  12.330  21.464  0.00  0.00    +0.000 C 
BRANCH  23  24
ATOM     24  C   UNL     1      -4.396  13.051  20.783  0.00  0.00    +0.000 C 
BRANCH  24  26
ATOM     25  C   UNL     1      -4.704  11.898  18.572  0.00  0.00    +0.000 C 
ATOM     26  C   UNL     1      -5.243  12.069  19.980  0.00  0.00    +0.000 C 
ENDBRANCH  24  26
ENDBRANCH  23  24
ENDBRANCH  22  23
ENDBRANCH   1  22
BRANCH  17  27
ATOM     27  C   UNL     1       5.967   4.092  17.551  0.00  0.00    +0.000 C 
BRANCH  27  28
ATOM     28  C   UNL     1       7.382   4.680  17.627  0.00  0.00    +0.000 C 
BRANCH  28  29
ATOM     29  C   UNL     1       7.586   5.687  18.761  0.00  0.00    +0.000 C 
ATOM     30  C   UNL     1       7.918   7.059  18.188  0.00  0.00    +0.000 C 
ENDBRANCH  28  29
ENDBRANCH  27  28
ENDBRANCH  17  27
TORSDOF 7
ENDMDL
MODEL 9
REMARK VINA RESULT:      -6.9      3.346      9.982
REMARK  Name = 
REMARK  10 active torsions:
REMARK  status: ('A' for Active; 'I' for Inactive)
REMARK    1  A    between atoms: C_1  and  C_2
REMARK    2  A    between atoms: C_2  and  C_3
REMARK    3  A    between atoms: C_3  and  C_4
REMARK    4  A    between atoms: C_4  and  O_5
REMARK    5  A    between atoms: O_5  and  C_6
REMARK    6  A    between atoms: C_18  and  C_19
REMARK    7  A    between atoms: N_22  and  C_23
REMARK    8  A    between atoms: C_23  and  C_24
REMARK    9  A    between atoms: C_24  and  C_25
REMARK   10  A    between atoms: C_25  and  C_26
REMARK                            x       y       z     vdW  Elec       q    Type
REMARK                         _______ _______ _______ _____ _____    ______ ____
ROOT
ATOM      1  C   UNL     1       2.510   6.455  18.809  0.00  0.00    +0.000 A 
ATOM      2  C   UNL     1       2.570   7.475  17.866  0.00  0.00    +0.000 A 
ATOM      3  C   UNL     1       2.115   8.755  18.180  0.00  0.00    +0.000 A 
ATOM      4  C   UNL     1       1.568   9.047  19.438  0.00  0.00    +0.000 A 
ATOM      5  C   UNL     1       1.547   8.025  20.407  0.00  0.00    +0.000 A 
ATOM      6  C   UNL     1       2.004   6.736  20.076  0.00  0.00    +0.000 A 
ATOM      7  C   UNL     1       0.993   8.247  21.789  0.00  0.00    +0.000 C 
ATOM      8  C   UNL     1       0.831   9.723  22.144  0.00  0.00    +0.000 C 
ATOM      9  C   UNL     1       0.139  10.463  20.990  0.00  0.00    +0.000 C 
ATOM     10  C   UNL     1       1.088  10.454  19.764  0.00  0.00    +0.000 C 
ATOM     11  C   UNL     1       0.421  11.170  18.574  0.00  0.00    +0.000 C 
ATOM     12  C   UNL     1      -0.031  12.580  18.936  0.00  0.00    +0.000 C 
ATOM     13  C   UNL     1      -0.956  12.630  20.168  0.00  0.00    +0.000 C 
ATOM     14  C   UNL     1      -2.341  12.055  19.794  0.00  0.00    +0.000 C 
ATOM     15  C   UNL     1      -1.153  14.097  20.564  0.00  0.00    +0.000 C 
ATOM     16  O   UNL     1      -1.063  14.991  19.720  0.00  0.00    +0.000 OA
ATOM     17  N   UNL     1      -1.526  14.341  21.884  0.00  0.00    +0.000 N 
ATOM     18  C   UNL     1      -1.723  13.361  22.853  0.00  0.00    +0.000 C 
ATOM     19  O   UNL     1      -2.332  13.565  23.905  0.00  0.00    +0.000 OA
ATOM     20  C   UNL     1      -1.189  11.975  22.573  0.00  0.00    +0.000 C 
ATOM     21  C   UNL     1      -0.274  11.912  21.352  0.00  0.00    +0.000 C 
ENDROOT
BRANCH   1  22
ATOM     22  O   UNL     1       2.917   5.163  18.607  0.00  0.00    +0.000 OA
BRANCH  22  23
ATOM     23  C   UNL     1       1.995   4.335  17.897  0.00  0.00    +0.000 C 
BRANCH  23  24
ATOM     24  C   UNL     1       1.854   3.009  18.631  0.00  0.00    +0.000 C 
BRANCH  24  26
ATOM     25  C   UNL     1       1.383   3.112  21.098  0.00  0.00    +0.000 C 
ATOM     26  C   UNL     1       0.777   3.105  19.707  0.00  0.00    +0.000 C 
ENDBRANCH  24  26
ENDBRANCH  23  24
ENDBRANCH  22  23
ENDBRANCH   1  22
BRANCH  17  27
ATOM     27  C   UNL     1      -1.876  15.716  22.242  0.00  0.00    +0.000 C 
BRANCH  27  28
ATOM     28  C   UNL     1      -3.374  16.032  22.149  0.00  0.00    +0.000 C 
BRANCH  28  29
ATOM     29  C   UNL     1      -3.942  16.757  23.371  0.00  0.00    +0.000 C 
ATOM     30  C   UNL     1      -5.210  16.061  23.849  0.00  0.00    +0.000 C 
ENDBRANCH  28  29
ENDBRANCH  27  28
ENDBRANCH  17  27
TORSDOF 7
ENDMDL
