MODEL 1
REMARK VINA RESULT:      -6.7      0.000      0.000
REMARK  Name = 
REMARK  8 active torsions:
REMARK  status: ('A' for Active; 'I' for Inactive)
REMARK    1  A    between atoms: O_1  and  C_2
REMARK    2  A    between atoms: C_2  and  C_3
REMARK    3  A    between atoms: C_8  and  O_9
REMARK    4  A    between atoms: O_9  and  C_10
REMARK    5  A    between atoms: C_10  and  C_11
REMARK    6  A    between atoms: C_11  and  C_12
REMARK    7  A    between atoms: C_12  and  O_13
REMARK    8  A    between atoms: O_13  and  C_14
REMARK                            x       y       z     vdW  Elec       q    Type
REMARK                         _______ _______ _______ _____ _____    ______ ____
ROOT
ATOM      1  C   UNL     1       2.773   1.696  18.915  0.00  0.00    +0.000 C 
ENDROOT
BRANCH   1   2
ATOM      2  C   UNL     1       1.319   1.792  18.451  0.00  0.00    +0.000 C 
BRANCH   2   3
ATOM      3  O   UNL     1       0.673   2.949  18.973  0.00  0.00    +0.000 OA
BRANCH   3   9
ATOM      4  C   UNL     1       2.107   4.546  20.263  0.00  0.00    +0.000 A 
ATOM      5  C   UNL     1       2.847   5.747  20.178  0.00  0.00    +0.000 A 
ATOM      6  C   UNL     1       2.916   6.486  19.001  0.00  0.00    +0.000 A 
ATOM      7  C   UNL     1       2.251   6.030  17.870  0.00  0.00    +0.000 A 
ATOM      8  C   UNL     1       1.532   4.834  17.924  0.00  0.00    +0.000 A 
ATOM      9  C   UNL     1       1.462   4.071  19.103  0.00  0.00    +0.000 A 
BRANCH   4  10
ATOM     10  C   UNL     1       2.068   3.898  21.620  0.00  0.00    +0.000 C 
BRANCH  10  11
ATOM     11  O   UNL     1       1.022   2.936  21.649  0.00  0.00    +0.000 OA
ATOM     12  H   UNL     1       0.453   3.107  20.881  0.00  0.00    +0.000 HD
ENDBRANCH  10  11
ENDBRANCH   4  10
ENDBRANCH   3   9
ENDBRANCH   2   3
ENDBRANCH   1   2
BRANCH   1  13
ATOM     13  C   UNL     1       3.694   2.055  17.742  0.00  0.00    +0.000 C 
BRANCH  13  14
ATOM     14  O   UNL     1       4.819   2.784  18.251  0.00  0.00    +0.000 OA
BRANCH  14  15
ATOM     15  C   UNL     1       5.256   3.904  17.581  0.00  0.00    +0.000 A 
ATOM     16  C   UNL     1       4.694   4.003  16.296  0.00  0.00    +0.000 A 
ATOM     17  C   UNL     1       5.025   5.053  15.449  0.00  0.00    +0.000 A 
ATOM     18  C   UNL     1       5.953   5.996  15.868  0.00  0.00    +0.000 A 
ATOM     19  C   UNL     1       6.536   5.903  17.143  0.00  0.00    +0.000 A 
ATOM     20  C   UNL     1       7.522   6.824  17.527  0.00  0.00    +0.000 A 
ATOM     21  C   UNL     1       8.085   6.752  18.791  0.00  0.00    +0.000 A 
ATOM     22  C   UNL     1       7.620   5.777  19.643  0.00  0.00    +0.000 A 
ATOM     23  N   UNL     1       6.690   4.861  19.300  0.00  0.00    +0.000 NA
ATOM     24  C   UNL     1       6.166   4.877  18.050  0.00  0.00    +0.000 A 
ENDBRANCH  14  15
ENDBRANCH  13  14
ENDBRANCH   1  13
TORSDOF 8
ENDMDL
MODEL 2
REMARK VINA RESULT:      -6.6      2.874      5.266
REMARK  Name = 
REMARK  8 active torsions:
REMARK  status: ('A' for Active; 'I' for Inactive)
REMARK    1  A    between atoms: O_1  and  C_2
REMARK    2  A    between atoms: C_2  and  C_3
REMARK    3  A    between atoms: C_8  and  O_9
REMARK    4  A    between atoms: O_9  and  C_10
REMARK    5  A    between atoms: C_10  and  C_11
REMARK    6  A    between atoms: C_11  and  C_12
REMARK    7  A    between atoms: C_12  and  O_13
REMARK    8  A    between atoms: O_13  and  C_14
REMARK                            x       y       z     vdW  Elec       q    Type
REMARK                         _______ _______ _______ _____ _____    ______ ____
ROOT
ATOM      1  C   UNL     1       4.115   4.824  16.794  0.00  0.00    +0.000 C 
ENDROOT
BRANCH   1   2
ATOM      2  C   UNL     1       4.632   3.538  17.440  0.00  0.00    +0.000 C 
BRANCH   2   3
ATOM      3  O   UNL     1       3.585   2.592  17.645  0.00  0.00    +0.000 OA
BRANCH   3   9
ATOM      4  C   UNL     1       3.325   2.577  20.136  0.00  0.00    +0.000 A 
ATOM      5  C   UNL     1       2.400   2.739  21.192  0.00  0.00    +0.000 A 
ATOM      6  C   UNL     1       1.054   3.003  20.956  0.00  0.00    +0.000 A 
ATOM      7  C   UNL     1       0.602   3.124  19.649  0.00  0.00    +0.000 A 
ATOM      8  C   UNL     1       1.502   2.991  18.590  0.00  0.00    +0.000 A 
ATOM      9  C   UNL     1       2.867   2.734  18.812  0.00  0.00    +0.000 A 
BRANCH   4  10
ATOM     10  C   UNL     1       4.729   2.226  20.546  0.00  0.00    +0.000 C 
BRANCH  10  11
ATOM     11  O   UNL     1       5.157   1.084  19.815  0.00  0.00    +0.000 OA
ATOM     12  H   UNL     1       6.092   1.221  19.589  0.00  0.00    +0.000 HD
ENDBRANCH  10  11
ENDBRANCH   4  10
ENDBRANCH   3   9
ENDBRANCH   2   3
ENDBRANCH   1   2
BRANCH   1  13
ATOM     13  C   UNL     1       4.351   5.994  17.757  0.00  0.00    +0.000 C 
BRANCH  13  14
ATOM     14  O   UNL     1       3.291   6.945  17.588  0.00  0.00    +0.000 OA
BRANCH  14  15
ATOM     15  C   UNL     1       2.571   7.355  18.687  0.00  0.00    +0.000 A 
ATOM     16  C   UNL     1       2.473   6.345  19.661  0.00  0.00    +0.000 A 
ATOM     17  C   UNL     1       1.766   6.552  20.839  0.00  0.00    +0.000 A 
ATOM     18  C   UNL     1       1.117   7.763  21.036  0.00  0.00    +0.000 A 
ATOM     19  C   UNL     1       1.191   8.776  20.066  0.00  0.00    +0.000 A 
ATOM     20  C   UNL     1       0.475   9.970  20.249  0.00  0.00    +0.000 A 
ATOM     21  C   UNL     1       0.562  10.982  19.308  0.00  0.00    +0.000 A 
ATOM     22  C   UNL     1       1.388  10.781  18.226  0.00  0.00    +0.000 A 
ATOM     23  N   UNL     1       2.073   9.639  18.007  0.00  0.00    +0.000 NA
ATOM     24  C   UNL     1       1.959   8.613  18.886  0.00  0.00    +0.000 A 
ENDBRANCH  14  15
ENDBRANCH  13  14
ENDBRANCH   1  13
TORSDOF 8
ENDMDL
MODEL 3
REMARK VINA RESULT:      -6.6      5.483      7.969
REMARK  Name = 
REMARK  8 active torsions:
REMARK  status: ('A' for Active; 'I' for Inactive)
REMARK    1  A    between atoms: O_1  and  C_2
REMARK    2  A    between atoms: C_2  and  C_3
REMARK    3  A    between atoms: C_8  and  O_9
REMARK    4  A    between atoms: O_9  and  C_10
REMARK    5  A    between atoms: C_10  and  C_11
REMARK    6  A    between atoms: C_11  and  C_12
REMARK    7  A    between atoms: C_12  and  O_13
REMARK    8  A    between atoms: O_13  and  C_14
REMARK                            x       y       z     vdW  Elec       q    Type
REMARK                         _______ _______ _______ _____ _____    ______ ____
ROOT
ATOM      1  C   UNL     1       7.908   8.296  17.602  0.00  0.00    +0.000 C 
ENDROOT
BRANCH   1   2
ATOM      2  C   UNL     1       7.907   7.001  18.415  0.00  0.00    +0.000 C 
BRANCH   2   3
ATOM      3  O   UNL     1       7.839   5.851  17.576  0.00  0.00    +0.000 OA
BRANCH   3   9
ATOM      4  C   UNL     1       6.027   4.515  16.479  0.00  0.00    +0.000 A 
ATOM      5  C   UNL     1       4.756   3.931  16.674  0.00  0.00    +0.000 A 
ATOM      6  C   UNL     1       4.074   4.043  17.883  0.00  0.00    +0.000 A 
ATOM      7  C   UNL     1       4.658   4.738  18.934  0.00  0.00    +0.000 A 
ATOM      8  C   UNL     1       5.924   5.305  18.770  0.00  0.00    +0.000 A 
ATOM      9  C   UNL     1       6.630   5.191  17.559  0.00  0.00    +0.000 A 
BRANCH   4  10
ATOM     10  C   UNL     1       6.607   4.369  15.098  0.00  0.00    +0.000 C 
BRANCH  10  11
ATOM     11  O   UNL     1       7.568   5.394  14.884  0.00  0.00    +0.000 OA
ATOM     12  H   UNL     1       7.342   6.129  15.477  0.00  0.00    +0.000 HD
ENDBRANCH  10  11
ENDBRANCH   4  10
ENDBRANCH   3   9
ENDBRANCH   2   3
ENDBRANCH   1   2
BRANCH   1  13
ATOM     13  C   UNL     1       8.599   9.395  18.419  0.00  0.00    +0.000 C 
BRANCH  13  14
ATOM     14  O   UNL     1       8.203  10.670  17.895  0.00  0.00    +0.000 OA
BRANCH  14  15
ATOM     15  C   UNL     1       9.113  11.702  17.872  0.00  0.00    +0.000 A 
ATOM     16  C   UNL     1      10.439  11.237  17.917  0.00  0.00    +0.000 A 
ATOM     17  C   UNL     1      11.509  12.123  17.925  0.00  0.00    +0.000 A 
ATOM     18  C   UNL     1      11.259  13.488  17.925  0.00  0.00    +0.000 A 
ATOM     19  C   UNL     1       9.940  13.970  17.895  0.00  0.00    +0.000 A 
ATOM     20  C   UNL     1       9.700  15.351  17.963  0.00  0.00    +0.000 A 
ATOM     21  C   UNL     1       8.403  15.834  17.912  0.00  0.00    +0.000 A 
ATOM     22  C   UNL     1       7.386  14.920  17.763  0.00  0.00    +0.000 A 
ATOM     23  N   UNL     1       7.577  13.585  17.717  0.00  0.00    +0.000 NA
ATOM     24  C   UNL     1       8.833  13.086  17.822  0.00  0.00    +0.000 A 
ENDBRANCH  14  15
ENDBRANCH  13  14
ENDBRANCH   1  13
TORSDOF 8
ENDMDL
MODEL 4
REMARK VINA RESULT:      -6.6      2.911      6.882
REMARK  Name = 
REMARK  8 active torsions:
REMARK  status: ('A' for Active; 'I' for Inactive)
REMARK    1  A    between atoms: O_1  and  C_2
REMARK    2  A    between atoms: C_2  and  C_3
REMARK    3  A    between atoms: C_8  and  O_9
REMARK    4  A    between atoms: O_9  and  C_10
REMARK    5  A    between atoms: C_10  and  C_11
REMARK    6  A    between atoms: C_11  and  C_12
REMARK    7  A    between atoms: C_12  and  O_13
REMARK    8  A    between atoms: O_13  and  C_14
REMARK                            x       y       z     vdW  Elec       q    Type
REMARK                         _______ _______ _______ _____ _____    ______ ____
ROOT
ATOM      1  C   UNL     1       7.421   5.733  17.711  0.00  0.00    +0.000 C 
ENDROOT
BRANCH   1   2
ATOM      2  C   UNL     1       7.454   4.811  16.491  0.00  0.00    +0.000 C 
BRANCH   2   3
ATOM      3  O   UNL     1       7.409   5.547  15.271  0.00  0.00    +0.000 OA
BRANCH   3   9
ATOM      4  C   UNL     1       7.437   4.966  12.836  0.00  0.00    +0.000 A 
ATOM      5  C   UNL     1       6.830   4.167  11.841  0.00  0.00    +0.000 A 
ATOM      6  C   UNL     1       5.775   3.307  12.132  0.00  0.00    +0.000 A 
ATOM      7  C   UNL     1       5.307   3.219  13.437  0.00  0.00    +0.000 A 
ATOM      8  C   UNL     1       5.907   3.983  14.440  0.00  0.00    +0.000 A 
ATOM      9  C   UNL     1       6.981   4.848  14.164  0.00  0.00    +0.000 A 
BRANCH   4  10
ATOM     10  C   UNL     1       8.518   5.896  12.356  0.00  0.00    +0.000 C 
BRANCH  10  11
ATOM     11  O   UNL     1       9.349   6.252  13.452  0.00  0.00    +0.000 OA
ATOM     12  H   UNL     1       8.970   5.842  14.246  0.00  0.00    +0.000 HD
ENDBRANCH  10  11
ENDBRANCH   4  10
ENDBRANCH   3   9
ENDBRANCH   2   3
ENDBRANCH   1   2
BRANCH   1  13
ATOM     13  C   UNL     1       6.270   5.301  18.628  0.00  0.00    +0.000 C 
BRANCH  13  14
ATOM     14  O   UNL     1       5.076   5.191  17.842  0.00  0.00    +0.000 OA
BRANCH  14  15
ATOM     15  C   UNL     1       4.131   4.249  18.177  0.00  0.00    +0.000 A 
ATOM     16  C   UNL     1       4.332   3.035  17.496  0.00  0.00    +0.000 A 
ATOM     17  C   UNL     1       3.471   1.960  17.678  0.00  0.00    +0.000 A 
ATOM     18  C   UNL     1       2.376   2.104  18.519  0.00  0.00    +0.000 A 
ATOM     19  C   UNL     1       2.152   3.315  19.196  0.00  0.00    +0.000 A 
ATOM     20  C   UNL     1       1.005   3.467  19.990  0.00  0.00    +0.000 A 
ATOM     21  C   UNL     1       0.789   4.651  20.677  0.00  0.00    +0.000 A 
ATOM     22  C   UNL     1       1.746   5.634  20.573  0.00  0.00    +0.000 A 
ATOM     23  N   UNL     1       2.848   5.530  19.802  0.00  0.00    +0.000 NA
ATOM     24  C   UNL     1       3.052   4.404  19.076  0.00  0.00    +0.000 A 
ENDBRANCH  14  15
ENDBRANCH  13  14
ENDBRANCH   1  13
TORSDOF 8
ENDMDL
MODEL 5
REMARK VINA RESULT:      -6.5      2.326      3.115
REMARK  Name = 
REMARK  8 active torsions:
REMARK  status: ('A' for Active; 'I' for Inactive)
REMARK    1  A    between atoms: O_1  and  C_2
REMARK    2  A    between atoms: C_2  and  C_3
REMARK    3  A    between atoms: C_8  and  O_9
REMARK    4  A    between atoms: O_9  and  C_10
REMARK    5  A    between atoms: C_10  and  C_11
REMARK    6  A    between atoms: C_11  and  C_12
REMARK    7  A    between atoms: C_12  and  O_13
REMARK    8  A    between atoms: O_13  and  C_14
REMARK                            x       y       z     vdW  Elec       q    Type
REMARK                         _______ _______ _______ _____ _____    ______ ____
ROOT
ATOM      1  C   UNL     1       1.292   4.260  20.499  0.00  0.00    +0.000 C 
ENDROOT
BRANCH   1   2
ATOM      2  C   UNL     1       2.253   5.408  20.807  0.00  0.00    +0.000 C 
BRANCH   2   3
ATOM      3  O   UNL     1       1.561   6.640  20.996  0.00  0.00    +0.000 OA
BRANCH   3   9
ATOM      4  C   UNL     1       1.134   8.856  19.911  0.00  0.00    +0.000 A 
ATOM      5  C   UNL     1       1.417   9.650  18.777  0.00  0.00    +0.000 A 
ATOM      6  C   UNL     1       2.222   9.188  17.739  0.00  0.00    +0.000 A 
ATOM      7  C   UNL     1       2.775   7.917  17.819  0.00  0.00    +0.000 A 
ATOM      8  C   UNL     1       2.527   7.123  18.941  0.00  0.00    +0.000 A 
ATOM      9  C   UNL     1       1.724   7.579  20.002  0.00  0.00    +0.000 A 
BRANCH   4  10
ATOM     10  C   UNL     1       0.192   9.463  20.914  0.00  0.00    +0.000 C 
BRANCH  10  11
ATOM     11  O   UNL     1      -0.503   8.425  21.592  0.00  0.00    +0.000 OA
ATOM     12  H   UNL     1      -1.366   8.324  21.157  0.00  0.00    +0.000 HD
ENDBRANCH  10  11
ENDBRANCH   4  10
ENDBRANCH   3   9
ENDBRANCH   2   3
ENDBRANCH   1   2
BRANCH   1  13
ATOM     13  C   UNL     1       2.080   3.111  19.857  0.00  0.00    +0.000 C 
BRANCH  13  14
ATOM     14  O   UNL     1       3.475   3.440  19.890  0.00  0.00    +0.000 OA
BRANCH  14  15
ATOM     15  C   UNL     1       4.099   3.851  18.734  0.00  0.00    +0.000 A 
ATOM     16  C   UNL     1       3.393   3.456  17.584  0.00  0.00    +0.000 A 
ATOM     17  C   UNL     1       3.868   3.754  16.313  0.00  0.00    +0.000 A 
ATOM     18  C   UNL     1       5.079   4.420  16.182  0.00  0.00    +0.000 A 
ATOM     19  C   UNL     1       5.805   4.809  17.320  0.00  0.00    +0.000 A 
ATOM     20  C   UNL     1       7.059   5.422  17.171  0.00  0.00    +0.000 A 
ATOM     21  C   UNL     1       7.770   5.827  18.289  0.00  0.00    +0.000 A 
ATOM     22  C   UNL     1       7.189   5.634  19.521  0.00  0.00    +0.000 A 
ATOM     23  N   UNL     1       5.997   5.029  19.702  0.00  0.00    +0.000 NA
ATOM     24  C   UNL     1       5.309   4.573  18.627  0.00  0.00    +0.000 A 
ENDBRANCH  14  15
ENDBRANCH  13  14
ENDBRANCH   1  13
TORSDOF 8
ENDMDL
MODEL 6
REMARK VINA RESULT:      -6.4      5.712      9.009
REMARK  Name = 
REMARK  8 active torsions:
REMARK  status: ('A' for Active; 'I' for Inactive)
REMARK    1  A    between atoms: O_1  and  C_2
REMARK    2  A    between atoms: C_2  and  C_3
REMARK    3  A    between atoms: C_8  and  O_9
REMARK    4  A    between atoms: O_9  and  C_10
REMARK    5  A    between atoms: C_10  and  C_11
REMARK    6  A    between atoms: C_11  and  C_12
REMARK    7  A    between atoms: C_12  and  O_13
REMARK    8  A    between atoms: O_13  and  C_14
REMARK                            x       y       z     vdW  Elec       q    Type
REMARK                         _______ _______ _______ _____ _____    ______ ____
ROOT
ATOM      1  C   UNL     1       8.618   9.277  18.768  0.00  0.00    +0.000 C 
ENDROOT
BRANCH   1   2
ATOM      2  C   UNL     1       9.358  10.377  18.007  0.00  0.00    +0.000 C 
BRANCH   2   3
ATOM      3  O   UNL     1       9.034  11.673  18.503  0.00  0.00    +0.000 OA
BRANCH   3   9
ATOM      4  C   UNL     1       9.551  14.075  18.018  0.00  0.00    +0.000 A 
ATOM      5  C   UNL     1      10.536  14.957  17.518  0.00  0.00    +0.000 A 
ATOM      6  C   UNL     1      11.765  14.498  17.053  0.00  0.00    +0.000 A 
ATOM      7  C   UNL     1      12.043  13.138  17.089  0.00  0.00    +0.000 A 
ATOM      8  C   UNL     1      11.093  12.250  17.599  0.00  0.00    +0.000 A 
ATOM      9  C   UNL     1       9.851  12.699  18.082  0.00  0.00    +0.000 A 
BRANCH   4  10
ATOM     10  C   UNL     1       8.248  14.711  18.418  0.00  0.00    +0.000 C 
BRANCH  10  11
ATOM     11  O   UNL     1       7.511  15.042  17.248  0.00  0.00    +0.000 OA
ATOM     12  H   UNL     1       7.082  14.228  16.938  0.00  0.00    +0.000 HD
ENDBRANCH  10  11
ENDBRANCH   4  10
ENDBRANCH   3   9
ENDBRANCH   2   3
ENDBRANCH   1   2
BRANCH   1  13
ATOM     13  C   UNL     1       7.897   8.373  17.760  0.00  0.00    +0.000 C 
BRANCH  13  14
ATOM     14  O   UNL     1       8.159   7.006  18.104  0.00  0.00    +0.000 OA
BRANCH  14  15
ATOM     15  C   UNL     1       7.177   6.062  17.911  0.00  0.00    +0.000 A 
ATOM     16  C   UNL     1       6.500   5.753  19.104  0.00  0.00    +0.000 A 
ATOM     17  C   UNL     1       5.486   4.804  19.128  0.00  0.00    +0.000 A 
ATOM     18  C   UNL     1       5.164   4.127  17.960  0.00  0.00    +0.000 A 
ATOM     19  C   UNL     1       5.840   4.412  16.763  0.00  0.00    +0.000 A 
ATOM     20  C   UNL     1       5.550   3.673  15.605  0.00  0.00    +0.000 A 
ATOM     21  C   UNL     1       6.198   3.964  14.415  0.00  0.00    +0.000 A 
ATOM     22  C   UNL     1       7.094   5.008  14.414  0.00  0.00    +0.000 A 
ATOM     23  N   UNL     1       7.413   5.725  15.512  0.00  0.00    +0.000 NA
ATOM     24  C   UNL     1       6.834   5.421  16.699  0.00  0.00    +0.000 A 
ENDBRANCH  14  15
ENDBRANCH  13  14
ENDBRANCH   1  13
TORSDOF 8
ENDMDL
MODEL 7
REMARK VINA RESULT:      -6.4      4.402      7.777
REMARK  Name = 
REMARK  8 active torsions:
REMARK  status: ('A' for Active; 'I' for Inactive)
REMARK    1  A    between atoms: O_1  and  C_2
REMARK    2  A    between atoms: C_2  and  C_3
REMARK    3  A    between atoms: C_8  and  O_9
REMARK    4  A    between atoms: O_9  and  C_10
REMARK    5  A    between atoms: C_10  and  C_11
REMARK    6  A    between atoms: C_11  and  C_12
REMARK    7  A    between atoms: C_12  and  O_13
REMARK    8  A    between atoms: O_13  and  C_14
REMARK                            x       y       z     vdW  Elec       q    Type
REMARK                         _______ _______ _______ _____ _____    ______ ____
ROOT
ATOM      1  C   UNL     1       7.591   8.232  17.626  0.00  0.00    +0.000 C 
ENDROOT
BRANCH   1   2
ATOM      2  C   UNL     1       8.046   9.652  17.963  0.00  0.00    +0.000 C 
BRANCH   2   3
ATOM      3  O   UNL     1       8.981   9.666  19.039  0.00  0.00    +0.000 OA
BRANCH   3   9
ATOM      4  C   UNL     1       9.825  11.718  20.199  0.00  0.00    +0.000 A 
ATOM      5  C   UNL     1      10.686  12.833  20.076  0.00  0.00    +0.000 A 
ATOM      6  C   UNL     1      11.436  13.057  18.925  0.00  0.00    +0.000 A 
ATOM      7  C   UNL     1      11.350  12.159  17.869  0.00  0.00    +0.000 A 
ATOM      8  C   UNL     1      10.523  11.039  17.977  0.00  0.00    +0.000 A 
ATOM      9  C   UNL     1       9.767  10.793  19.137  0.00  0.00    +0.000 A 
BRANCH   4  10
ATOM     10  C   UNL     1       9.027  11.648  21.472  0.00  0.00    +0.000 C 
BRANCH  10  11
ATOM     11  O   UNL     1       9.005  10.305  21.937  0.00  0.00    +0.000 OA
ATOM     12  H   UNL     1       8.219   9.881  21.556  0.00  0.00    +0.000 HD
ENDBRANCH  10  11
ENDBRANCH   4  10
ENDBRANCH   3   9
ENDBRANCH   2   3
ENDBRANCH   1   2
BRANCH   1  13
ATOM     13  C   UNL     1       8.345   7.242  18.524  0.00  0.00    +0.000 C 
BRANCH  13  14
ATOM     14  O   UNL     1       7.400   6.314  19.073  0.00  0.00    +0.000 OA
BRANCH  14  15
ATOM     15  C   UNL     1       6.634   5.549  18.223  0.00  0.00    +0.000 A 
ATOM     16  C   UNL     1       7.383   5.047  17.145  0.00  0.00    +0.000 A 
ATOM     17  C   UNL     1       6.789   4.268  16.160  0.00  0.00    +0.000 A 
ATOM     18  C   UNL     1       5.425   4.015  16.228  0.00  0.00    +0.000 A 
ATOM     19  C   UNL     1       4.659   4.522  17.290  0.00  0.00    +0.000 A 
ATOM     20  C   UNL     1       3.271   4.314  17.309  0.00  0.00    +0.000 A 
ATOM     21  C   UNL     1       2.512   4.792  18.365  0.00  0.00    +0.000 A 
ATOM     22  C   UNL     1       3.172   5.437  19.386  0.00  0.00    +0.000 A 
ATOM     23  N   UNL     1       4.500   5.673  19.390  0.00  0.00    +0.000 NA
ATOM     24  C   UNL     1       5.255   5.265  18.340  0.00  0.00    +0.000 A 
ENDBRANCH  14  15
ENDBRANCH  13  14
ENDBRANCH   1  13
TORSDOF 8
ENDMDL
MODEL 8
REMARK VINA RESULT:      -6.3      5.430      8.077
REMARK  Name = 
REMARK  8 active torsions:
REMARK  status: ('A' for Active; 'I' for Inactive)
REMARK    1  A    between atoms: O_1  and  C_2
REMARK    2  A    between atoms: C_2  and  C_3
REMARK    3  A    between atoms: C_8  and  O_9
REMARK    4  A    between atoms: O_9  and  C_10
REMARK    5  A    between atoms: C_10  and  C_11
REMARK    6  A    between atoms: C_11  and  C_12
REMARK    7  A    between atoms: C_12  and  O_13
REMARK    8  A    between atoms: O_13  and  C_14
REMARK                            x       y       z     vdW  Elec       q    Type
REMARK                         _______ _______ _______ _____ _____    ______ ____
ROOT
ATOM      1  C   UNL     1       7.881   8.560  17.592  0.00  0.00    +0.000 C 
ENDROOT
BRANCH   1   2
ATOM      2  C   UNL     1       7.868   7.069  17.932  0.00  0.00    +0.000 C 
BRANCH   2   3
ATOM      3  O   UNL     1       7.400   6.282  16.841  0.00  0.00    +0.000 OA
BRANCH   3   9
ATOM      4  C   UNL     1       5.580   4.677  16.220  0.00  0.00    +0.000 A 
ATOM      5  C   UNL     1       4.548   3.860  16.734  0.00  0.00    +0.000 A 
ATOM      6  C   UNL     1       4.270   3.798  18.096  0.00  0.00    +0.000 A 
ATOM      7  C   UNL     1       5.032   4.548  18.983  0.00  0.00    +0.000 A 
ATOM      8  C   UNL     1       6.072   5.345  18.499  0.00  0.00    +0.000 A 
ATOM      9  C   UNL     1       6.371   5.411  17.126  0.00  0.00    +0.000 A 
BRANCH   4  10
ATOM     10  C   UNL     1       5.713   4.694  14.721  0.00  0.00    +0.000 C 
BRANCH  10  11
ATOM     11  O   UNL     1       6.363   3.504  14.296  0.00  0.00    +0.000 OA
ATOM     12  H   UNL     1       6.073   3.326  13.387  0.00  0.00    +0.000 HD
ENDBRANCH  10  11
ENDBRANCH   4  10
ENDBRANCH   3   9
ENDBRANCH   2   3
ENDBRANCH   1   2
BRANCH   1  13
ATOM     13  C   UNL     1       8.638   9.314  18.692  0.00  0.00    +0.000 C 
BRANCH  13  14
ATOM     14  O   UNL     1       9.310  10.433  18.098  0.00  0.00    +0.000 OA
BRANCH  14  15
ATOM     15  C   UNL     1       9.804  11.431  18.908  0.00  0.00    +0.000 A 
ATOM     16  C   UNL     1       9.467  11.230  20.258  0.00  0.00    +0.000 A 
ATOM     17  C   UNL     1       9.852  12.139  21.235  0.00  0.00    +0.000 A 
ATOM     18  C   UNL     1      10.550  13.280  20.862  0.00  0.00    +0.000 A 
ATOM     19  C   UNL     1      10.881  13.503  19.516  0.00  0.00    +0.000 A 
ATOM     20  C   UNL     1      11.527  14.693  19.146  0.00  0.00    +0.000 A 
ATOM     21  C   UNL     1      11.877  14.910  17.823  0.00  0.00    +0.000 A 
ATOM     22  C   UNL     1      11.596  13.914  16.916  0.00  0.00    +0.000 A 
ATOM     23  N   UNL     1      10.957  12.769  17.232  0.00  0.00    +0.000 NA
ATOM     24  C   UNL     1      10.555  12.559  18.510  0.00  0.00    +0.000 A 
ENDBRANCH  14  15
ENDBRANCH  13  14
ENDBRANCH   1  13
TORSDOF 8
ENDMDL
MODEL 9
REMARK VINA RESULT:      -6.3      3.067      5.942
REMARK  Name = 
REMARK  8 active torsions:
REMARK  status: ('A' for Active; 'I' for Inactive)
REMARK    1  A    between atoms: O_1  and  C_2
REMARK    2  A    between atoms: C_2  and  C_3
REMARK    3  A    between atoms: C_8  and  O_9
REMARK    4  A    between atoms: O_9  and  C_10
REMARK    5  A    between atoms: C_10  and  C_11
REMARK    6  A    between atoms: C_11  and  C_12
REMARK    7  A    between atoms: C_12  and  O_13
REMARK    8  A    between atoms: O_13  and  C_14
REMARK                            x       y       z     vdW  Elec       q    Type
REMARK                         _______ _______ _______ _____ _____    ______ ____
ROOT
ATOM      1  C   UNL     1       2.135   4.058  19.002  0.00  0.00    +0.000 C 
ENDROOT
BRANCH   1   2
ATOM      2  C   UNL     1       3.520   3.474  19.280  0.00  0.00    +0.000 C 
BRANCH   2   3
ATOM      3  O   UNL     1       4.284   3.335  18.085  0.00  0.00    +0.000 OA
BRANCH   3   9
ATOM      4  C   UNL     1       6.060   4.513  16.769  0.00  0.00    +0.000 A 
ATOM      5  C   UNL     1       7.135   5.425  16.855  0.00  0.00    +0.000 A 
ATOM      6  C   UNL     1       7.521   5.993  18.066  0.00  0.00    +0.000 A 
ATOM      7  C   UNL     1       6.826   5.668  19.224  0.00  0.00    +0.000 A 
ATOM      8  C   UNL     1       5.746   4.785  19.158  0.00  0.00    +0.000 A 
ATOM      9  C   UNL     1       5.338   4.211  17.941  0.00  0.00    +0.000 A 
BRANCH   4  10
ATOM     10  C   UNL     1       5.807   3.929  15.405  0.00  0.00    +0.000 C 
BRANCH  10  11
ATOM     11  O   UNL     1       5.945   4.951  14.426  0.00  0.00    +0.000 OA
ATOM     12  H   UNL     1       6.894   5.054  14.249  0.00  0.00    +0.000 HD
ENDBRANCH  10  11
ENDBRANCH   4  10
ENDBRANCH   3   9
ENDBRANCH   2   3
ENDBRANCH   1   2
BRANCH   1  13
ATOM     13  C   UNL     1       1.754   5.002  20.151  0.00  0.00    +0.000 C 
BRANCH  13  14
ATOM     14  O   UNL     1       2.639   6.129  20.126  0.00  0.00    +0.000 OA
BRANCH  14  15
ATOM     15  C   UNL     1       2.189   7.329  19.625  0.00  0.00    +0.000 A 
ATOM     16  C   UNL     1       2.602   7.534  18.296  0.00  0.00    +0.000 A 
ATOM     17  C   UNL     1       2.270   8.698  17.614  0.00  0.00    +0.000 A 
ATOM     18  C   UNL     1       1.550   9.686  18.271  0.00  0.00    +0.000 A 
ATOM     19  C   UNL     1       1.143   9.505  19.603  0.00  0.00    +0.000 A 
ATOM     20  C   UNL     1       0.475  10.540  20.275  0.00  0.00    +0.000 A 
ATOM     21  C   UNL     1       0.051  10.359  21.581  0.00  0.00    +0.000 A 
ATOM     22  C   UNL     1       0.282   9.135  22.165  0.00  0.00    +0.000 A 
ATOM     23  N   UNL     1       0.941   8.126  21.557  0.00  0.00    +0.000 NA
ATOM     24  C   UNL     1       1.415   8.300  20.299  0.00  0.00    +0.000 A 
ENDBRANCH  14  15
ENDBRANCH  13  14
ENDBRANCH   1  13
TORSDOF 8
ENDMDL
