MODEL 1
REMARK VINA RESULT:      -6.1      0.000      0.000
REMARK  Name = 
REMARK  3 active torsions:
REMARK  status: ('A' for Active; 'I' for Inactive)
REMARK    1  A    between atoms: C_1  and  N_2
REMARK    2  A    between atoms: C_3  and  C_5
REMARK    3  A    between atoms: C_13  and  C_14
REMARK                            x       y       z     vdW  Elec       q    Type
REMARK                         _______ _______ _______ _____ _____    ______ ____
ROOT
ATOM      1  C   UNL     1       2.441   3.292  19.571  0.00  0.00    +0.000 C 
ATOM      2  N   UNL     1       3.326   4.433  19.378  0.00  0.00    +0.000 N 
ATOM      3  C   UNL     1       4.696   4.220  19.216  0.00  0.00    +0.000 C 
ATOM      4  O   UNL     1       5.199   3.113  19.431  0.00  0.00    +0.000 OA
ATOM      5  C   UNL     1       2.776   5.631  18.980  0.00  0.00    +0.000 A 
ATOM      6  N   UNL     1       2.576   6.063  17.760  0.00  0.00    +0.000 NA
ATOM      7  N   UNL     1       2.066   7.349  17.761  0.00  0.00    +0.000 NA
ATOM      8  C   UNL     1       1.918   7.830  18.988  0.00  0.00    +0.000 A 
ATOM      9  S   UNL     1       2.306   6.692  20.222  0.00  0.00    +0.000 S 
ENDROOT
BRANCH   8  10
ATOM     10  C   UNL     1       1.496   9.193  19.327  0.00  0.00    +0.000 A 
ATOM     11  C   UNL     1       1.575  10.230  18.404  0.00  0.00    +0.000 A 
ATOM     12  N   UNL     1       1.205  11.508  18.702  0.00  0.00    +0.000 NA
ATOM     13  C   UNL     1       0.772  11.698  19.964  0.00  0.00    +0.000 A 
ATOM     14  C   UNL     1       0.700  10.672  20.889  0.00  0.00    +0.000 A 
ATOM     15  N   UNL     1       1.058   9.402  20.593  0.00  0.00    +0.000 NA
ENDBRANCH   8  10
BRANCH   3  16
ATOM     16  C   UNL     1       5.592   5.408  18.826  0.00  0.00    +0.000 C 
ATOM     17  C   UNL     1       6.021   5.370  17.373  0.00  0.00    +0.000 C 
ATOM     18  C   UNL     1       7.347   4.652  17.406  0.00  0.00    +0.000 C 
ATOM     19  O   UNL     1       7.948   4.967  18.663  0.00  0.00    +0.000 OA
ATOM     20  C   UNL     1       6.920   5.390  19.572  0.00  0.00    +0.000 C 
ENDBRANCH   3  16
TORSDOF 2
ENDMDL
MODEL 2
REMARK VINA RESULT:      -6.1      4.199      5.350
REMARK  Name = 
REMARK  3 active torsions:
REMARK  status: ('A' for Active; 'I' for Inactive)
REMARK    1  A    between atoms: C_1  and  N_2
REMARK    2  A    between atoms: C_3  and  C_5
REMARK    3  A    between atoms: C_13  and  C_14
REMARK                            x       y       z     vdW  Elec       q    Type
REMARK                         _______ _______ _______ _____ _____    ______ ____
ROOT
ATOM      1  C   UNL     1       6.086   3.969  14.958  0.00  0.00    +0.000 C 
ATOM      2  N   UNL     1       6.002   4.716  16.207  0.00  0.00    +0.000 N 
ATOM      3  C   UNL     1       6.867   5.788  16.425  0.00  0.00    +0.000 C 
ATOM      4  O   UNL     1       7.830   5.994  15.679  0.00  0.00    +0.000 OA
ATOM      5  C   UNL     1       4.854   4.607  16.960  0.00  0.00    +0.000 A 
ATOM      6  N   UNL     1       3.770   5.339  16.890  0.00  0.00    +0.000 NA
ATOM      7  N   UNL     1       2.854   4.973  17.860  0.00  0.00    +0.000 NA
ATOM      8  C   UNL     1       3.302   3.986  18.626  0.00  0.00    +0.000 A 
ATOM      9  S   UNL     1       4.839   3.381  18.137  0.00  0.00    +0.000 S 
ENDROOT
BRANCH   8  10
ATOM     10  C   UNL     1       2.617   3.438  19.801  0.00  0.00    +0.000 A 
ATOM     11  C   UNL     1       3.324   2.874  20.857  0.00  0.00    +0.000 A 
ATOM     12  N   UNL     1       2.708   2.343  21.952  0.00  0.00    +0.000 NA
ATOM     13  C   UNL     1       1.361   2.389  21.929  0.00  0.00    +0.000 A 
ATOM     14  C   UNL     1       0.653   2.942  20.877  0.00  0.00    +0.000 A 
ATOM     15  N   UNL     1       1.262   3.476  19.794  0.00  0.00    +0.000 NA
ENDBRANCH   8  10
BRANCH   3  16
ATOM     16  C   UNL     1       6.645   6.683  17.656  0.00  0.00    +0.000 C 
ATOM     17  C   UNL     1       6.757   8.161  17.338  0.00  0.00    +0.000 C 
ATOM     18  C   UNL     1       8.202   8.484  17.625  0.00  0.00    +0.000 C 
ATOM     19  O   UNL     1       8.611   7.610  18.679  0.00  0.00    +0.000 OA
ATOM     20  C   UNL     1       7.725   6.480  18.711  0.00  0.00    +0.000 C 
ENDBRANCH   3  16
TORSDOF 2
ENDMDL
MODEL 3
REMARK VINA RESULT:      -6.1      0.654      1.111
REMARK  Name = 
REMARK  3 active torsions:
REMARK  status: ('A' for Active; 'I' for Inactive)
REMARK    1  A    between atoms: C_1  and  N_2
REMARK    2  A    between atoms: C_3  and  C_5
REMARK    3  A    between atoms: C_13  and  C_14
REMARK                            x       y       z     vdW  Elec       q    Type
REMARK                         _______ _______ _______ _____ _____    ______ ____
ROOT
ATOM      1  C   UNL     1       2.399   3.260  19.561  0.00  0.00    +0.000 C 
ATOM      2  N   UNL     1       3.280   4.411  19.410  0.00  0.00    +0.000 N 
ATOM      3  C   UNL     1       4.642   4.208  19.187  0.00  0.00    +0.000 C 
ATOM      4  O   UNL     1       5.150   3.089  19.312  0.00  0.00    +0.000 OA
ATOM      5  C   UNL     1       2.719   5.632  19.111  0.00  0.00    +0.000 A 
ATOM      6  N   UNL     1       2.478   6.142  17.928  0.00  0.00    +0.000 NA
ATOM      7  N   UNL     1       1.972   7.425  18.030  0.00  0.00    +0.000 NA
ATOM      8  C   UNL     1       1.869   7.826  19.290  0.00  0.00    +0.000 A 
ATOM      9  S   UNL     1       2.297   6.612  20.434  0.00  0.00    +0.000 S 
ENDROOT
BRANCH   8  10
ATOM     10  C   UNL     1       1.463   9.165  19.730  0.00  0.00    +0.000 A 
ATOM     11  C   UNL     1       1.164   9.433  21.062  0.00  0.00    +0.000 A 
ATOM     12  N   UNL     1       0.768  10.666  21.491  0.00  0.00    +0.000 NA
ATOM     13  C   UNL     1       0.670  11.603  20.528  0.00  0.00    +0.000 A 
ATOM     14  C   UNL     1       0.959  11.339  19.201  0.00  0.00    +0.000 A 
ATOM     15  N   UNL     1       1.360  10.120  18.774  0.00  0.00    +0.000 NA
ENDBRANCH   8  10
BRANCH   3  16
ATOM     16  C   UNL     1       5.528   5.417  18.843  0.00  0.00    +0.000 C 
ATOM     17  C   UNL     1       5.937   5.452  17.384  0.00  0.00    +0.000 C 
ATOM     18  C   UNL     1       7.266   4.740  17.365  0.00  0.00    +0.000 C 
ATOM     19  O   UNL     1       7.883   4.998  18.627  0.00  0.00    +0.000 OA
ATOM     20  C   UNL     1       6.865   5.371  19.569  0.00  0.00    +0.000 C 
ENDBRANCH   3  16
TORSDOF 2
ENDMDL
MODEL 4
REMARK VINA RESULT:      -5.8      1.433      1.874
REMARK  Name = 
REMARK  3 active torsions:
REMARK  status: ('A' for Active; 'I' for Inactive)
REMARK    1  A    between atoms: C_1  and  N_2
REMARK    2  A    between atoms: C_3  and  C_5
REMARK    3  A    between atoms: C_13  and  C_14
REMARK                            x       y       z     vdW  Elec       q    Type
REMARK                         _______ _______ _______ _____ _____    ______ ____
ROOT
ATOM      1  C   UNL     1       2.357   3.914  17.505  0.00  0.00    +0.000 C 
ATOM      2  N   UNL     1       3.188   4.938  18.126  0.00  0.00    +0.000 N 
ATOM      3  C   UNL     1       4.578   4.834  18.049  0.00  0.00    +0.000 C 
ATOM      4  O   UNL     1       5.119   3.800  17.645  0.00  0.00    +0.000 OA
ATOM      5  C   UNL     1       2.616   6.152  18.430  0.00  0.00    +0.000 A 
ATOM      6  N   UNL     1       2.533   7.218  17.673  0.00  0.00    +0.000 NA
ATOM      7  N   UNL     1       1.948   8.272  18.353  0.00  0.00    +0.000 NA
ATOM      8  C   UNL     1       1.631   7.950  19.600  0.00  0.00    +0.000 A 
ATOM      9  S   UNL     1       1.942   6.300  19.983  0.00  0.00    +0.000 S 
ENDROOT
BRANCH   8  10
ATOM     10  C   UNL     1       1.091   8.867  20.609  0.00  0.00    +0.000 A 
ATOM     11  C   UNL     1       1.444   8.764  21.950  0.00  0.00    +0.000 A 
ATOM     12  N   UNL     1       0.941   9.595  22.907  0.00  0.00    +0.000 NA
ATOM     13  C   UNL     1       0.062  10.514  22.463  0.00  0.00    +0.000 A 
ATOM     14  C   UNL     1      -0.300  10.615  21.131  0.00  0.00    +0.000 A 
ATOM     15  N   UNL     1       0.204   9.798  20.178  0.00  0.00    +0.000 NA
ENDBRANCH   8  10
BRANCH   3  16
ATOM     16  C   UNL     1       5.439   6.009  18.541  0.00  0.00    +0.000 C 
ATOM     17  C   UNL     1       6.002   6.841  17.406  0.00  0.00    +0.000 C 
ATOM     18  C   UNL     1       7.357   6.231  17.148  0.00  0.00    +0.000 C 
ATOM     19  O   UNL     1       7.820   5.728  18.402  0.00  0.00    +0.000 OA
ATOM     20  C   UNL     1       6.691   5.535  19.267  0.00  0.00    +0.000 C 
ENDBRANCH   3  16
TORSDOF 2
ENDMDL
MODEL 5
REMARK VINA RESULT:      -5.7      4.099      5.265
REMARK  Name = 
REMARK  3 active torsions:
REMARK  status: ('A' for Active; 'I' for Inactive)
REMARK    1  A    between atoms: C_1  and  N_2
REMARK    2  A    between atoms: C_3  and  C_5
REMARK    3  A    between atoms: C_13  and  C_14
REMARK                            x       y       z     vdW  Elec       q    Type
REMARK                         _______ _______ _______ _____ _____    ______ ____
ROOT
ATOM      1  C   UNL     1       5.956   4.376  14.809  0.00  0.00    +0.000 C 
ATOM      2  N   UNL     1       5.931   4.993  16.128  0.00  0.00    +0.000 N 
ATOM      3  C   UNL     1       6.865   5.982  16.442  0.00  0.00    +0.000 C 
ATOM      4  O   UNL     1       7.831   6.203  15.705  0.00  0.00    +0.000 OA
ATOM      5  C   UNL     1       4.786   4.879  16.885  0.00  0.00    +0.000 A 
ATOM      6  N   UNL     1       3.750   5.680  16.909  0.00  0.00    +0.000 NA
ATOM      7  N   UNL     1       2.823   5.273  17.851  0.00  0.00    +0.000 NA
ATOM      8  C   UNL     1       3.215   4.186  18.504  0.00  0.00    +0.000 A 
ATOM      9  S   UNL     1       4.705   3.541  17.930  0.00  0.00    +0.000 S 
ENDROOT
BRANCH   8  10
ATOM     10  C   UNL     1       2.508   3.563  19.628  0.00  0.00    +0.000 A 
ATOM     11  C   UNL     1       1.119   3.546  19.694  0.00  0.00    +0.000 A 
ATOM     12  N   UNL     1       0.441   2.988  20.738  0.00  0.00    +0.000 NA
ATOM     13  C   UNL     1       1.215   2.468  21.711  0.00  0.00    +0.000 A 
ATOM     14  C   UNL     1       2.598   2.490  21.653  0.00  0.00    +0.000 A 
ATOM     15  N   UNL     1       3.272   3.036  20.615  0.00  0.00    +0.000 NA
ENDBRANCH   8  10
BRANCH   3  16
ATOM     16  C   UNL     1       6.713   6.757  17.762  0.00  0.00    +0.000 C 
ATOM     17  C   UNL     1       6.735   8.260  17.568  0.00  0.00    +0.000 C 
ATOM     18  C   UNL     1       8.185   8.627  17.764  0.00  0.00    +0.000 C 
ATOM     19  O   UNL     1       8.718   7.688  18.698  0.00  0.00    +0.000 OA
ATOM     20  C   UNL     1       7.886   6.518  18.703  0.00  0.00    +0.000 C 
ENDBRANCH   3  16
TORSDOF 2
ENDMDL
MODEL 6
REMARK VINA RESULT:      -5.6      4.216      7.241
REMARK  Name = 
REMARK  3 active torsions:
REMARK  status: ('A' for Active; 'I' for Inactive)
REMARK    1  A    between atoms: C_1  and  N_2
REMARK    2  A    between atoms: C_3  and  C_5
REMARK    3  A    between atoms: C_13  and  C_14
REMARK                            x       y       z     vdW  Elec       q    Type
REMARK                         _______ _______ _______ _____ _____    ______ ____
ROOT
ATOM      1  C   UNL     1       6.029   5.416  19.725  0.00  0.00    +0.000 C 
ATOM      2  N   UNL     1       5.121   4.890  18.714  0.00  0.00    +0.000 N 
ATOM      3  C   UNL     1       3.866   4.415  19.099  0.00  0.00    +0.000 C 
ATOM      4  O   UNL     1       3.586   4.244  20.290  0.00  0.00    +0.000 OA
ATOM      5  C   UNL     1       5.345   5.217  17.396  0.00  0.00    +0.000 A 
ATOM      6  N   UNL     1       4.885   6.246  16.729  0.00  0.00    +0.000 NA
ATOM      7  N   UNL     1       5.272   6.197  15.401  0.00  0.00    +0.000 NA
ATOM      8  C   UNL     1       5.998   5.121  15.130  0.00  0.00    +0.000 A 
ATOM      9  S   UNL     1       6.332   4.151  16.513  0.00  0.00    +0.000 S 
ENDROOT
BRANCH   8  10
ATOM     10  C   UNL     1       6.476   4.725  13.801  0.00  0.00    +0.000 A 
ATOM     11  C   UNL     1       5.947   3.624  13.135  0.00  0.00    +0.000 A 
ATOM     12  N   UNL     1       6.388   3.228  11.907  0.00  0.00    +0.000 NA
ATOM     13  C   UNL     1       7.387   3.971  11.391  0.00  0.00    +0.000 A 
ATOM     14  C   UNL     1       7.922   5.062  12.053  0.00  0.00    +0.000 A 
ATOM     15  N   UNL     1       7.481   5.462  13.267  0.00  0.00    +0.000 NA
ENDBRANCH   8  10
BRANCH   3  16
ATOM     16  C   UNL     1       2.847   4.039  18.010  0.00  0.00    +0.000 C 
ATOM     17  C   UNL     1       1.419   4.362  18.403  0.00  0.00    +0.000 C 
ATOM     18  C   UNL     1       0.916   3.081  19.020  0.00  0.00    +0.000 C 
ATOM     19  O   UNL     1       1.600   2.016  18.358  0.00  0.00    +0.000 OA
ATOM     20  C   UNL     1       2.801   2.537  17.766  0.00  0.00    +0.000 C 
ENDBRANCH   3  16
TORSDOF 2
ENDMDL
MODEL 7
REMARK VINA RESULT:      -5.6      2.101      3.861
REMARK  Name = 
REMARK  3 active torsions:
REMARK  status: ('A' for Active; 'I' for Inactive)
REMARK    1  A    between atoms: C_1  and  N_2
REMARK    2  A    between atoms: C_3  and  C_5
REMARK    3  A    between atoms: C_13  and  C_14
REMARK                            x       y       z     vdW  Elec       q    Type
REMARK                         _______ _______ _______ _____ _____    ______ ____
ROOT
ATOM      1  C   UNL     1       5.000   6.231  18.671  0.00  0.00    +0.000 C 
ATOM      2  N   UNL     1       3.556   6.036  18.684  0.00  0.00    +0.000 N 
ATOM      3  C   UNL     1       3.039   4.740  18.684  0.00  0.00    +0.000 C 
ATOM      4  O   UNL     1       3.764   3.763  18.472  0.00  0.00    +0.000 OA
ATOM      5  C   UNL     1       2.755   7.085  19.077  0.00  0.00    +0.000 A 
ATOM      6  N   UNL     1       2.345   7.378  20.286  0.00  0.00    +0.000 NA
ATOM      7  N   UNL     1       1.494   8.469  20.275  0.00  0.00    +0.000 NA
ATOM      8  C   UNL     1       1.294   8.938  19.050  0.00  0.00    +0.000 A 
ATOM      9  S   UNL     1       2.219   8.125  17.845  0.00  0.00    +0.000 S 
ENDROOT
BRANCH   8  10
ATOM     10  C   UNL     1       0.372  10.019  18.688  0.00  0.00    +0.000 A 
ATOM     11  C   UNL     1       0.545  11.313  19.166  0.00  0.00    +0.000 A 
ATOM     12  N   UNL     1      -0.310  12.330  18.857  0.00  0.00    +0.000 NA
ATOM     13  C   UNL     1      -1.346  11.986  18.068  0.00  0.00    +0.000 A 
ATOM     14  C   UNL     1      -1.528  10.698  17.597  0.00  0.00    +0.000 A 
ATOM     15  N   UNL     1      -0.677   9.690  17.895  0.00  0.00    +0.000 NA
ENDBRANCH   8  10
BRANCH   3  16
ATOM     16  C   UNL     1       1.527   4.543  18.887  0.00  0.00    +0.000 C 
ATOM     17  C   UNL     1       1.168   4.175  20.313  0.00  0.00    +0.000 C 
ATOM     18  C   UNL     1       1.149   2.667  20.304  0.00  0.00    +0.000 C 
ATOM     19  O   UNL     1       0.743   2.275  18.992  0.00  0.00    +0.000 OA
ATOM     20  C   UNL     1       0.992   3.363  18.087  0.00  0.00    +0.000 C 
ENDBRANCH   3  16
TORSDOF 2
ENDMDL
MODEL 8
REMARK VINA RESULT:      -5.6      2.064      3.827
REMARK  Name = 
REMARK  3 active torsions:
REMARK  status: ('A' for Active; 'I' for Inactive)
REMARK    1  A    between atoms: C_1  and  N_2
REMARK    2  A    between atoms: C_3  and  C_5
REMARK    3  A    between atoms: C_13  and  C_14
REMARK                            x       y       z     vdW  Elec       q    Type
REMARK                         _______ _______ _______ _____ _____    ______ ____
ROOT
ATOM      1  C   UNL     1       4.945   6.244  18.344  0.00  0.00    +0.000 C 
ATOM      2  N   UNL     1       3.507   6.053  18.479  0.00  0.00    +0.000 N 
ATOM      3  C   UNL     1       2.985   4.759  18.510  0.00  0.00    +0.000 C 
ATOM      4  O   UNL     1       3.686   3.782  18.226  0.00  0.00    +0.000 OA
ATOM      5  C   UNL     1       2.747   7.101  18.951  0.00  0.00    +0.000 A 
ATOM      6  N   UNL     1       2.443   7.382  20.193  0.00  0.00    +0.000 NA
ATOM      7  N   UNL     1       1.599   8.476  20.267  0.00  0.00    +0.000 NA
ATOM      8  C   UNL     1       1.297   8.959  19.069  0.00  0.00    +0.000 A 
ATOM      9  S   UNL     1       2.112   8.157  17.781  0.00  0.00    +0.000 S 
ENDROOT
BRANCH   8  10
ATOM     10  C   UNL     1       0.352  10.047  18.799  0.00  0.00    +0.000 A 
ATOM     11  C   UNL     1      -0.722   9.879  17.932  0.00  0.00    +0.000 A 
ATOM     12  N   UNL     1      -1.604  10.882  17.653  0.00  0.00    +0.000 NA
ATOM     13  C   UNL     1      -1.349  12.055  18.266  0.00  0.00    +0.000 A 
ATOM     14  C   UNL     1      -0.277  12.229  19.124  0.00  0.00    +0.000 A 
ATOM     15  N   UNL     1       0.594  11.234  19.408  0.00  0.00    +0.000 NA
ENDBRANCH   8  10
BRANCH   3  16
ATOM     16  C   UNL     1       1.496   4.566  18.840  0.00  0.00    +0.000 C 
ATOM     17  C   UNL     1       1.254   4.239  20.301  0.00  0.00    +0.000 C 
ATOM     18  C   UNL     1       1.242   2.731  20.336  0.00  0.00    +0.000 C 
ATOM     19  O   UNL     1       0.733   2.300  19.073  0.00  0.00    +0.000 OA
ATOM     20  C   UNL     1       0.903   3.361  18.121  0.00  0.00    +0.000 C 
ENDBRANCH   3  16
TORSDOF 2
ENDMDL
MODEL 9
REMARK VINA RESULT:      -5.5      1.361      1.519
REMARK  Name = 
REMARK  3 active torsions:
REMARK  status: ('A' for Active; 'I' for Inactive)
REMARK    1  A    between atoms: C_1  and  N_2
REMARK    2  A    between atoms: C_3  and  C_5
REMARK    3  A    between atoms: C_13  and  C_14
REMARK                            x       y       z     vdW  Elec       q    Type
REMARK                         _______ _______ _______ _____ _____    ______ ____
ROOT
ATOM      1  C   UNL     1       2.379   3.840  17.543  0.00  0.00    +0.000 C 
ATOM      2  N   UNL     1       3.211   4.877  18.140  0.00  0.00    +0.000 N 
ATOM      3  C   UNL     1       4.600   4.766  18.073  0.00  0.00    +0.000 C 
ATOM      4  O   UNL     1       5.140   3.719  17.701  0.00  0.00    +0.000 OA
ATOM      5  C   UNL     1       2.642   6.102  18.408  0.00  0.00    +0.000 A 
ATOM      6  N   UNL     1       2.566   7.147  17.621  0.00  0.00    +0.000 NA
ATOM      7  N   UNL     1       1.983   8.221  18.269  0.00  0.00    +0.000 NA
ATOM      8  C   UNL     1       1.658   7.935  19.523  0.00  0.00    +0.000 A 
ATOM      9  S   UNL     1       1.961   6.295  19.953  0.00  0.00    +0.000 S 
ENDROOT
BRANCH   8  10
ATOM     10  C   UNL     1       1.116   8.882  20.503  0.00  0.00    +0.000 A 
ATOM     11  C   UNL     1       0.626  10.125  20.119  0.00  0.00    +0.000 A 
ATOM     12  N   UNL     1       0.134  11.028  21.015  0.00  0.00    +0.000 NA
ATOM     13  C   UNL     1       0.172  10.635  22.303  0.00  0.00    +0.000 A 
ATOM     14  C   UNL     1       0.666   9.403  22.691  0.00  0.00    +0.000 A 
ATOM     15  N   UNL     1       1.147   8.502  21.804  0.00  0.00    +0.000 NA
ENDBRANCH   8  10
BRANCH   3  16
ATOM     16  C   UNL     1       5.464   5.951  18.536  0.00  0.00    +0.000 C 
ATOM     17  C   UNL     1       6.039   6.747  17.382  0.00  0.00    +0.000 C 
ATOM     18  C   UNL     1       7.393   6.122  17.152  0.00  0.00    +0.000 C 
ATOM     19  O   UNL     1       7.844   5.654  18.424  0.00  0.00    +0.000 OA
ATOM     20  C   UNL     1       6.707   5.493  19.286  0.00  0.00    +0.000 C 
ENDBRANCH   3  16
TORSDOF 2
ENDMDL
