MODEL 1
REMARK VINA RESULT:      -7.1      0.000      0.000
REMARK  Name = 
REMARK  6 active torsions:
REMARK  status: ('A' for Active; 'I' for Inactive)
REMARK    1  A    between atoms: C_1  and  O_2
REMARK    2  A    between atoms: O_2  and  C_3
REMARK    3  A    between atoms: C_8  and  N_9
REMARK    4  A    between atoms: N_9  and  C_10
REMARK    5  A    between atoms: C_10  and  C_11
REMARK    6  A    between atoms: C_11  and  N_12
REMARK                            x       y       z     vdW  Elec       q    Type
REMARK                         _______ _______ _______ _____ _____    ______ ____
ROOT
ATOM      1  C   UNL     1       2.002   8.740  18.335  0.00  0.00    +0.000 A 
ATOM      2  C   UNL     1       1.698   8.207  19.590  0.00  0.00    +0.000 A 
ATOM      3  C   UNL     1       2.309   7.025  20.028  0.00  0.00    +0.000 A 
ATOM      4  C   UNL     1       3.237   6.382  19.210  0.00  0.00    +0.000 A 
ATOM      5  O   UNL     1       3.805   5.218  19.672  0.00  0.00    +0.000 OA
ATOM      6  C   UNL     1       4.749   4.577  18.874  0.00  0.00    +0.000 A 
ATOM      7  C   UNL     1       5.117   5.033  17.670  0.00  0.00    +0.000 A 
ATOM      8  C   UNL     1       4.535   6.261  17.116  0.00  0.00    +0.000 A 
ATOM      9  O   UNL     1       4.854   6.683  16.032  0.00  0.00    +0.000 OA
ATOM     10  C   UNL     1       3.546   6.931  17.971  0.00  0.00    +0.000 A 
ATOM     11  C   UNL     1       2.943   8.111  17.526  0.00  0.00    +0.000 A 
ENDROOT
BRANCH   1  13
ATOM     12  C   UNL     1       1.111  10.767  19.105  0.00  0.00    +0.000 C 
ATOM     13  O   UNL     1       1.371   9.907  17.996  0.00  0.00    +0.000 OA
ENDBRANCH   1  13
BRANCH   6  14
ATOM     14  N   UNL     1       5.266   3.398  19.380  0.00  0.00    +0.000 N 
ATOM     15  H   UNL     1       6.186   3.151  19.033  0.00  0.00    +0.000 HD
BRANCH  14  16
ATOM     16  C   UNL     1       4.413   2.310  19.850  0.00  0.00    +0.000 C 
BRANCH  16  17
ATOM     17  C   UNL     1       3.361   1.869  18.824  0.00  0.00    +0.000 C 
BRANCH  17  18
ATOM     18  N   UNL     1       2.041   1.671  19.466  0.00  0.00    +0.000 NA
ATOM     19  C   UNL     1       0.948   2.203  18.641  0.00  0.00    +0.000 C 
ATOM     20  C   UNL     1       0.850   3.658  19.046  0.00  0.00    +0.000 C 
ATOM     21  C   UNL     1       1.052   3.595  20.546  0.00  0.00    +0.000 C 
ATOM     22  C   UNL     1       1.933   2.372  20.759  0.00  0.00    +0.000 C 
ENDBRANCH  17  18
ENDBRANCH  16  17
ENDBRANCH  14  16
ENDBRANCH   6  14
TORSDOF 5
ENDMDL
MODEL 2
REMARK VINA RESULT:      -6.9      2.623      3.891
REMARK  Name = 
REMARK  6 active torsions:
REMARK  status: ('A' for Active; 'I' for Inactive)
REMARK    1  A    between atoms: C_1  and  O_2
REMARK    2  A    between atoms: O_2  and  C_3
REMARK    3  A    between atoms: C_8  and  N_9
REMARK    4  A    between atoms: N_9  and  C_10
REMARK    5  A    between atoms: C_10  and  C_11
REMARK    6  A    between atoms: C_11  and  N_12
REMARK                            x       y       z     vdW  Elec       q    Type
REMARK                         _______ _______ _______ _____ _____    ______ ____
ROOT
ATOM      1  C   UNL     1       7.972   7.923  17.908  0.00  0.00    +0.000 A 
ATOM      2  C   UNL     1       8.290   7.094  18.987  0.00  0.00    +0.000 A 
ATOM      3  C   UNL     1       7.647   5.861  19.151  0.00  0.00    +0.000 A 
ATOM      4  C   UNL     1       6.690   5.451  18.223  0.00  0.00    +0.000 A 
ATOM      5  O   UNL     1       6.074   4.239  18.426  0.00  0.00    +0.000 OA
ATOM      6  C   UNL     1       5.131   3.808  17.496  0.00  0.00    +0.000 A 
ATOM      7  C   UNL     1       4.787   4.528  16.421  0.00  0.00    +0.000 A 
ATOM      8  C   UNL     1       5.398   5.836  16.158  0.00  0.00    +0.000 A 
ATOM      9  O   UNL     1       5.095   6.497  15.195  0.00  0.00    +0.000 OA
ATOM     10  C   UNL     1       6.394   6.275  17.143  0.00  0.00    +0.000 A 
ATOM     11  C   UNL     1       7.032   7.506  16.970  0.00  0.00    +0.000 A 
ENDROOT
BRANCH   1  13
ATOM     12  C   UNL     1       9.046   9.646  19.079  0.00  0.00    +0.000 C 
ATOM     13  O   UNL     1       8.661   9.102  17.817  0.00  0.00    +0.000 OA
ENDBRANCH   1  13
BRANCH   6  14
ATOM     14  N   UNL     1       4.527   2.594  17.767  0.00  0.00    +0.000 N 
ATOM     15  H   UNL     1       5.114   1.781  17.615  0.00  0.00    +0.000 HD
BRANCH  14  16
ATOM     16  C   UNL     1       3.082   2.404  17.678  0.00  0.00    +0.000 C 
BRANCH  16  17
ATOM     17  C   UNL     1       2.387   2.340  19.044  0.00  0.00    +0.000 C 
BRANCH  17  18
ATOM     18  N   UNL     1       1.301   3.343  19.136  0.00  0.00    +0.000 NA
ATOM     19  C   UNL     1       1.594   4.540  18.334  0.00  0.00    +0.000 C 
ATOM     20  C   UNL     1       2.396   5.424  19.265  0.00  0.00    +0.000 C 
ATOM     21  C   UNL     1       1.684   5.238  20.589  0.00  0.00    +0.000 C 
ATOM     22  C   UNL     1       1.102   3.833  20.512  0.00  0.00    +0.000 C 
ENDBRANCH  17  18
ENDBRANCH  16  17
ENDBRANCH  14  16
ENDBRANCH   6  14
TORSDOF 5
ENDMDL
MODEL 3
REMARK VINA RESULT:      -6.8      1.871      4.144
REMARK  Name = 
REMARK  6 active torsions:
REMARK  status: ('A' for Active; 'I' for Inactive)
REMARK    1  A    between atoms: C_1  and  O_2
REMARK    2  A    between atoms: O_2  and  C_3
REMARK    3  A    between atoms: C_8  and  N_9
REMARK    4  A    between atoms: N_9  and  C_10
REMARK    5  A    between atoms: C_10  and  C_11
REMARK    6  A    between atoms: C_11  and  N_12
REMARK                            x       y       z     vdW  Elec       q    Type
REMARK                         _______ _______ _______ _____ _____    ______ ____
ROOT
ATOM      1  C   UNL     1       6.691   5.616  16.253  0.00  0.00    +0.000 A 
ATOM      2  C   UNL     1       7.090   4.632  17.162  0.00  0.00    +0.000 A 
ATOM      3  C   UNL     1       6.340   4.386  18.318  0.00  0.00    +0.000 A 
ATOM      4  C   UNL     1       5.179   5.120  18.560  0.00  0.00    +0.000 A 
ATOM      5  O   UNL     1       4.478   4.856  19.713  0.00  0.00    +0.000 OA
ATOM      6  C   UNL     1       3.306   5.567  19.956  0.00  0.00    +0.000 A 
ATOM      7  C   UNL     1       2.839   6.508  19.125  0.00  0.00    +0.000 A 
ATOM      8  C   UNL     1       3.551   6.846  17.888  0.00  0.00    +0.000 A 
ATOM      9  O   UNL     1       3.144   7.693  17.131  0.00  0.00    +0.000 OA
ATOM     10  C   UNL     1       4.782   6.084  17.641  0.00  0.00    +0.000 A 
ATOM     11  C   UNL     1       5.522   6.335  16.482  0.00  0.00    +0.000 A 
ENDROOT
BRANCH   1  13
ATOM     12  C   UNL     1       7.200   4.842  14.100  0.00  0.00    +0.000 C 
ATOM     13  O   UNL     1       7.474   5.777  15.142  0.00  0.00    +0.000 OA
ENDBRANCH   1  13
BRANCH   6  14
ATOM     14  N   UNL     1       2.658   5.276  21.143  0.00  0.00    +0.000 N 
ATOM     15  H   UNL     1       2.993   5.791  21.949  0.00  0.00    +0.000 HD
BRANCH  14  16
ATOM     16  C   UNL     1       2.022   3.985  21.389  0.00  0.00    +0.000 C 
BRANCH  16  17
ATOM     17  C   UNL     1       2.758   2.806  20.741  0.00  0.00    +0.000 C 
BRANCH  17  18
ATOM     18  N   UNL     1       1.895   2.118  19.752  0.00  0.00    +0.000 NA
ATOM     19  C   UNL     1       2.666   1.641  18.594  0.00  0.00    +0.000 C 
ATOM     20  C   UNL     1       2.691   2.823  17.650  0.00  0.00    +0.000 C 
ATOM     21  C   UNL     1       1.285   3.373  17.776  0.00  0.00    +0.000 C 
ATOM     22  C   UNL     1       0.861   3.008  19.192  0.00  0.00    +0.000 C 
ENDBRANCH  17  18
ENDBRANCH  16  17
ENDBRANCH  14  16
ENDBRANCH   6  14
TORSDOF 5
ENDMDL
MODEL 4
REMARK VINA RESULT:      -6.7      4.584      7.292
REMARK  Name = 
REMARK  6 active torsions:
REMARK  status: ('A' for Active; 'I' for Inactive)
REMARK    1  A    between atoms: C_1  and  O_2
REMARK    2  A    between atoms: O_2  and  C_3
REMARK    3  A    between atoms: C_8  and  N_9
REMARK    4  A    between atoms: N_9  and  C_10
REMARK    5  A    between atoms: C_10  and  C_11
REMARK    6  A    between atoms: C_11  and  N_12
REMARK                            x       y       z     vdW  Elec       q    Type
REMARK                         _______ _______ _______ _____ _____    ______ ____
ROOT
ATOM      1  C   UNL     1       2.463   4.135  17.673  0.00  0.00    +0.000 A 
ATOM      2  C   UNL     1       2.405   5.334  18.389  0.00  0.00    +0.000 A 
ATOM      3  C   UNL     1       3.495   6.214  18.393  0.00  0.00    +0.000 A 
ATOM      4  C   UNL     1       4.643   5.896  17.668  0.00  0.00    +0.000 A 
ATOM      5  O   UNL     1       5.695   6.780  17.708  0.00  0.00    +0.000 OA
ATOM      6  C   UNL     1       6.840   6.486  16.972  0.00  0.00    +0.000 A 
ATOM      7  C   UNL     1       6.969   5.372  16.240  0.00  0.00    +0.000 A 
ATOM      8  C   UNL     1       5.887   4.382  16.171  0.00  0.00    +0.000 A 
ATOM      9  O   UNL     1       5.990   3.373  15.518  0.00  0.00    +0.000 OA
ATOM     10  C   UNL     1       4.684   4.709  16.946  0.00  0.00    +0.000 A 
ATOM     11  C   UNL     1       3.600   3.827  16.933  0.00  0.00    +0.000 A 
ENDROOT
BRANCH   1  13
ATOM     12  C   UNL     1       1.208   2.596  18.919  0.00  0.00    +0.000 C 
ATOM     13  O   UNL     1       1.346   3.345  17.712  0.00  0.00    +0.000 OA
ENDBRANCH   1  13
BRANCH   6  14
ATOM     14  N   UNL     1       7.874   7.399  17.072  0.00  0.00    +0.000 N 
ATOM     15  H   UNL     1       8.801   6.991  17.112  0.00  0.00    +0.000 HD
BRANCH  14  16
ATOM     16  C   UNL     1       7.695   8.718  17.671  0.00  0.00    +0.000 C 
BRANCH  16  17
ATOM     17  C   UNL     1       8.812   9.104  18.649  0.00  0.00    +0.000 C 
BRANCH  17  18
ATOM     18  N   UNL     1       8.737  10.540  19.003  0.00  0.00    +0.000 NA
ATOM     19  C   UNL     1       9.353  11.389  17.974  0.00  0.00    +0.000 C 
ATOM     20  C   UNL     1      10.816  11.440  18.361  0.00  0.00    +0.000 C 
ATOM     21  C   UNL     1      10.752  11.558  19.870  0.00  0.00    +0.000 C 
ATOM     22  C   UNL     1       9.459  10.851  20.251  0.00  0.00    +0.000 C 
ENDBRANCH  17  18
ENDBRANCH  16  17
ENDBRANCH  14  16
ENDBRANCH   6  14
TORSDOF 5
ENDMDL
MODEL 5
REMARK VINA RESULT:      -6.7      2.947      3.902
REMARK  Name = 
REMARK  6 active torsions:
REMARK  status: ('A' for Active; 'I' for Inactive)
REMARK    1  A    between atoms: C_1  and  O_2
REMARK    2  A    between atoms: O_2  and  C_3
REMARK    3  A    between atoms: C_8  and  N_9
REMARK    4  A    between atoms: N_9  and  C_10
REMARK    5  A    between atoms: C_10  and  C_11
REMARK    6  A    between atoms: C_11  and  N_12
REMARK                            x       y       z     vdW  Elec       q    Type
REMARK                         _______ _______ _______ _____ _____    ______ ____
ROOT
ATOM      1  C   UNL     1       8.041   7.800  18.309  0.00  0.00    +0.000 A 
ATOM      2  C   UNL     1       8.293   6.766  19.215  0.00  0.00    +0.000 A 
ATOM      3  C   UNL     1       7.602   5.552  19.119  0.00  0.00    +0.000 A 
ATOM      4  C   UNL     1       6.664   5.367  18.104  0.00  0.00    +0.000 A 
ATOM      5  O   UNL     1       5.999   4.165  18.052  0.00  0.00    +0.000 OA
ATOM      6  C   UNL     1       5.075   3.960  17.031  0.00  0.00    +0.000 A 
ATOM      7  C   UNL     1       4.792   4.887  16.107  0.00  0.00    +0.000 A 
ATOM      8  C   UNL     1       5.457   6.196  16.120  0.00  0.00    +0.000 A 
ATOM      9  O   UNL     1       5.210   7.041  15.296  0.00  0.00    +0.000 OA
ATOM     10  C   UNL     1       6.434   6.395  17.198  0.00  0.00    +0.000 A 
ATOM     11  C   UNL     1       7.119   7.610  17.283  0.00  0.00    +0.000 A 
ENDROOT
BRANCH   1  13
ATOM     12  C   UNL     1       8.178  10.099  17.876  0.00  0.00    +0.000 C 
ATOM     13  O   UNL     1       8.773   8.945  18.467  0.00  0.00    +0.000 OA
ENDBRANCH   1  13
BRANCH   6  14
ATOM     14  N   UNL     1       4.420   2.742  17.046  0.00  0.00    +0.000 N 
ATOM     15  H   UNL     1       4.552   2.175  16.215  0.00  0.00    +0.000 HD
BRANCH  14  16
ATOM     16  C   UNL     1       3.203   2.519  17.822  0.00  0.00    +0.000 C 
BRANCH  16  17
ATOM     17  C   UNL     1       3.470   2.063  19.262  0.00  0.00    +0.000 C 
BRANCH  17  18
ATOM     18  N   UNL     1       3.325   3.189  20.213  0.00  0.00    +0.000 NA
ATOM     19  C   UNL     1       2.705   2.761  21.475  0.00  0.00    +0.000 C 
ATOM     20  C   UNL     1       1.218   2.877  21.217  0.00  0.00    +0.000 C 
ATOM     21  C   UNL     1       1.122   4.164  20.424  0.00  0.00    +0.000 C 
ATOM     22  C   UNL     1       2.453   4.258  19.692  0.00  0.00    +0.000 C 
ENDBRANCH  17  18
ENDBRANCH  16  17
ENDBRANCH  14  16
ENDBRANCH   6  14
TORSDOF 5
ENDMDL
MODEL 6
REMARK VINA RESULT:      -6.5      5.646      8.568
REMARK  Name = 
REMARK  6 active torsions:
REMARK  status: ('A' for Active; 'I' for Inactive)
REMARK    1  A    between atoms: C_1  and  O_2
REMARK    2  A    between atoms: O_2  and  C_3
REMARK    3  A    between atoms: C_8  and  N_9
REMARK    4  A    between atoms: N_9  and  C_10
REMARK    5  A    between atoms: C_10  and  C_11
REMARK    6  A    between atoms: C_11  and  N_12
REMARK                            x       y       z     vdW  Elec       q    Type
REMARK                         _______ _______ _______ _____ _____    ______ ____
ROOT
ATOM      1  C   UNL     1       4.626   3.998  17.865  0.00  0.00    +0.000 A 
ATOM      2  C   UNL     1       4.154   4.874  16.884  0.00  0.00    +0.000 A 
ATOM      3  C   UNL     1       4.810   6.086  16.636  0.00  0.00    +0.000 A 
ATOM      4  C   UNL     1       5.951   6.417  17.366  0.00  0.00    +0.000 A 
ATOM      5  O   UNL     1       6.559   7.621  17.101  0.00  0.00    +0.000 OA
ATOM      6  C   UNL     1       7.712   7.954  17.808  0.00  0.00    +0.000 A 
ATOM      7  C   UNL     1       8.245   7.162  18.746  0.00  0.00    +0.000 A 
ATOM      8  C   UNL     1       7.633   5.872  19.086  0.00  0.00    +0.000 A 
ATOM      9  O   UNL     1       8.101   5.149  19.931  0.00  0.00    +0.000 OA
ATOM     10  C   UNL     1       6.423   5.531  18.327  0.00  0.00    +0.000 A 
ATOM     11  C   UNL     1       5.776   4.318  18.580  0.00  0.00    +0.000 A 
ENDROOT
BRANCH   1  13
ATOM     12  C   UNL     1       3.013   2.849  19.119  0.00  0.00    +0.000 C 
ATOM     13  O   UNL     1       3.932   2.830  18.027  0.00  0.00    +0.000 OA
ENDBRANCH   1  13
BRANCH   6  14
ATOM     14  N   UNL     1       8.263   9.188  17.516  0.00  0.00    +0.000 N 
ATOM     15  H   UNL     1       8.593   9.294  16.563  0.00  0.00    +0.000 HD
BRANCH  14  16
ATOM     16  C   UNL     1       8.883  10.027  18.538  0.00  0.00    +0.000 C 
BRANCH  16  17
ATOM     17  C   UNL     1       9.341  11.394  18.013  0.00  0.00    +0.000 C 
BRANCH  17  18
ATOM     18  N   UNL     1       9.765  12.277  19.125  0.00  0.00    +0.000 NA
ATOM     19  C   UNL     1      10.633  13.367  18.656  0.00  0.00    +0.000 C 
ATOM     20  C   UNL     1      12.025  12.773  18.686  0.00  0.00    +0.000 C 
ATOM     21  C   UNL     1      12.010  11.968  19.969  0.00  0.00    +0.000 C 
ATOM     22  C   UNL     1      10.554  11.559  20.143  0.00  0.00    +0.000 C 
ENDBRANCH  17  18
ENDBRANCH  16  17
ENDBRANCH  14  16
ENDBRANCH   6  14
TORSDOF 5
ENDMDL
MODEL 7
REMARK VINA RESULT:      -6.5      5.636      8.726
REMARK  Name = 
REMARK  6 active torsions:
REMARK  status: ('A' for Active; 'I' for Inactive)
REMARK    1  A    between atoms: C_1  and  O_2
REMARK    2  A    between atoms: O_2  and  C_3
REMARK    3  A    between atoms: C_8  and  N_9
REMARK    4  A    between atoms: N_9  and  C_10
REMARK    5  A    between atoms: C_10  and  C_11
REMARK    6  A    between atoms: C_11  and  N_12
REMARK                            x       y       z     vdW  Elec       q    Type
REMARK                         _______ _______ _______ _____ _____    ______ ____
ROOT
ATOM      1  C   UNL     1       4.720   3.940  17.512  0.00  0.00    +0.000 A 
ATOM      2  C   UNL     1       4.440   4.753  16.411  0.00  0.00    +0.000 A 
ATOM      3  C   UNL     1       5.140   5.950  16.214  0.00  0.00    +0.000 A 
ATOM      4  C   UNL     1       6.134   6.327  17.116  0.00  0.00    +0.000 A 
ATOM      5  O   UNL     1       6.790   7.514  16.894  0.00  0.00    +0.000 OA
ATOM      6  C   UNL     1       7.800   7.892  17.775  0.00  0.00    +0.000 A 
ATOM      7  C   UNL     1       8.149   7.159  18.840  0.00  0.00    +0.000 A 
ATOM      8  C   UNL     1       7.475   5.890  19.140  0.00  0.00    +0.000 A 
ATOM      9  O   UNL     1       7.777   5.221  20.097  0.00  0.00    +0.000 OA
ATOM     10  C   UNL     1       6.418   5.501  18.198  0.00  0.00    +0.000 A 
ATOM     11  C   UNL     1       5.726   4.304  18.402  0.00  0.00    +0.000 A 
ENDROOT
BRANCH   1  13
ATOM     12  C   UNL     1       2.589   2.965  17.501  0.00  0.00    +0.000 C 
ATOM     13  O   UNL     1       3.999   2.781  17.616  0.00  0.00    +0.000 OA
ENDBRANCH   1  13
BRANCH   6  14
ATOM     14  N   UNL     1       8.405   9.108  17.515  0.00  0.00    +0.000 N 
ATOM     15  H   UNL     1       8.851   9.177  16.606  0.00  0.00    +0.000 HD
BRANCH  14  16
ATOM     16  C   UNL     1       8.911   9.972  18.577  0.00  0.00    +0.000 C 
BRANCH  16  17
ATOM     17  C   UNL     1       9.028  11.445  18.166  0.00  0.00    +0.000 C 
BRANCH  17  18
ATOM     18  N   UNL     1      10.223  12.074  18.775  0.00  0.00    +0.000 NA
ATOM     19  C   UNL     1      10.141  13.542  18.747  0.00  0.00    +0.000 C 
ATOM     20  C   UNL     1      10.713  13.920  17.397  0.00  0.00    +0.000 C 
ATOM     21  C   UNL     1      11.881  12.966  17.257  0.00  0.00    +0.000 C 
ATOM     22  C   UNL     1      11.465  11.738  18.055  0.00  0.00    +0.000 C 
ENDBRANCH  17  18
ENDBRANCH  16  17
ENDBRANCH  14  16
ENDBRANCH   6  14
TORSDOF 5
ENDMDL
MODEL 8
REMARK VINA RESULT:      -6.4      2.817      3.770
REMARK  Name = 
REMARK  6 active torsions:
REMARK  status: ('A' for Active; 'I' for Inactive)
REMARK    1  A    between atoms: C_1  and  O_2
REMARK    2  A    between atoms: O_2  and  C_3
REMARK    3  A    between atoms: C_8  and  N_9
REMARK    4  A    between atoms: N_9  and  C_10
REMARK    5  A    between atoms: C_10  and  C_11
REMARK    6  A    between atoms: C_11  and  N_12
REMARK                            x       y       z     vdW  Elec       q    Type
REMARK                         _______ _______ _______ _____ _____    ______ ____
ROOT
ATOM      1  C   UNL     1       7.879   7.156  18.438  0.00  0.00    +0.000 A 
ATOM      2  C   UNL     1       7.879   6.181  19.438  0.00  0.00    +0.000 A 
ATOM      3  C   UNL     1       7.010   5.085  19.363  0.00  0.00    +0.000 A 
ATOM      4  C   UNL     1       6.147   4.960  18.275  0.00  0.00    +0.000 A 
ATOM      5  O   UNL     1       5.302   3.876  18.244  0.00  0.00    +0.000 OA
ATOM      6  C   UNL     1       4.450   3.727  17.153  0.00  0.00    +0.000 A 
ATOM      7  C   UNL     1       4.405   4.601  16.139  0.00  0.00    +0.000 A 
ATOM      8  C   UNL     1       5.271   5.786  16.122  0.00  0.00    +0.000 A 
ATOM      9  O   UNL     1       5.240   6.583  15.218  0.00  0.00    +0.000 OA
ATOM     10  C   UNL     1       6.169   5.926  17.276  0.00  0.00    +0.000 A 
ATOM     11  C   UNL     1       7.034   7.022  17.341  0.00  0.00    +0.000 A 
ENDROOT
BRANCH   1  13
ATOM     12  C   UNL     1       8.321   9.425  18.046  0.00  0.00    +0.000 C 
ATOM     13  O   UNL     1       8.773   8.183  18.585  0.00  0.00    +0.000 OA
ENDBRANCH   1  13
BRANCH   6  14
ATOM     14  N   UNL     1       3.605   2.632  17.190  0.00  0.00    +0.000 N 
ATOM     15  H   UNL     1       2.865   2.640  16.498  0.00  0.00    +0.000 HD
BRANCH  14  16
ATOM     16  C   UNL     1       3.373   1.868  18.412  0.00  0.00    +0.000 C 
BRANCH  16  17
ATOM     17  C   UNL     1       1.902   1.834  18.844  0.00  0.00    +0.000 C 
BRANCH  17  18
ATOM     18  N   UNL     1       1.740   2.343  20.226  0.00  0.00    +0.000 NA
ATOM     19  C   UNL     1       0.722   3.400  20.302  0.00  0.00    +0.000 C 
ATOM     20  C   UNL     1       1.482   4.672  19.995  0.00  0.00    +0.000 C 
ATOM     21  C   UNL     1       2.785   4.463  20.738  0.00  0.00    +0.000 C 
ATOM     22  C   UNL     1       2.977   2.953  20.749  0.00  0.00    +0.000 C 
ENDBRANCH  17  18
ENDBRANCH  16  17
ENDBRANCH  14  16
ENDBRANCH   6  14
TORSDOF 5
ENDMDL
MODEL 9
REMARK VINA RESULT:      -6.4      5.669      8.613
REMARK  Name = 
REMARK  6 active torsions:
REMARK  status: ('A' for Active; 'I' for Inactive)
REMARK    1  A    between atoms: C_1  and  O_2
REMARK    2  A    between atoms: O_2  and  C_3
REMARK    3  A    between atoms: C_8  and  N_9
REMARK    4  A    between atoms: N_9  and  C_10
REMARK    5  A    between atoms: C_10  and  C_11
REMARK    6  A    between atoms: C_11  and  N_12
REMARK                            x       y       z     vdW  Elec       q    Type
REMARK                         _______ _______ _______ _____ _____    ______ ____
ROOT
ATOM      1  C   UNL     1       4.588   3.969  17.947  0.00  0.00    +0.000 A 
ATOM      2  C   UNL     1       4.135   4.838  16.951  0.00  0.00    +0.000 A 
ATOM      3  C   UNL     1       4.808   6.039  16.695  0.00  0.00    +0.000 A 
ATOM      4  C   UNL     1       5.947   6.364  17.432  0.00  0.00    +0.000 A 
ATOM      5  O   UNL     1       6.572   7.558  17.158  0.00  0.00    +0.000 OA
ATOM      6  C   UNL     1       7.723   7.885  17.871  0.00  0.00    +0.000 A 
ATOM      7  C   UNL     1       8.238   7.097  18.823  0.00  0.00    +0.000 A 
ATOM      8  C   UNL     1       7.607   5.819  19.172  0.00  0.00    +0.000 A 
ATOM      9  O   UNL     1       8.059   5.100  20.029  0.00  0.00    +0.000 OA
ATOM     10  C   UNL     1       6.399   5.484  18.407  0.00  0.00    +0.000 A 
ATOM     11  C   UNL     1       5.735   4.282  18.668  0.00  0.00    +0.000 A 
ENDROOT
BRANCH   1  13
ATOM     12  C   UNL     1       2.534   2.880  17.641  0.00  0.00    +0.000 C 
ATOM     13  O   UNL     1       3.878   2.811  18.117  0.00  0.00    +0.000 OA
ENDBRANCH   1  13
BRANCH   6  14
ATOM     14  N   UNL     1       8.292   9.109  17.570  0.00  0.00    +0.000 N 
ATOM     15  H   UNL     1       8.592   9.215  16.607  0.00  0.00    +0.000 HD
BRANCH  14  16
ATOM     16  C   UNL     1       8.965   9.926  18.576  0.00  0.00    +0.000 C 
BRANCH  16  17
ATOM     17  C   UNL     1       9.647  11.172  17.997  0.00  0.00    +0.000 C 
BRANCH  17  18
ATOM     18  N   UNL     1      10.926  11.449  18.691  0.00  0.00    +0.000 NA
ATOM     19  C   UNL     1      10.722  11.734  20.119  0.00  0.00    +0.000 C 
ATOM     20  C   UNL     1      10.451  13.222  20.167  0.00  0.00    +0.000 C 
ATOM     21  C   UNL     1      11.437  13.768  19.154  0.00  0.00    +0.000 C 
ATOM     22  C   UNL     1      11.614  12.637  18.150  0.00  0.00    +0.000 C 
ENDBRANCH  17  18
ENDBRANCH  16  17
ENDBRANCH  14  16
ENDBRANCH   6  14
TORSDOF 5
ENDMDL
