MODEL 1
REMARK VINA RESULT:      -7.5      0.000      0.000
REMARK  Name = 
REMARK  14 active torsions:
REMARK  status: ('A' for Active; 'I' for Inactive)
REMARK    1  A    between atoms: C_1  and  O_2
REMARK    2  A    between atoms: O_2  and  C_3
REMARK    3  A    between atoms: C_8  and  C_9
REMARK    4  A    between atoms: C_10  and  N_11
REMARK    5  A    between atoms: C_18  and  N_19
REMARK    6  A    between atoms: N_19  and  C_20
REMARK    7  A    between atoms: N_19  and  C_30
REMARK    8  A    between atoms: C_23  and  O_24
REMARK    9  A    between atoms: O_24  and  C_25
REMARK   10  A    between atoms: C_25  and  C_26
REMARK   11  A    between atoms: C_25  and  C_27
REMARK   12  A    between atoms: C_30  and  C_31
REMARK   13  A    between atoms: C_30  and  C_32
REMARK   14  A    between atoms: N_34  and  C_35
REMARK                            x       y       z     vdW  Elec       q    Type
REMARK                         _______ _______ _______ _____ _____    ______ ____
ROOT
ATOM      1  N   UNL     1       3.080   6.688  18.427  0.00  0.00    +0.000 N 
ATOM      2  C   UNL     1       2.319   7.437  19.279  0.00  0.00    +0.000 A 
ATOM      3  N   UNL     1       1.914   7.114  20.465  0.00  0.00    +0.000 NA
ATOM      4  C   UNL     1       1.160   8.167  20.906  0.00  0.00    +0.000 A 
ATOM      5  C   UNL     1       0.498   8.203  22.137  0.00  0.00    +0.000 A 
ATOM      6  C   UNL     1      -0.162   9.355  22.493  0.00  0.00    +0.000 A 
ATOM      7  C   UNL     1      -0.166  10.433  21.614  0.00  0.00    +0.000 A 
ATOM      8  C   UNL     1       0.379  10.456  20.292  0.00  0.00    +0.000 A 
ATOM      9  C   UNL     1       1.096   9.234  19.981  0.00  0.00    +0.000 A 
ATOM     10  N   UNL     1       1.808   8.682  18.909  0.00  0.00    +0.000 N 
ATOM     11  C   UNL     1       1.892   9.102  17.534  0.00  0.00    +0.000 C 
ATOM     12  H   UNL     1       3.966   7.110  18.151  0.00  0.00    +0.000 HD
ENDROOT
BRANCH   1  20
ATOM     13  C   UNL     1       4.493   4.803  19.144  0.00  0.00    +0.000 A 
ATOM     14  C   UNL     1       4.740   3.428  19.263  0.00  0.00    +0.000 A 
ATOM     15  C   UNL     1       3.812   2.514  18.780  0.00  0.00    +0.000 A 
ATOM     16 CL   UNL     1       4.150   0.827  18.865  0.00  0.00    +0.000 Cl
ATOM     17  C   UNL     1       2.625   2.951  18.206  0.00  0.00    +0.000 A 
ATOM     18  C   UNL     1       2.345   4.326  18.086  0.00  0.00    +0.000 A 
ATOM     19  C   UNL     1       1.046   4.709  17.433  0.00  0.00    +0.000 C 
ATOM     20  C   UNL     1       3.280   5.275  18.567  0.00  0.00    +0.000 A 
BRANCH  13  22
ATOM     21  C   UNL     1       6.743   5.561  19.236  0.00  0.00    +0.000 C 
ATOM     22  O   UNL     1       5.375   5.770  19.583  0.00  0.00    +0.000 OA
ENDBRANCH  13  22
ENDBRANCH   1  20
BRANCH   8  23
ATOM     23  N   UNL     1       0.166  11.657  19.509  0.00  0.00    +0.000 N 
BRANCH  23  24
ATOM     24  C   UNL     1       1.117  12.690  19.259  0.00  0.00    +0.000 A 
ATOM     25  C   UNL     1       2.213  12.518  18.386  0.00  0.00    +0.000 A 
ATOM     26  C   UNL     1       3.183  13.505  18.207  0.00  0.00    +0.000 A 
ATOM     27  C   UNL     1       3.114  14.693  18.920  0.00  0.00    +0.000 A 
ATOM     28  C   UNL     1       2.046  14.902  19.787  0.00  0.00    +0.000 A 
ATOM     29  C   UNL     1       1.041  13.924  19.927  0.00  0.00    +0.000 A 
BRANCH  27  30
ATOM     30  O   UNL     1       4.194  15.505  18.750  0.00  0.00    +0.000 OA
BRANCH  30  31
ATOM     31  C   UNL     1       5.442  15.103  19.310  0.00  0.00    +0.000 C 
ATOM     32  C   UNL     1       6.495  15.197  18.213  0.00  0.00    +0.000 C 
ATOM     33  C   UNL     1       5.749  16.075  20.442  0.00  0.00    +0.000 C 
ENDBRANCH  30  31
ENDBRANCH  27  30
ENDBRANCH  23  24
BRANCH  23  34
ATOM     34  C   UNL     1      -1.129  11.812  18.725  0.00  0.00    +0.000 C 
ATOM     35  C   UNL     1      -1.466  10.556  17.921  0.00  0.00    +0.000 C 
ATOM     36  C   UNL     1      -2.342  12.368  19.482  0.00  0.00    +0.000 C 
ENDBRANCH  23  34
ENDBRANCH   8  23
TORSDOF 7
ENDMDL
MODEL 2
REMARK VINA RESULT:      -7.2      0.408      1.074
REMARK  Name = 
REMARK  14 active torsions:
REMARK  status: ('A' for Active; 'I' for Inactive)
REMARK    1  A    between atoms: C_1  and  O_2
REMARK    2  A    between atoms: O_2  and  C_3
REMARK    3  A    between atoms: C_8  and  C_9
REMARK    4  A    between atoms: C_10  and  N_11
REMARK    5  A    between atoms: C_18  and  N_19
REMARK    6  A    between atoms: N_19  and  C_20
REMARK    7  A    between atoms: N_19  and  C_30
REMARK    8  A    between atoms: C_23  and  O_24
REMARK    9  A    between atoms: O_24  and  C_25
REMARK   10  A    between atoms: C_25  and  C_26
REMARK   11  A    between atoms: C_25  and  C_27
REMARK   12  A    between atoms: C_30  and  C_31
REMARK   13  A    between atoms: C_30  and  C_32
REMARK   14  A    between atoms: N_34  and  C_35
REMARK                            x       y       z     vdW  Elec       q    Type
REMARK                         _______ _______ _______ _____ _____    ______ ____
ROOT
ATOM      1  N   UNL     1       3.077   6.669  18.430  0.00  0.00    +0.000 N 
ATOM      2  C   UNL     1       2.312   7.425  19.272  0.00  0.00    +0.000 A 
ATOM      3  N   UNL     1       1.916   7.119  20.465  0.00  0.00    +0.000 NA
ATOM      4  C   UNL     1       1.153   8.172  20.891  0.00  0.00    +0.000 A 
ATOM      5  C   UNL     1       0.496   8.223  22.124  0.00  0.00    +0.000 A 
ATOM      6  C   UNL     1      -0.175   9.374  22.463  0.00  0.00    +0.000 A 
ATOM      7  C   UNL     1      -0.194  10.436  21.566  0.00  0.00    +0.000 A 
ATOM      8  C   UNL     1       0.345  10.442  20.241  0.00  0.00    +0.000 A 
ATOM      9  C   UNL     1       1.074   9.222  19.948  0.00  0.00    +0.000 A 
ATOM     10  N   UNL     1       1.787   8.658  18.883  0.00  0.00    +0.000 N 
ATOM     11  C   UNL     1       1.861   9.055  17.500  0.00  0.00    +0.000 C 
ATOM     12  H   UNL     1       3.958   7.096  18.143  0.00  0.00    +0.000 HD
ENDROOT
BRANCH   1  20
ATOM     13  C   UNL     1       4.517   4.812  19.166  0.00  0.00    +0.000 A 
ATOM     14  C   UNL     1       4.778   3.442  19.307  0.00  0.00    +0.000 A 
ATOM     15  C   UNL     1       3.854   2.510  18.851  0.00  0.00    +0.000 A 
ATOM     16 CL   UNL     1       4.209   0.829  18.964  0.00  0.00    +0.000 Cl
ATOM     17  C   UNL     1       2.657   2.925  18.283  0.00  0.00    +0.000 A 
ATOM     18  C   UNL     1       2.362   4.295  18.140  0.00  0.00    +0.000 A 
ATOM     19  C   UNL     1       1.052   4.653  17.495  0.00  0.00    +0.000 C 
ATOM     20  C   UNL     1       3.293   5.262  18.593  0.00  0.00    +0.000 A 
BRANCH  13  22
ATOM     21  C   UNL     1       6.776   5.523  19.351  0.00  0.00    +0.000 C 
ATOM     22  O   UNL     1       5.393   5.795  19.576  0.00  0.00    +0.000 OA
ENDBRANCH  13  22
ENDBRANCH   1  20
BRANCH   8  23
ATOM     23  N   UNL     1       0.117  11.626  19.438  0.00  0.00    +0.000 N 
BRANCH  23  24
ATOM     24  C   UNL     1       1.055  12.666  19.167  0.00  0.00    +0.000 A 
ATOM     25  C   UNL     1       0.805  14.017  19.492  0.00  0.00    +0.000 A 
ATOM     26  C   UNL     1       1.692  15.040  19.152  0.00  0.00    +0.000 A 
ATOM     27  C   UNL     1       2.850  14.756  18.444  0.00  0.00    +0.000 A 
ATOM     28  C   UNL     1       3.134  13.435  18.110  0.00  0.00    +0.000 A 
ATOM     29  C   UNL     1       2.262  12.399  18.499  0.00  0.00    +0.000 A 
BRANCH  27  30
ATOM     30  O   UNL     1       3.553  15.859  18.064  0.00  0.00    +0.000 OA
BRANCH  30  31
ATOM     31  C   UNL     1       4.839  16.076  18.639  0.00  0.00    +0.000 C 
ATOM     32  C   UNL     1       4.734  15.792  20.132  0.00  0.00    +0.000 C 
ATOM     33  C   UNL     1       5.793  15.095  17.967  0.00  0.00    +0.000 C 
ENDBRANCH  30  31
ENDBRANCH  27  30
ENDBRANCH  23  24
BRANCH  23  34
ATOM     34  C   UNL     1      -1.183  11.753  18.655  0.00  0.00    +0.000 C 
ATOM     35  C   UNL     1      -1.489  10.493  17.846  0.00  0.00    +0.000 C 
ATOM     36  C   UNL     1      -2.408  12.276  19.416  0.00  0.00    +0.000 C 
ENDBRANCH  23  34
ENDBRANCH   8  23
TORSDOF 7
ENDMDL
MODEL 3
REMARK VINA RESULT:      -7.0      2.391      5.035
REMARK  Name = 
REMARK  14 active torsions:
REMARK  status: ('A' for Active; 'I' for Inactive)
REMARK    1  A    between atoms: C_1  and  O_2
REMARK    2  A    between atoms: O_2  and  C_3
REMARK    3  A    between atoms: C_8  and  C_9
REMARK    4  A    between atoms: C_10  and  N_11
REMARK    5  A    between atoms: C_18  and  N_19
REMARK    6  A    between atoms: N_19  and  C_20
REMARK    7  A    between atoms: N_19  and  C_30
REMARK    8  A    between atoms: C_23  and  O_24
REMARK    9  A    between atoms: O_24  and  C_25
REMARK   10  A    between atoms: C_25  and  C_26
REMARK   11  A    between atoms: C_25  and  C_27
REMARK   12  A    between atoms: C_30  and  C_31
REMARK   13  A    between atoms: C_30  and  C_32
REMARK   14  A    between atoms: N_34  and  C_35
REMARK                            x       y       z     vdW  Elec       q    Type
REMARK                         _______ _______ _______ _____ _____    ______ ____
ROOT
ATOM      1  N   UNL     1       2.937   6.613  18.295  0.00  0.00    +0.000 N 
ATOM      2  C   UNL     1       2.279   7.414  19.185  0.00  0.00    +0.000 A 
ATOM      3  N   UNL     1       2.135   7.225  20.458  0.00  0.00    +0.000 NA
ATOM      4  C   UNL     1       1.379   8.272  20.910  0.00  0.00    +0.000 A 
ATOM      5  C   UNL     1       0.957   8.426  22.235  0.00  0.00    +0.000 A 
ATOM      6  C   UNL     1       0.268   9.566  22.575  0.00  0.00    +0.000 A 
ATOM      7  C   UNL     1      -0.002  10.513  21.593  0.00  0.00    +0.000 A 
ATOM      8  C   UNL     1       0.283  10.397  20.197  0.00  0.00    +0.000 A 
ATOM      9  C   UNL     1       1.043   9.198  19.897  0.00  0.00    +0.000 A 
ATOM     10  N   UNL     1       1.593   8.559  18.779  0.00  0.00    +0.000 N 
ATOM     11  C   UNL     1       1.380   8.795  17.374  0.00  0.00    +0.000 C 
ATOM     12  H   UNL     1       3.712   7.056  17.803  0.00  0.00    +0.000 HD
ENDROOT
BRANCH   1  20
ATOM     13  C   UNL     1       4.604   4.957  19.029  0.00  0.00    +0.000 A 
ATOM     14  C   UNL     1       5.000   3.632  19.263  0.00  0.00    +0.000 A 
ATOM     15  C   UNL     1       4.121   2.590  18.997  0.00  0.00    +0.000 A 
ATOM     16 CL   UNL     1       4.635   0.961  19.219  0.00  0.00    +0.000 Cl
ATOM     17  C   UNL     1       2.839   2.851  18.530  0.00  0.00    +0.000 A 
ATOM     18  C   UNL     1       2.410   4.173  18.300  0.00  0.00    +0.000 A 
ATOM     19  C   UNL     1       1.014   4.360  17.775  0.00  0.00    +0.000 C 
ATOM     20  C   UNL     1       3.293   5.249  18.558  0.00  0.00    +0.000 A 
BRANCH  13  22
ATOM     21  C   UNL     1       6.608   6.095  18.450  0.00  0.00    +0.000 C 
ATOM     22  O   UNL     1       5.427   6.042  19.251  0.00  0.00    +0.000 OA
ENDBRANCH  13  22
ENDBRANCH   1  20
BRANCH   8  23
ATOM     23  N   UNL     1      -0.184  11.464  19.335  0.00  0.00    +0.000 N 
BRANCH  23  24
ATOM     24  C   UNL     1      -1.513  11.645  18.848  0.00  0.00    +0.000 A 
ATOM     25  C   UNL     1      -2.549  12.173  19.648  0.00  0.00    +0.000 A 
ATOM     26  C   UNL     1      -3.864  12.274  19.192  0.00  0.00    +0.000 A 
ATOM     27  C   UNL     1      -4.203  11.818  17.926  0.00  0.00    +0.000 A 
ATOM     28  C   UNL     1      -3.208  11.295  17.105  0.00  0.00    +0.000 A 
ATOM     29  C   UNL     1      -1.873  11.242  17.551  0.00  0.00    +0.000 A 
BRANCH  27  30
ATOM     30  O   UNL     1      -5.539  11.853  17.663  0.00  0.00    +0.000 OA
BRANCH  30  31
ATOM     31  C   UNL     1      -6.287  12.986  18.100  0.00  0.00    +0.000 C 
ATOM     32  C   UNL     1      -6.680  13.787  16.866  0.00  0.00    +0.000 C 
ATOM     33  C   UNL     1      -7.522  12.448  18.814  0.00  0.00    +0.000 C 
ENDBRANCH  30  31
ENDBRANCH  27  30
ENDBRANCH  23  24
BRANCH  23  34
ATOM     34  C   UNL     1       0.752  12.619  19.008  0.00  0.00    +0.000 C 
ATOM     35  C   UNL     1       0.749  13.685  20.102  0.00  0.00    +0.000 C 
ATOM     36  C   UNL     1       2.168  12.259  18.540  0.00  0.00    +0.000 C 
ENDBRANCH  23  34
ENDBRANCH   8  23
TORSDOF 7
ENDMDL
MODEL 4
REMARK VINA RESULT:      -6.9      0.913      1.292
REMARK  Name = 
REMARK  14 active torsions:
REMARK  status: ('A' for Active; 'I' for Inactive)
REMARK    1  A    between atoms: C_1  and  O_2
REMARK    2  A    between atoms: O_2  and  C_3
REMARK    3  A    between atoms: C_8  and  C_9
REMARK    4  A    between atoms: C_10  and  N_11
REMARK    5  A    between atoms: C_18  and  N_19
REMARK    6  A    between atoms: N_19  and  C_20
REMARK    7  A    between atoms: N_19  and  C_30
REMARK    8  A    between atoms: C_23  and  O_24
REMARK    9  A    between atoms: O_24  and  C_25
REMARK   10  A    between atoms: C_25  and  C_26
REMARK   11  A    between atoms: C_25  and  C_27
REMARK   12  A    between atoms: C_30  and  C_31
REMARK   13  A    between atoms: C_30  and  C_32
REMARK   14  A    between atoms: N_34  and  C_35
REMARK                            x       y       z     vdW  Elec       q    Type
REMARK                         _______ _______ _______ _____ _____    ______ ____
ROOT
ATOM      1  N   UNL     1       3.211   6.618  18.546  0.00  0.00    +0.000 N 
ATOM      2  C   UNL     1       2.390   7.338  19.367  0.00  0.00    +0.000 A 
ATOM      3  N   UNL     1       1.858   6.953  20.483  0.00  0.00    +0.000 NA
ATOM      4  C   UNL     1       1.095   8.002  20.918  0.00  0.00    +0.000 A 
ATOM      5  C   UNL     1       0.314   7.983  22.078  0.00  0.00    +0.000 A 
ATOM      6  C   UNL     1      -0.344   9.132  22.446  0.00  0.00    +0.000 A 
ATOM      7  C   UNL     1      -0.226  10.265  21.646  0.00  0.00    +0.000 A 
ATOM      8  C   UNL     1       0.450  10.354  20.390  0.00  0.00    +0.000 A 
ATOM      9  C   UNL     1       1.158   9.129  20.067  0.00  0.00    +0.000 A 
ATOM     10  N   UNL     1       1.958   8.622  19.036  0.00  0.00    +0.000 N 
ATOM     11  C   UNL     1       2.193   9.128  17.708  0.00  0.00    +0.000 C 
ATOM     12  H   UNL     1       4.133   7.024  18.389  0.00  0.00    +0.000 HD
ENDROOT
BRANCH   1  20
ATOM     13  C   UNL     1       4.526   4.641  19.196  0.00  0.00    +0.000 A 
ATOM     14  C   UNL     1       4.717   3.253  19.241  0.00  0.00    +0.000 A 
ATOM     15  C   UNL     1       3.774   2.406  18.672  0.00  0.00    +0.000 A 
ATOM     16 CL   UNL     1       4.045   0.705  18.667  0.00  0.00    +0.000 Cl
ATOM     17  C   UNL     1       2.625   2.922  18.086  0.00  0.00    +0.000 A 
ATOM     18  C   UNL     1       2.402   4.312  18.038  0.00  0.00    +0.000 A 
ATOM     19  C   UNL     1       1.141   4.783  17.366  0.00  0.00    +0.000 C 
ATOM     20  C   UNL     1       3.353   5.193  18.607  0.00  0.00    +0.000 A 
BRANCH  13  22
ATOM     21  C   UNL     1       6.719   5.552  19.116  0.00  0.00    +0.000 C 
ATOM     22  O   UNL     1       5.426   5.545  19.721  0.00  0.00    +0.000 OA
ENDBRANCH  13  22
ENDBRANCH   1  20
BRANCH   8  23
ATOM     23  N   UNL     1       0.354  11.610  19.674  0.00  0.00    +0.000 N 
BRANCH  23  24
ATOM     24  C   UNL     1       1.388  12.580  19.512  0.00  0.00    +0.000 A 
ATOM     25  C   UNL     1       1.916  13.315  20.595  0.00  0.00    +0.000 A 
ATOM     26  C   UNL     1       2.870  14.318  20.419  0.00  0.00    +0.000 A 
ATOM     27  C   UNL     1       3.311  14.649  19.147  0.00  0.00    +0.000 A 
ATOM     28  C   UNL     1       2.818  13.943  18.053  0.00  0.00    +0.000 A 
ATOM     29  C   UNL     1       1.893  12.897  18.240  0.00  0.00    +0.000 A 
BRANCH  27  30
ATOM     30  O   UNL     1       4.137  15.731  19.110  0.00  0.00    +0.000 OA
BRANCH  30  31
ATOM     31  C   UNL     1       3.553  17.028  19.001  0.00  0.00    +0.000 C 
ATOM     32  C   UNL     1       2.222  16.878  18.275  0.00  0.00    +0.000 C 
ATOM     33  C   UNL     1       3.342  17.536  20.422  0.00  0.00    +0.000 C 
ENDBRANCH  30  31
ENDBRANCH  27  30
ENDBRANCH  23  24
BRANCH  23  34
ATOM     34  C   UNL     1      -0.900  11.910  18.865  0.00  0.00    +0.000 C 
ATOM     35  C   UNL     1      -1.416  10.674  18.129  0.00  0.00    +0.000 C 
ATOM     36  C   UNL     1      -2.020  12.683  19.573  0.00  0.00    +0.000 C 
ENDBRANCH  23  34
ENDBRANCH   8  23
TORSDOF 7
ENDMDL
MODEL 5
REMARK VINA RESULT:      -6.8      0.769      1.036
REMARK  Name = 
REMARK  14 active torsions:
REMARK  status: ('A' for Active; 'I' for Inactive)
REMARK    1  A    between atoms: C_1  and  O_2
REMARK    2  A    between atoms: O_2  and  C_3
REMARK    3  A    between atoms: C_8  and  C_9
REMARK    4  A    between atoms: C_10  and  N_11
REMARK    5  A    between atoms: C_18  and  N_19
REMARK    6  A    between atoms: N_19  and  C_20
REMARK    7  A    between atoms: N_19  and  C_30
REMARK    8  A    between atoms: C_23  and  O_24
REMARK    9  A    between atoms: O_24  and  C_25
REMARK   10  A    between atoms: C_25  and  C_26
REMARK   11  A    between atoms: C_25  and  C_27
REMARK   12  A    between atoms: C_30  and  C_31
REMARK   13  A    between atoms: C_30  and  C_32
REMARK   14  A    between atoms: N_34  and  C_35
REMARK                            x       y       z     vdW  Elec       q    Type
REMARK                         _______ _______ _______ _____ _____    ______ ____
ROOT
ATOM      1  N   UNL     1       3.117   6.689  18.543  0.00  0.00    +0.000 N 
ATOM      2  C   UNL     1       2.314   7.391  19.396  0.00  0.00    +0.000 A 
ATOM      3  N   UNL     1       1.813   6.987  20.519  0.00  0.00    +0.000 NA
ATOM      4  C   UNL     1       1.057   8.026  20.990  0.00  0.00    +0.000 A 
ATOM      5  C   UNL     1       0.306   7.984  22.169  0.00  0.00    +0.000 A 
ATOM      6  C   UNL     1      -0.347   9.125  22.571  0.00  0.00    +0.000 A 
ATOM      7  C   UNL     1      -0.255  10.271  21.787  0.00  0.00    +0.000 A 
ATOM      8  C   UNL     1       0.389  10.383  20.515  0.00  0.00    +0.000 A 
ATOM      9  C   UNL     1       1.093   9.166  20.156  0.00  0.00    +0.000 A 
ATOM     10  N   UNL     1       1.868   8.679  19.096  0.00  0.00    +0.000 N 
ATOM     11  C   UNL     1       2.067   9.206  17.771  0.00  0.00    +0.000 C 
ATOM     12  H   UNL     1       4.032   7.101  18.369  0.00  0.00    +0.000 HD
ENDROOT
BRANCH   1  20
ATOM     13  C   UNL     1       4.445   4.707  19.152  0.00  0.00    +0.000 A 
ATOM     14  C   UNL     1       4.643   3.319  19.171  0.00  0.00    +0.000 A 
ATOM     15  C   UNL     1       3.701   2.478  18.592  0.00  0.00    +0.000 A 
ATOM     16 CL   UNL     1       3.981   0.778  18.556  0.00  0.00    +0.000 Cl
ATOM     17  C   UNL     1       2.548   2.998  18.020  0.00  0.00    +0.000 A 
ATOM     18  C   UNL     1       2.317   4.387  17.998  0.00  0.00    +0.000 A 
ATOM     19  C   UNL     1       1.051   4.864  17.340  0.00  0.00    +0.000 C 
ATOM     20  C   UNL     1       3.266   5.263  18.578  0.00  0.00    +0.000 A 
BRANCH  13  22
ATOM     21  C   UNL     1       6.673   5.531  19.176  0.00  0.00    +0.000 C 
ATOM     22  O   UNL     1       5.343   5.606  19.689  0.00  0.00    +0.000 OA
ENDBRANCH  13  22
ENDBRANCH   1  20
BRANCH   8  23
ATOM     23  N   UNL     1       0.269  11.649  19.822  0.00  0.00    +0.000 N 
BRANCH  23  24
ATOM     24  C   UNL     1       1.308  12.602  19.602  0.00  0.00    +0.000 A 
ATOM     25  C   UNL     1       2.021  12.681  18.386  0.00  0.00    +0.000 A 
ATOM     26  C   UNL     1       3.089  13.561  18.206  0.00  0.00    +0.000 A 
ATOM     27  C   UNL     1       3.509  14.375  19.247  0.00  0.00    +0.000 A 
ATOM     28  C   UNL     1       2.828  14.330  20.460  0.00  0.00    +0.000 A 
ATOM     29  C   UNL     1       1.718  13.477  20.622  0.00  0.00    +0.000 A 
BRANCH  27  30
ATOM     30  O   UNL     1       4.641  15.082  18.976  0.00  0.00    +0.000 OA
BRANCH  30  31
ATOM     31  C   UNL     1       4.595  16.504  19.081  0.00  0.00    +0.000 C 
ATOM     32  C   UNL     1       6.011  17.030  18.889  0.00  0.00    +0.000 C 
ATOM     33  C   UNL     1       3.677  16.997  17.968  0.00  0.00    +0.000 C 
ENDBRANCH  30  31
ENDBRANCH  27  30
ENDBRANCH  23  24
BRANCH  23  34
ATOM     34  C   UNL     1      -1.030  11.982  19.102  0.00  0.00    +0.000 C 
ATOM     35  C   UNL     1      -1.203  13.486  18.896  0.00  0.00    +0.000 C 
ATOM     36  C   UNL     1      -1.354  11.174  17.837  0.00  0.00    +0.000 C 
ENDBRANCH  23  34
ENDBRANCH   8  23
TORSDOF 7
ENDMDL
MODEL 6
REMARK VINA RESULT:      -6.8      0.646      1.108
REMARK  Name = 
REMARK  14 active torsions:
REMARK  status: ('A' for Active; 'I' for Inactive)
REMARK    1  A    between atoms: C_1  and  O_2
REMARK    2  A    between atoms: O_2  and  C_3
REMARK    3  A    between atoms: C_8  and  C_9
REMARK    4  A    between atoms: C_10  and  N_11
REMARK    5  A    between atoms: C_18  and  N_19
REMARK    6  A    between atoms: N_19  and  C_20
REMARK    7  A    between atoms: N_19  and  C_30
REMARK    8  A    between atoms: C_23  and  O_24
REMARK    9  A    between atoms: O_24  and  C_25
REMARK   10  A    between atoms: C_25  and  C_26
REMARK   11  A    between atoms: C_25  and  C_27
REMARK   12  A    between atoms: C_30  and  C_31
REMARK   13  A    between atoms: C_30  and  C_32
REMARK   14  A    between atoms: N_34  and  C_35
REMARK                            x       y       z     vdW  Elec       q    Type
REMARK                         _______ _______ _______ _____ _____    ______ ____
ROOT
ATOM      1  N   UNL     1       3.112   6.812  18.574  0.00  0.00    +0.000 N 
ATOM      2  C   UNL     1       2.307   7.505  19.432  0.00  0.00    +0.000 A 
ATOM      3  N   UNL     1       1.778   7.079  20.534  0.00  0.00    +0.000 NA
ATOM      4  C   UNL     1       1.032   8.118  21.020  0.00  0.00    +0.000 A 
ATOM      5  C   UNL     1       0.259   8.057  22.184  0.00  0.00    +0.000 A 
ATOM      6  C   UNL     1      -0.381   9.198  22.607  0.00  0.00    +0.000 A 
ATOM      7  C   UNL     1      -0.255  10.363  21.857  0.00  0.00    +0.000 A 
ATOM      8  C   UNL     1       0.413  10.499  20.600  0.00  0.00    +0.000 A 
ATOM      9  C   UNL     1       1.103   9.280  20.219  0.00  0.00    +0.000 A 
ATOM     10  N   UNL     1       1.889   8.808  19.160  0.00  0.00    +0.000 N 
ATOM     11  C   UNL     1       2.121   9.368  17.853  0.00  0.00    +0.000 C 
ATOM     12  H   UNL     1       4.038   7.213  18.427  0.00  0.00    +0.000 HD
ENDROOT
BRANCH   1  20
ATOM     13  C   UNL     1       4.404   4.792  19.131  0.00  0.00    +0.000 A 
ATOM     14  C   UNL     1       4.577   3.400  19.113  0.00  0.00    +0.000 A 
ATOM     15  C   UNL     1       3.621   2.591  18.513  0.00  0.00    +0.000 A 
ATOM     16 CL   UNL     1       3.870   0.889  18.432  0.00  0.00    +0.000 Cl
ATOM     17  C   UNL     1       2.477   3.147  17.954  0.00  0.00    +0.000 A 
ATOM     18  C   UNL     1       2.271   4.540  17.969  0.00  0.00    +0.000 A 
ATOM     19  C   UNL     1       1.014   5.056  17.323  0.00  0.00    +0.000 C 
ATOM     20  C   UNL     1       3.236   5.384  18.571  0.00  0.00    +0.000 A 
BRANCH  13  22
ATOM     21  C   UNL     1       6.671   5.487  19.272  0.00  0.00    +0.000 C 
ATOM     22  O   UNL     1       5.318   5.660  19.691  0.00  0.00    +0.000 OA
ENDBRANCH  13  22
ENDBRANCH   1  20
BRANCH   8  23
ATOM     23  N   UNL     1       0.329  11.786  19.940  0.00  0.00    +0.000 N 
BRANCH  23  24
ATOM     24  C   UNL     1       1.416  12.651  19.617  0.00  0.00    +0.000 A 
ATOM     25  C   UNL     1       2.127  13.376  20.598  0.00  0.00    +0.000 A 
ATOM     26  C   UNL     1       3.136  14.281  20.268  0.00  0.00    +0.000 A 
ATOM     27  C   UNL     1       3.454  14.522  18.940  0.00  0.00    +0.000 A 
ATOM     28  C   UNL     1       2.779  13.823  17.943  0.00  0.00    +0.000 A 
ATOM     29  C   UNL     1       1.795  12.873  18.283  0.00  0.00    +0.000 A 
BRANCH  27  30
ATOM     30  O   UNL     1       4.359  15.523  18.759  0.00  0.00    +0.000 OA
BRANCH  30  31
ATOM     31  C   UNL     1       5.340  15.743  19.772  0.00  0.00    +0.000 C 
ATOM     32  C   UNL     1       6.644  15.113  19.300  0.00  0.00    +0.000 C 
ATOM     33  C   UNL     1       5.488  17.253  19.919  0.00  0.00    +0.000 C 
ENDBRANCH  30  31
ENDBRANCH  27  30
ENDBRANCH  23  24
BRANCH  23  34
ATOM     34  C   UNL     1      -1.009  12.244  19.375  0.00  0.00    +0.000 C 
ATOM     35  C   UNL     1      -1.226  13.745  19.561  0.00  0.00    +0.000 C 
ATOM     36  C   UNL     1      -1.369  11.768  17.961  0.00  0.00    +0.000 C 
ENDBRANCH  23  34
ENDBRANCH   8  23
TORSDOF 7
ENDMDL
MODEL 7
REMARK VINA RESULT:      -6.6      2.626      5.237
REMARK  Name = 
REMARK  14 active torsions:
REMARK  status: ('A' for Active; 'I' for Inactive)
REMARK    1  A    between atoms: C_1  and  O_2
REMARK    2  A    between atoms: O_2  and  C_3
REMARK    3  A    between atoms: C_8  and  C_9
REMARK    4  A    between atoms: C_10  and  N_11
REMARK    5  A    between atoms: C_18  and  N_19
REMARK    6  A    between atoms: N_19  and  C_20
REMARK    7  A    between atoms: N_19  and  C_30
REMARK    8  A    between atoms: C_23  and  O_24
REMARK    9  A    between atoms: O_24  and  C_25
REMARK   10  A    between atoms: C_25  and  C_26
REMARK   11  A    between atoms: C_25  and  C_27
REMARK   12  A    between atoms: C_30  and  C_31
REMARK   13  A    between atoms: C_30  and  C_32
REMARK   14  A    between atoms: N_34  and  C_35
REMARK                            x       y       z     vdW  Elec       q    Type
REMARK                         _______ _______ _______ _____ _____    ______ ____
ROOT
ATOM      1  N   UNL     1       2.801   6.915  18.711  0.00  0.00    +0.000 N 
ATOM      2  C   UNL     1       2.108   7.764  19.526  0.00  0.00    +0.000 A 
ATOM      3  N   UNL     1       2.014   7.717  20.816  0.00  0.00    +0.000 NA
ATOM      4  C   UNL     1       1.192   8.751  21.172  0.00  0.00    +0.000 A 
ATOM      5  C   UNL     1       0.796   9.029  22.485  0.00  0.00    +0.000 A 
ATOM      6  C   UNL     1       0.030  10.147  22.716  0.00  0.00    +0.000 A 
ATOM      7  C   UNL     1      -0.340  10.949  21.641  0.00  0.00    +0.000 A 
ATOM      8  C   UNL     1      -0.086  10.690  20.258  0.00  0.00    +0.000 A 
ATOM      9  C   UNL     1       0.757   9.523  20.071  0.00  0.00    +0.000 A 
ATOM     10  N   UNL     1       1.323   8.799  19.015  0.00  0.00    +0.000 N 
ATOM     11  C   UNL     1       1.053   8.851  17.602  0.00  0.00    +0.000 C 
ATOM     12  H   UNL     1       3.525   7.352  18.143  0.00  0.00    +0.000 HD
ENDROOT
BRANCH   1  20
ATOM     13  C   UNL     1       4.607   5.245  18.810  0.00  0.00    +0.000 A 
ATOM     14  C   UNL     1       5.090   3.975  19.158  0.00  0.00    +0.000 A 
ATOM     15  C   UNL     1       4.246   3.060  19.776  0.00  0.00    +0.000 A 
ATOM     16 CL   UNL     1       4.822   1.478  20.140  0.00  0.00    +0.000 Cl
ATOM     17  C   UNL     1       2.935   3.404  20.080  0.00  0.00    +0.000 A 
ATOM     18  C   UNL     1       2.428   4.676  19.752  0.00  0.00    +0.000 A 
ATOM     19  C   UNL     1       0.992   4.954  20.100  0.00  0.00    +0.000 C 
ATOM     20  C   UNL     1       3.270   5.622  19.117  0.00  0.00    +0.000 A 
BRANCH  13  22
ATOM     21  C   UNL     1       6.791   6.020  18.282  0.00  0.00    +0.000 C 
ATOM     22  O   UNL     1       5.379   6.199  18.178  0.00  0.00    +0.000 OA
ENDBRANCH  13  22
ENDBRANCH   1  20
BRANCH   8  23
ATOM     23  N   UNL     1      -0.659  11.609  19.296  0.00  0.00    +0.000 N 
BRANCH  23  24
ATOM     24  C   UNL     1      -2.028  11.685  18.901  0.00  0.00    +0.000 A 
ATOM     25  C   UNL     1      -2.477  11.259  17.632  0.00  0.00    +0.000 A 
ATOM     26  C   UNL     1      -3.802  11.410  17.223  0.00  0.00    +0.000 A 
ATOM     27  C   UNL     1      -4.727  12.023  18.055  0.00  0.00    +0.000 A 
ATOM     28  C   UNL     1      -4.324  12.452  19.317  0.00  0.00    +0.000 A 
ATOM     29  C   UNL     1      -2.997  12.253  19.746  0.00  0.00    +0.000 A 
BRANCH  27  30
ATOM     30  O   UNL     1      -5.944  12.225  17.479  0.00  0.00    +0.000 OA
BRANCH  30  31
ATOM     31  C   UNL     1      -7.097  11.680  18.119  0.00  0.00    +0.000 C 
ATOM     32  C   UNL     1      -6.691  10.360  18.761  0.00  0.00    +0.000 C 
ATOM     33  C   UNL     1      -7.528  12.688  19.178  0.00  0.00    +0.000 C 
ENDBRANCH  30  31
ENDBRANCH  27  30
ENDBRANCH  23  24
BRANCH  23  34
ATOM     34  C   UNL     1       0.205  12.728  18.732  0.00  0.00    +0.000 C 
ATOM     35  C   UNL     1      -0.324  14.110  19.117  0.00  0.00    +0.000 C 
ATOM     36  C   UNL     1       1.722  12.604  18.925  0.00  0.00    +0.000 C 
ENDBRANCH  23  34
ENDBRANCH   8  23
TORSDOF 7
ENDMDL
MODEL 8
REMARK VINA RESULT:      -6.5      1.143      1.182
REMARK  Name = 
REMARK  14 active torsions:
REMARK  status: ('A' for Active; 'I' for Inactive)
REMARK    1  A    between atoms: C_1  and  O_2
REMARK    2  A    between atoms: O_2  and  C_3
REMARK    3  A    between atoms: C_8  and  C_9
REMARK    4  A    between atoms: C_10  and  N_11
REMARK    5  A    between atoms: C_18  and  N_19
REMARK    6  A    between atoms: N_19  and  C_20
REMARK    7  A    between atoms: N_19  and  C_30
REMARK    8  A    between atoms: C_23  and  O_24
REMARK    9  A    between atoms: O_24  and  C_25
REMARK   10  A    between atoms: C_25  and  C_26
REMARK   11  A    between atoms: C_25  and  C_27
REMARK   12  A    between atoms: C_30  and  C_31
REMARK   13  A    between atoms: C_30  and  C_32
REMARK   14  A    between atoms: N_34  and  C_35
REMARK                            x       y       z     vdW  Elec       q    Type
REMARK                         _______ _______ _______ _____ _____    ______ ____
ROOT
ATOM      1  N   UNL     1       2.998   6.954  18.876  0.00  0.00    +0.000 N 
ATOM      2  C   UNL     1       2.188   7.734  19.652  0.00  0.00    +0.000 A 
ATOM      3  N   UNL     1       1.860   7.542  20.889  0.00  0.00    +0.000 NA
ATOM      4  C   UNL     1       1.010   8.563  21.216  0.00  0.00    +0.000 A 
ATOM      5  C   UNL     1       0.388   8.704  22.461  0.00  0.00    +0.000 A 
ATOM      6  C   UNL     1      -0.381   9.821  22.687  0.00  0.00    +0.000 A 
ATOM      7  C   UNL     1      -0.531  10.758  21.669  0.00  0.00    +0.000 A 
ATOM      8  C   UNL     1      -0.035  10.650  20.333  0.00  0.00    +0.000 A 
ATOM      9  C   UNL     1       0.801   9.476  20.158  0.00  0.00    +0.000 A 
ATOM     10  N   UNL     1       1.534   8.855  19.140  0.00  0.00    +0.000 N 
ATOM     11  C   UNL     1       1.527   9.082  17.718  0.00  0.00    +0.000 C 
ATOM     12  H   UNL     1       3.824   7.422  18.504  0.00  0.00    +0.000 HD
ENDROOT
BRANCH   1  20
ATOM     13  C   UNL     1       4.689   5.166  18.959  0.00  0.00    +0.000 A 
ATOM     14  C   UNL     1       5.066   3.843  19.227  0.00  0.00    +0.000 A 
ATOM     15  C   UNL     1       4.123   2.936  19.695  0.00  0.00    +0.000 A 
ATOM     16 CL   UNL     1       4.572   1.294  19.957  0.00  0.00    +0.000 Cl
ATOM     17  C   UNL     1       2.814   3.338  19.929  0.00  0.00    +0.000 A 
ATOM     18  C   UNL     1       2.411   4.665  19.681  0.00  0.00    +0.000 A 
ATOM     19  C   UNL     1       0.971   5.007  19.944  0.00  0.00    +0.000 C 
ATOM     20  C   UNL     1       3.356   5.604  19.198  0.00  0.00    +0.000 A 
BRANCH  13  22
ATOM     21  C   UNL     1       6.950   5.837  18.667  0.00  0.00    +0.000 C 
ATOM     22  O   UNL     1       5.564   6.118  18.474  0.00  0.00    +0.000 OA
ENDBRANCH  13  22
ENDBRANCH   1  20
BRANCH   8  23
ATOM     23  N   UNL     1      -0.402  11.699  19.404  0.00  0.00    +0.000 N 
BRANCH  23  24
ATOM     24  C   UNL     1       0.388  12.829  19.039  0.00  0.00    +0.000 A 
ATOM     25  C   UNL     1       1.752  12.720  18.689  0.00  0.00    +0.000 A 
ATOM     26  C   UNL     1       2.540  13.838  18.411  0.00  0.00    +0.000 A 
ATOM     27  C   UNL     1       2.003  15.113  18.503  0.00  0.00    +0.000 A 
ATOM     28  C   UNL     1       0.661  15.262  18.840  0.00  0.00    +0.000 A 
ATOM     29  C   UNL     1      -0.144  14.128  19.071  0.00  0.00    +0.000 A 
BRANCH  27  30
ATOM     30  O   UNL     1       2.914  16.112  18.338  0.00  0.00    +0.000 OA
BRANCH  30  31
ATOM     31  C   UNL     1       3.863  16.345  19.377  0.00  0.00    +0.000 C 
ATOM     32  C   UNL     1       5.181  16.737  18.723  0.00  0.00    +0.000 C 
ATOM     33  C   UNL     1       3.315  17.488  20.223  0.00  0.00    +0.000 C 
ENDBRANCH  30  31
ENDBRANCH  27  30
ENDBRANCH  23  24
BRANCH  23  34
ATOM     34  C   UNL     1      -1.680  11.556  18.589  0.00  0.00    +0.000 C 
ATOM     35  C   UNL     1      -1.790  10.180  17.933  0.00  0.00    +0.000 C 
ATOM     36  C   UNL     1      -2.989  11.993  19.261  0.00  0.00    +0.000 C 
ENDBRANCH  23  34
ENDBRANCH   8  23
TORSDOF 7
ENDMDL
MODEL 9
REMARK VINA RESULT:      -6.5      4.259      9.285
REMARK  Name = 
REMARK  14 active torsions:
REMARK  status: ('A' for Active; 'I' for Inactive)
REMARK    1  A    between atoms: C_1  and  O_2
REMARK    2  A    between atoms: O_2  and  C_3
REMARK    3  A    between atoms: C_8  and  C_9
REMARK    4  A    between atoms: C_10  and  N_11
REMARK    5  A    between atoms: C_18  and  N_19
REMARK    6  A    between atoms: N_19  and  C_20
REMARK    7  A    between atoms: N_19  and  C_30
REMARK    8  A    between atoms: C_23  and  O_24
REMARK    9  A    between atoms: O_24  and  C_25
REMARK   10  A    between atoms: C_25  and  C_26
REMARK   11  A    between atoms: C_25  and  C_27
REMARK   12  A    between atoms: C_30  and  C_31
REMARK   13  A    between atoms: C_30  and  C_32
REMARK   14  A    between atoms: N_34  and  C_35
REMARK                            x       y       z     vdW  Elec       q    Type
REMARK                         _______ _______ _______ _____ _____    ______ ____
ROOT
ATOM      1  N   UNL     1       1.041   9.728  18.015  0.00  0.00    +0.000 N 
ATOM      2  C   UNL     1       1.562   8.567  18.511  0.00  0.00    +0.000 A 
ATOM      3  N   UNL     1       1.057   7.806  19.428  0.00  0.00    +0.000 NA
ATOM      4  C   UNL     1       1.953   6.787  19.607  0.00  0.00    +0.000 A 
ATOM      5  C   UNL     1       1.804   5.762  20.546  0.00  0.00    +0.000 A 
ATOM      6  C   UNL     1       2.738   4.753  20.569  0.00  0.00    +0.000 A 
ATOM      7  C   UNL     1       3.804   4.796  19.676  0.00  0.00    +0.000 A 
ATOM      8  C   UNL     1       4.106   5.852  18.761  0.00  0.00    +0.000 A 
ATOM      9  C   UNL     1       3.072   6.871  18.748  0.00  0.00    +0.000 A 
ATOM     10  N   UNL     1       2.806   8.084  18.103  0.00  0.00    +0.000 N 
ATOM     11  C   UNL     1       3.666   8.924  17.310  0.00  0.00    +0.000 C 
ATOM     12  H   UNL     1       0.852   9.726  17.013  0.00  0.00    +0.000 HD
ENDROOT
BRANCH   1  20
ATOM     13  C   UNL     1      -1.300  10.485  18.104  0.00  0.00    +0.000 A 
ATOM     14  C   UNL     1      -2.326  11.241  18.690  0.00  0.00    +0.000 A 
ATOM     15  C   UNL     1      -2.057  12.027  19.804  0.00  0.00    +0.000 A 
ATOM     16 CL   UNL     1      -3.301  13.008  20.479  0.00  0.00    +0.000 Cl
ATOM     17  C   UNL     1      -0.785  12.046  20.362  0.00  0.00    +0.000 A 
ATOM     18  C   UNL     1       0.261  11.287  19.802  0.00  0.00    +0.000 A 
ATOM     19  C   UNL     1       1.610  11.384  20.460  0.00  0.00    +0.000 C 
ATOM     20  C   UNL     1       0.009  10.483  18.663  0.00  0.00    +0.000 A 
BRANCH  13  22
ATOM     21  C   UNL     1      -2.611  10.033  16.175  0.00  0.00    +0.000 C 
ATOM     22  O   UNL     1      -1.486   9.697  16.987  0.00  0.00    +0.000 OA
ENDBRANCH  13  22
ENDBRANCH   1  20
BRANCH   8  23
ATOM     23  N   UNL     1       5.332   5.736  17.998  0.00  0.00    +0.000 N 
BRANCH  23  24
ATOM     24  C   UNL     1       5.463   5.241  16.667  0.00  0.00    +0.000 A 
ATOM     25  C   UNL     1       5.871   3.919  16.386  0.00  0.00    +0.000 A 
ATOM     26  C   UNL     1       6.074   3.464  15.082  0.00  0.00    +0.000 A 
ATOM     27  C   UNL     1       5.909   4.324  14.007  0.00  0.00    +0.000 A 
ATOM     28  C   UNL     1       5.502   5.634  14.243  0.00  0.00    +0.000 A 
ATOM     29  C   UNL     1       5.249   6.075  15.557  0.00  0.00    +0.000 A 
BRANCH  27  30
ATOM     30  O   UNL     1       6.269   3.789  12.807  0.00  0.00    +0.000 OA
BRANCH  30  31
ATOM     31  C   UNL     1       5.500   2.706  12.289  0.00  0.00    +0.000 C 
ATOM     32  C   UNL     1       4.363   3.297  11.464  0.00  0.00    +0.000 C 
ATOM     33  C   UNL     1       6.436   1.883  11.412  0.00  0.00    +0.000 C 
ENDBRANCH  30  31
ENDBRANCH  27  30
ENDBRANCH  23  24
BRANCH  23  34
ATOM     34  C   UNL     1       6.617   6.328  18.561  0.00  0.00    +0.000 C 
ATOM     35  C   UNL     1       7.436   5.292  19.330  0.00  0.00    +0.000 C 
ATOM     36  C   UNL     1       7.476   7.167  17.607  0.00  0.00    +0.000 C 
ENDBRANCH  23  34
ENDBRANCH   8  23
TORSDOF 7
ENDMDL
