MODEL 1
REMARK VINA RESULT:      -8.1      0.000      0.000
REMARK  Name = 
REMARK  6 active torsions:
REMARK  status: ('A' for Active; 'I' for Inactive)
REMARK    1  A    between atoms: C_2  and  C_3
REMARK    2  A    between atoms: C_3  and  N_4
REMARK    3  A    between atoms: N_7  and  C_8
REMARK    4  A    between atoms: C_17  and  C_18
REMARK    5  A    between atoms: C_18  and  O_20
REMARK    6  A    between atoms: N_22  and  C_23
REMARK                            x       y       z     vdW  Elec       q    Type
REMARK                         _______ _______ _______ _____ _____    ______ ____
ROOT
ATOM      1  C   UNL     1       2.056   8.087  19.249  0.00  0.00    +0.000 A 
ATOM      2  N   UNL     1       2.534   6.842  19.524  0.00  0.00    +0.000 NA
ATOM      3  C   UNL     1       3.416   6.243  18.683  0.00  0.00    +0.000 A 
ATOM      4  C   UNL     1       3.852   6.891  17.524  0.00  0.00    +0.000 A 
ATOM      5  C   UNL     1       3.366   8.155  17.212  0.00  0.00    +0.000 A 
ATOM      6  C   UNL     1       2.465   8.751  18.083  0.00  0.00    +0.000 A 
ATOM      7  F   UNL     1       1.952   9.940  17.738  0.00  0.00    +0.000 F 
ATOM      8  C   UNL     1       4.821   6.232  16.627  0.00  0.00    +0.000 A 
ATOM      9  O   UNL     1       5.204   6.778  15.593  0.00  0.00    +0.000 OA
ATOM     10  C   UNL     1       5.342   4.901  16.997  0.00  0.00    +0.000 A 
ATOM     11  C   UNL     1       4.854   4.358  18.123  0.00  0.00    +0.000 A 
ATOM     12  N   UNL     1       3.896   4.926  18.944  0.00  0.00    +0.000 N 
ENDROOT
BRANCH   1  16
ATOM     13  N   UNL     1       0.558  10.477  22.356  0.00  0.00    +0.000 NA
ATOM     14  C   UNL     1       1.409   9.261  22.483  0.00  0.00    +0.000 C 
ATOM     15  C   UNL     1       1.060   8.136  21.484  0.00  0.00    +0.000 C 
ATOM     16  N   UNL     1       1.120   8.625  20.108  0.00  0.00    +0.000 N 
ATOM     17  C   UNL     1       0.411   9.883  19.828  0.00  0.00    +0.000 C 
ATOM     18  C   UNL     1       0.648  10.937  20.949  0.00  0.00    +0.000 C 
BRANCH  13  19
ATOM     19  C   UNL     1      -0.796  10.160  22.822  0.00  0.00    +0.000 C 
BRANCH  19  21
ATOM     20  C   UNL     1      -2.516  12.361  23.235  0.00  0.00    +0.000 C 
ATOM     21  C   UNL     1      -1.722  11.344  23.044  0.00  0.00    +0.000 C 
ENDBRANCH  19  21
ENDBRANCH  13  19
ENDBRANCH   1  16
BRANCH  12  22
ATOM     22  C   UNL     1       3.502   4.213  20.172  0.00  0.00    +0.000 C 
ATOM     23  C   UNL     1       2.128   3.625  20.378  0.00  0.00    +0.000 C 
ATOM     24  C   UNL     1       3.295   2.714  20.166  0.00  0.00    +0.000 C 
ENDBRANCH  12  22
BRANCH  10  25
ATOM     25  C   UNL     1       6.341   4.161  16.201  0.00  0.00    +0.000 C 
ATOM     26  O   UNL     1       7.485   4.555  16.027  0.00  0.00    +0.000 OA
BRANCH  25  27
ATOM     27  O   UNL     1       5.891   3.001  15.676  0.00  0.00    +0.000 OA
ATOM     28  H   UNL     1       6.471   2.220  15.849  0.00  0.00    +0.000 HD
ENDBRANCH  25  27
ENDBRANCH  10  25
TORSDOF 6
ENDMDL
MODEL 2
REMARK VINA RESULT:      -8.0      1.069      1.273
REMARK  Name = 
REMARK  6 active torsions:
REMARK  status: ('A' for Active; 'I' for Inactive)
REMARK    1  A    between atoms: C_2  and  C_3
REMARK    2  A    between atoms: C_3  and  N_4
REMARK    3  A    between atoms: N_7  and  C_8
REMARK    4  A    between atoms: C_17  and  C_18
REMARK    5  A    between atoms: C_18  and  O_20
REMARK    6  A    between atoms: N_22  and  C_23
REMARK                            x       y       z     vdW  Elec       q    Type
REMARK                         _______ _______ _______ _____ _____    ______ ____
ROOT
ATOM      1  C   UNL     1       1.355   8.611  19.716  0.00  0.00    +0.000 A 
ATOM      2  N   UNL     1       1.692   7.346  20.088  0.00  0.00    +0.000 NA
ATOM      3  C   UNL     1       2.578   6.626  19.352  0.00  0.00    +0.000 A 
ATOM      4  C   UNL     1       3.161   7.169  18.204  0.00  0.00    +0.000 A 
ATOM      5  C   UNL     1       2.820   8.452  17.794  0.00  0.00    +0.000 A 
ATOM      6  C   UNL     1       1.913   9.172  18.559  0.00  0.00    +0.000 A 
ATOM      7  F   UNL     1       1.541  10.382  18.118  0.00  0.00    +0.000 F 
ATOM      8  C   UNL     1       4.131   6.378  17.422  0.00  0.00    +0.000 A 
ATOM      9  O   UNL     1       4.643   6.832  16.399  0.00  0.00    +0.000 OA
ATOM     10  C   UNL     1       4.495   5.029  17.896  0.00  0.00    +0.000 A 
ATOM     11  C   UNL     1       3.873   4.593  19.002  0.00  0.00    +0.000 A 
ATOM     12  N   UNL     1       2.912   5.287  19.713  0.00  0.00    +0.000 N 
ENDROOT
BRANCH   1  16
ATOM     13  N   UNL     1      -0.177  10.919  22.869  0.00  0.00    +0.000 NA
ATOM     14  C   UNL     1       0.300   9.509  22.931  0.00  0.00    +0.000 C 
ATOM     15  C   UNL     1      -0.078   8.656  21.701  0.00  0.00    +0.000 C 
ATOM     16  N   UNL     1       0.409   9.276  20.470  0.00  0.00    +0.000 N 
ATOM     17  C   UNL     1       0.110  10.705  20.293  0.00  0.00    +0.000 C 
ATOM     18  C   UNL     1       0.337  11.506  21.609  0.00  0.00    +0.000 C 
BRANCH  13  19
ATOM     19  C   UNL     1      -1.637  10.932  23.012  0.00  0.00    +0.000 C 
BRANCH  19  21
ATOM     20  C   UNL     1      -2.847  13.479  23.158  0.00  0.00    +0.000 C 
ATOM     21  C   UNL     1      -2.289  12.303  23.091  0.00  0.00    +0.000 C 
ENDBRANCH  19  21
ENDBRANCH  13  19
ENDBRANCH   1  16
BRANCH  12  22
ATOM     22  C   UNL     1       2.358   4.680  20.937  0.00  0.00    +0.000 C 
ATOM     23  C   UNL     1       1.200   3.714  20.925  0.00  0.00    +0.000 C 
ATOM     24  C   UNL     1       2.573   3.213  21.240  0.00  0.00    +0.000 C 
ENDBRANCH  12  22
BRANCH  10  25
ATOM     25  C   UNL     1       5.481   4.161  17.220  0.00  0.00    +0.000 C 
ATOM     26  O   UNL     1       5.282   3.639  16.133  0.00  0.00    +0.000 OA
BRANCH  25  27
ATOM     27  O   UNL     1       6.634   3.987  17.902  0.00  0.00    +0.000 OA
ATOM     28  H   UNL     1       7.388   3.659  17.354  0.00  0.00    +0.000 HD
ENDBRANCH  25  27
ENDBRANCH  10  25
TORSDOF 6
ENDMDL
MODEL 3
REMARK VINA RESULT:      -7.7      1.443      1.822
REMARK  Name = 
REMARK  6 active torsions:
REMARK  status: ('A' for Active; 'I' for Inactive)
REMARK    1  A    between atoms: C_2  and  C_3
REMARK    2  A    between atoms: C_3  and  N_4
REMARK    3  A    between atoms: N_7  and  C_8
REMARK    4  A    between atoms: C_17  and  C_18
REMARK    5  A    between atoms: C_18  and  O_20
REMARK    6  A    between atoms: N_22  and  C_23
REMARK                            x       y       z     vdW  Elec       q    Type
REMARK                         _______ _______ _______ _____ _____    ______ ____
ROOT
ATOM      1  C   UNL     1       1.373   8.961  19.396  0.00  0.00    +0.000 A 
ATOM      2  N   UNL     1       1.566   7.681  19.817  0.00  0.00    +0.000 NA
ATOM      3  C   UNL     1       2.452   6.874  19.178  0.00  0.00    +0.000 A 
ATOM      4  C   UNL     1       3.183   7.340  18.082  0.00  0.00    +0.000 A 
ATOM      5  C   UNL     1       2.990   8.637  17.622  0.00  0.00    +0.000 A 
ATOM      6  C   UNL     1       2.081   9.447  18.288  0.00  0.00    +0.000 A 
ATOM      7  F   UNL     1       1.855  10.673  17.795  0.00  0.00    +0.000 F 
ATOM      8  C   UNL     1       4.151   6.455  17.407  0.00  0.00    +0.000 A 
ATOM      9  O   UNL     1       4.791   6.841  16.429  0.00  0.00    +0.000 OA
ATOM     10  C   UNL     1       4.355   5.091  17.933  0.00  0.00    +0.000 A 
ATOM     11  C   UNL     1       3.598   4.733  18.982  0.00  0.00    +0.000 A 
ATOM     12  N   UNL     1       2.638   5.521  19.589  0.00  0.00    +0.000 N 
ENDROOT
BRANCH   1  16
ATOM     13  N   UNL     1      -0.724  12.409  20.547  0.00  0.00    +0.000 NA
ATOM     14  C   UNL     1       0.648  12.006  20.963  0.00  0.00    +0.000 C 
ATOM     15  C   UNL     1       0.815  10.494  21.222  0.00  0.00    +0.000 C 
ATOM     16  N   UNL     1       0.420   9.719  20.047  0.00  0.00    +0.000 N 
ATOM     17  C   UNL     1      -0.876  10.060  19.442  0.00  0.00    +0.000 C 
ATOM     18  C   UNL     1      -1.082  11.600  19.357  0.00  0.00    +0.000 C 
BRANCH  13  19
ATOM     19  C   UNL     1      -1.628  12.265  21.692  0.00  0.00    +0.000 C 
BRANCH  19  21
ATOM     20  C   UNL     1      -1.325  14.163  23.761  0.00  0.00    +0.000 C 
ATOM     21  C   UNL     1      -1.465  13.286  22.806  0.00  0.00    +0.000 C 
ENDBRANCH  19  21
ENDBRANCH  13  19
ENDBRANCH   1  16
BRANCH  12  22
ATOM     22  C   UNL     1       1.924   4.989  20.765  0.00  0.00    +0.000 C 
ATOM     23  C   UNL     1       1.101   3.726  20.727  0.00  0.00    +0.000 C 
ATOM     24  C   UNL     1       2.404   3.735  21.461  0.00  0.00    +0.000 C 
ENDBRANCH  12  22
BRANCH  10  25
ATOM     25  C   UNL     1       5.322   4.129  17.366  0.00  0.00    +0.000 C 
ATOM     26  O   UNL     1       5.157   3.564  16.295  0.00  0.00    +0.000 OA
BRANCH  25  27
ATOM     27  O   UNL     1       6.417   3.922  18.129  0.00  0.00    +0.000 OA
ATOM     28  H   UNL     1       7.214   3.620  17.628  0.00  0.00    +0.000 HD
ENDBRANCH  25  27
ENDBRANCH  10  25
TORSDOF 6
ENDMDL
MODEL 4
REMARK VINA RESULT:      -7.5      2.648      3.964
REMARK  Name = 
REMARK  6 active torsions:
REMARK  status: ('A' for Active; 'I' for Inactive)
REMARK    1  A    between atoms: C_2  and  C_3
REMARK    2  A    between atoms: C_3  and  N_4
REMARK    3  A    between atoms: N_7  and  C_8
REMARK    4  A    between atoms: C_17  and  C_18
REMARK    5  A    between atoms: C_18  and  O_20
REMARK    6  A    between atoms: N_22  and  C_23
REMARK                            x       y       z     vdW  Elec       q    Type
REMARK                         _______ _______ _______ _____ _____    ______ ____
ROOT
ATOM      1  C   UNL     1       1.546   8.197  19.661  0.00  0.00    +0.000 A 
ATOM      2  N   UNL     1       2.525   7.643  18.894  0.00  0.00    +0.000 NA
ATOM      3  C   UNL     1       2.951   6.376  19.134  0.00  0.00    +0.000 A 
ATOM      4  C   UNL     1       2.395   5.618  20.167  0.00  0.00    +0.000 A 
ATOM      5  C   UNL     1       1.407   6.168  20.975  0.00  0.00    +0.000 A 
ATOM      6  C   UNL     1       0.984   7.463  20.715  0.00  0.00    +0.000 A 
ATOM      7  F   UNL     1       0.079   8.006  21.542  0.00  0.00    +0.000 F 
ATOM      8  C   UNL     1       2.860   4.238  20.407  0.00  0.00    +0.000 A 
ATOM      9  O   UNL     1       2.395   3.560  21.323  0.00  0.00    +0.000 OA
ATOM     10  C   UNL     1       3.891   3.670  19.516  0.00  0.00    +0.000 A 
ATOM     11  C   UNL     1       4.371   4.481  18.560  0.00  0.00    +0.000 A 
ATOM     12  N   UNL     1       3.999   5.797  18.358  0.00  0.00    +0.000 N 
ENDROOT
BRANCH   1  16
ATOM     13  N   UNL     1      -0.989  11.502  19.149  0.00  0.00    +0.000 NA
ATOM     14  C   UNL     1      -0.815  10.347  18.225  0.00  0.00    +0.000 C 
ATOM     15  C   UNL     1       0.641   9.850  18.097  0.00  0.00    +0.000 C 
ATOM     16  N   UNL     1       1.190   9.506  19.408  0.00  0.00    +0.000 N 
ATOM     17  C   UNL     1       1.014  10.504  20.474  0.00  0.00    +0.000 C 
ATOM     18  C   UNL     1      -0.419  11.111  20.461  0.00  0.00    +0.000 C 
BRANCH  13  19
ATOM     19  C   UNL     1      -0.386  12.692  18.538  0.00  0.00    +0.000 C 
BRANCH  19  21
ATOM     20  C   UNL     1      -0.374  15.030  20.122  0.00  0.00    +0.000 C 
ATOM     21  C   UNL     1      -0.380  13.951  19.390  0.00  0.00    +0.000 C 
ENDBRANCH  19  21
ENDBRANCH  13  19
ENDBRANCH   1  16
BRANCH  12  22
ATOM     22  C   UNL     1       4.593   6.537  17.230  0.00  0.00    +0.000 C 
ATOM     23  C   UNL     1       6.059   6.469  16.881  0.00  0.00    +0.000 C 
ATOM     24  C   UNL     1       5.058   5.811  15.986  0.00  0.00    +0.000 C 
ENDBRANCH  12  22
BRANCH  10  25
ATOM     25  C   UNL     1       4.407   2.292  19.634  0.00  0.00    +0.000 C 
ATOM     26  O   UNL     1       5.127   1.920  20.549  0.00  0.00    +0.000 OA
BRANCH  25  27
ATOM     27  O   UNL     1       4.016   1.462  18.642  0.00  0.00    +0.000 OA
ATOM     28  H   UNL     1       4.121   0.501  18.847  0.00  0.00    +0.000 HD
ENDBRANCH  25  27
ENDBRANCH  10  25
TORSDOF 6
ENDMDL
MODEL 5
REMARK VINA RESULT:      -7.2      4.097      8.618
REMARK  Name = 
REMARK  6 active torsions:
REMARK  status: ('A' for Active; 'I' for Inactive)
REMARK    1  A    between atoms: C_2  and  C_3
REMARK    2  A    between atoms: C_3  and  N_4
REMARK    3  A    between atoms: N_7  and  C_8
REMARK    4  A    between atoms: C_17  and  C_18
REMARK    5  A    between atoms: C_18  and  O_20
REMARK    6  A    between atoms: N_22  and  C_23
REMARK                            x       y       z     vdW  Elec       q    Type
REMARK                         _______ _______ _______ _____ _____    ______ ____
ROOT
ATOM      1  C   UNL     1       1.975   7.354  19.331  0.00  0.00    +0.000 A 
ATOM      2  N   UNL     1       1.662   8.650  19.057  0.00  0.00    +0.000 NA
ATOM      3  C   UNL     1       1.028   9.414  19.984  0.00  0.00    +0.000 A 
ATOM      4  C   UNL     1       0.687   8.888  21.233  0.00  0.00    +0.000 A 
ATOM      5  C   UNL     1       0.979   7.562  21.529  0.00  0.00    +0.000 A 
ATOM      6  C   UNL     1       1.628   6.797  20.570  0.00  0.00    +0.000 A 
ATOM      7  F   UNL     1       1.845   5.503  20.842  0.00  0.00    +0.000 F 
ATOM      8  C   UNL     1       0.009   9.735  22.233  0.00  0.00    +0.000 A 
ATOM      9  O   UNL     1      -0.315   9.286  23.332  0.00  0.00    +0.000 OA
ATOM     10  C   UNL     1      -0.265  11.147  21.901  0.00  0.00    +0.000 A 
ATOM     11  C   UNL     1       0.091  11.555  20.673  0.00  0.00    +0.000 A 
ATOM     12  N   UNL     1       0.665  10.763  19.695  0.00  0.00    +0.000 N 
ENDROOT
BRANCH   1  16
ATOM     13  N   UNL     1       4.574   4.545  17.608  0.00  0.00    +0.000 NA
ATOM     14  C   UNL     1       4.929   5.880  18.166  0.00  0.00    +0.000 C 
ATOM     15  C   UNL     1       3.899   6.990  17.862  0.00  0.00    +0.000 C 
ATOM     16  N   UNL     1       2.569   6.608  18.334  0.00  0.00    +0.000 N 
ATOM     17  C   UNL     1       2.100   5.267  17.954  0.00  0.00    +0.000 C 
ATOM     18  C   UNL     1       3.222   4.200  18.109  0.00  0.00    +0.000 C 
BRANCH  13  19
ATOM     19  C   UNL     1       4.703   4.593  16.148  0.00  0.00    +0.000 C 
BRANCH  19  21
ATOM     20  C   UNL     1       7.319   4.936  15.141  0.00  0.00    +0.000 C 
ATOM     21  C   UNL     1       6.111   4.778  15.606  0.00  0.00    +0.000 C 
ENDBRANCH  19  21
ENDBRANCH  13  19
ENDBRANCH   1  16
BRANCH  12  22
ATOM     22  C   UNL     1       1.037  11.382  18.410  0.00  0.00    +0.000 C 
ATOM     23  C   UNL     1       1.128  12.874  18.210  0.00  0.00    +0.000 C 
ATOM     24  C   UNL     1       2.379  12.056  18.234  0.00  0.00    +0.000 C 
ENDBRANCH  12  22
BRANCH  10  25
ATOM     25  C   UNL     1      -0.902  12.100  22.833  0.00  0.00    +0.000 C 
ATOM     26  O   UNL     1      -0.398  13.168  23.148  0.00  0.00    +0.000 OA
BRANCH  25  27
ATOM     27  O   UNL     1      -2.099  11.698  23.312  0.00  0.00    +0.000 OA
ATOM     28  H   UNL     1      -2.737  11.396  22.620  0.00  0.00    +0.000 HD
ENDBRANCH  25  27
ENDBRANCH  10  25
TORSDOF 6
ENDMDL
MODEL 6
REMARK VINA RESULT:      -7.1      3.606      7.757
REMARK  Name = 
REMARK  6 active torsions:
REMARK  status: ('A' for Active; 'I' for Inactive)
REMARK    1  A    between atoms: C_2  and  C_3
REMARK    2  A    between atoms: C_3  and  N_4
REMARK    3  A    between atoms: N_7  and  C_8
REMARK    4  A    between atoms: C_17  and  C_18
REMARK    5  A    between atoms: C_18  and  O_20
REMARK    6  A    between atoms: N_22  and  C_23
REMARK                            x       y       z     vdW  Elec       q    Type
REMARK                         _______ _______ _______ _____ _____    ______ ____
ROOT
ATOM      1  C   UNL     1       2.027   7.692  19.089  0.00  0.00    +0.000 A 
ATOM      2  N   UNL     1       1.250   8.312  20.019  0.00  0.00    +0.000 NA
ATOM      3  C   UNL     1       0.977   9.638  19.914  0.00  0.00    +0.000 A 
ATOM      4  C   UNL     1       1.484  10.390  18.850  0.00  0.00    +0.000 A 
ATOM      5  C   UNL     1       2.294   9.784  17.898  0.00  0.00    +0.000 A 
ATOM      6  C   UNL     1       2.563   8.428  18.022  0.00  0.00    +0.000 A 
ATOM      7  F   UNL     1       3.399   7.870  17.136  0.00  0.00    +0.000 F 
ATOM      8  C   UNL     1       1.168  11.827  18.743  0.00  0.00    +0.000 A 
ATOM      9  O   UNL     1       1.618  12.510  17.824  0.00  0.00    +0.000 OA
ATOM     10  C   UNL     1       0.282  12.438  19.754  0.00  0.00    +0.000 A 
ATOM     11  C   UNL     1      -0.145  11.635  20.741  0.00  0.00    +0.000 A 
ATOM     12  N   UNL     1       0.192  10.304  20.901  0.00  0.00    +0.000 N 
ENDROOT
BRANCH   1  16
ATOM     13  N   UNL     1       1.294   3.584  19.532  0.00  0.00    +0.000 NA
ATOM     14  C   UNL     1       1.008   4.663  20.518  0.00  0.00    +0.000 C 
ATOM     15  C   UNL     1       2.092   5.760  20.591  0.00  0.00    +0.000 C 
ATOM     16  N   UNL     1       2.318   6.356  19.276  0.00  0.00    +0.000 N 
ATOM     17  C   UNL     1       2.520   5.421  18.159  0.00  0.00    +0.000 C 
ATOM     18  C   UNL     1       1.518   4.232  18.217  0.00  0.00    +0.000 C 
BRANCH  13  19
ATOM     19  C   UNL     1       2.414   2.776  20.026  0.00  0.00    +0.000 C 
BRANCH  19  21
ATOM     20  C   UNL     1       3.832   1.296  18.084  0.00  0.00    +0.000 C 
ATOM     21  C   UNL     1       3.177   1.980  18.980  0.00  0.00    +0.000 C 
ENDBRANCH  19  21
ENDBRANCH  13  19
ENDBRANCH   1  16
BRANCH  12  22
ATOM     22  C   UNL     1      -0.402   9.551  22.021  0.00  0.00    +0.000 C 
ATOM     23  C   UNL     1       0.258   9.427  23.371  0.00  0.00    +0.000 C 
ATOM     24  C   UNL     1      -0.968  10.271  23.224  0.00  0.00    +0.000 C 
ENDBRANCH  12  22
BRANCH  10  25
ATOM     25  C   UNL     1      -0.136  13.854  19.730  0.00  0.00    +0.000 C 
ATOM     26  O   UNL     1       0.044  14.623  20.663  0.00  0.00    +0.000 OA
BRANCH  25  27
ATOM     27  O   UNL     1      -0.735  14.241  18.583  0.00  0.00    +0.000 OA
ATOM     28  H   UNL     1      -0.994  15.194  18.557  0.00  0.00    +0.000 HD
ENDBRANCH  25  27
ENDBRANCH  10  25
TORSDOF 6
ENDMDL
MODEL 7
REMARK VINA RESULT:      -6.8      2.779      4.053
REMARK  Name = 
REMARK  6 active torsions:
REMARK  status: ('A' for Active; 'I' for Inactive)
REMARK    1  A    between atoms: C_2  and  C_3
REMARK    2  A    between atoms: C_3  and  N_4
REMARK    3  A    between atoms: N_7  and  C_8
REMARK    4  A    between atoms: C_17  and  C_18
REMARK    5  A    between atoms: C_18  and  O_20
REMARK    6  A    between atoms: N_22  and  C_23
REMARK                            x       y       z     vdW  Elec       q    Type
REMARK                         _______ _______ _______ _____ _____    ______ ____
ROOT
ATOM      1  C   UNL     1       1.498   8.294  19.498  0.00  0.00    +0.000 A 
ATOM      2  N   UNL     1       2.458   7.713  18.727  0.00  0.00    +0.000 NA
ATOM      3  C   UNL     1       2.899   6.460  19.008  0.00  0.00    +0.000 A 
ATOM      4  C   UNL     1       2.377   5.743  20.088  0.00  0.00    +0.000 A 
ATOM      5  C   UNL     1       1.410   6.322  20.900  0.00  0.00    +0.000 A 
ATOM      6  C   UNL     1       0.971   7.603  20.598  0.00  0.00    +0.000 A 
ATOM      7  F   UNL     1       0.087   8.176  21.427  0.00  0.00    +0.000 F 
ATOM      8  C   UNL     1       2.859   4.378  20.372  0.00  0.00    +0.000 A 
ATOM      9  O   UNL     1       2.424   3.737  21.329  0.00  0.00    +0.000 OA
ATOM     10  C   UNL     1       3.867   3.778  19.476  0.00  0.00    +0.000 A 
ATOM     11  C   UNL     1       4.313   4.550  18.473  0.00  0.00    +0.000 A 
ATOM     12  N   UNL     1       3.928   5.855  18.227  0.00  0.00    +0.000 N 
ENDROOT
BRANCH   1  16
ATOM     13  N   UNL     1       1.774  12.480  19.372  0.00  0.00    +0.000 NA
ATOM     14  C   UNL     1       1.473  11.631  20.558  0.00  0.00    +0.000 C 
ATOM     15  C   UNL     1       0.558  10.423  20.259  0.00  0.00    +0.000 C 
ATOM     16  N   UNL     1       1.127   9.590  19.201  0.00  0.00    +0.000 N 
ATOM     17  C   UNL     1       1.575  10.289  17.986  0.00  0.00    +0.000 C 
ATOM     18  C   UNL     1       2.346  11.597  18.327  0.00  0.00    +0.000 C 
BRANCH  13  19
ATOM     19  C   UNL     1       0.556  13.198  18.982  0.00  0.00    +0.000 C 
BRANCH  19  21
ATOM     20  C   UNL     1       0.711  16.017  19.010  0.00  0.00    +0.000 C 
ATOM     21  C   UNL     1       0.640  14.715  18.996  0.00  0.00    +0.000 C 
ENDBRANCH  19  21
ENDBRANCH  13  19
ENDBRANCH   1  16
BRANCH  12  22
ATOM     22  C   UNL     1       4.485   6.549  17.051  0.00  0.00    +0.000 C 
ATOM     23  C   UNL     1       5.963   6.760  16.844  0.00  0.00    +0.000 C 
ATOM     24  C   UNL     1       5.231   5.784  15.981  0.00  0.00    +0.000 C 
ENDBRANCH  12  22
BRANCH  10  25
ATOM     25  C   UNL     1       4.395   2.408  19.637  0.00  0.00    +0.000 C 
ATOM     26  O   UNL     1       5.114   2.071  20.565  0.00  0.00    +0.000 OA
BRANCH  25  27
ATOM     27  O   UNL     1       4.015   1.545  18.669  0.00  0.00    +0.000 OA
ATOM     28  H   UNL     1       3.253   1.855  18.120  0.00  0.00    +0.000 HD
ENDBRANCH  25  27
ENDBRANCH  10  25
TORSDOF 6
ENDMDL
MODEL 8
REMARK VINA RESULT:      -6.7      4.940      8.003
REMARK  Name = 
REMARK  6 active torsions:
REMARK  status: ('A' for Active; 'I' for Inactive)
REMARK    1  A    between atoms: C_2  and  C_3
REMARK    2  A    between atoms: C_3  and  N_4
REMARK    3  A    between atoms: N_7  and  C_8
REMARK    4  A    between atoms: C_17  and  C_18
REMARK    5  A    between atoms: C_18  and  O_20
REMARK    6  A    between atoms: N_22  and  C_23
REMARK                            x       y       z     vdW  Elec       q    Type
REMARK                         _______ _______ _______ _____ _____    ______ ____
ROOT
ATOM      1  C   UNL     1      -3.157  12.763  21.457  0.00  0.00    +0.000 A 
ATOM      2  N   UNL     1      -2.976  12.350  20.172  0.00  0.00    +0.000 NA
ATOM      3  C   UNL     1      -1.876  11.631  19.830  0.00  0.00    +0.000 A 
ATOM      4  C   UNL     1      -0.912  11.300  20.786  0.00  0.00    +0.000 A 
ATOM      5  C   UNL     1      -1.065  11.726  22.100  0.00  0.00    +0.000 A 
ATOM      6  C   UNL     1      -2.196  12.459  22.431  0.00  0.00    +0.000 A 
ATOM      7  F   UNL     1      -2.299  12.921  23.686  0.00  0.00    +0.000 F 
ATOM      8  C   UNL     1       0.272  10.508  20.401  0.00  0.00    +0.000 A 
ATOM      9  O   UNL     1       1.140  10.221  21.224  0.00  0.00    +0.000 OA
ATOM     10  C   UNL     1       0.394  10.046  19.004  0.00  0.00    +0.000 A 
ATOM     11  C   UNL     1      -0.577  10.425  18.159  0.00  0.00    +0.000 A 
ATOM     12  N   UNL     1      -1.660  11.223  18.481  0.00  0.00    +0.000 N 
ENDROOT
BRANCH   1  16
ATOM     13  N   UNL     1      -5.973  14.807  23.804  0.00  0.00    +0.000 NA
ATOM     14  C   UNL     1      -5.834  13.333  23.640  0.00  0.00    +0.000 C 
ATOM     15  C   UNL     1      -5.485  12.883  22.205  0.00  0.00    +0.000 C 
ATOM     16  N   UNL     1      -4.264  13.538  21.737  0.00  0.00    +0.000 N 
ATOM     17  C   UNL     1      -4.192  14.996  21.918  0.00  0.00    +0.000 C 
ATOM     18  C   UNL     1      -4.717  15.428  23.318  0.00  0.00    +0.000 C 
BRANCH  13  19
ATOM     19  C   UNL     1      -7.191  15.247  23.116  0.00  0.00    +0.000 C 
BRANCH  19  21
ATOM     20  C   UNL     1      -7.553  18.039  22.894  0.00  0.00    +0.000 C 
ATOM     21  C   UNL     1      -7.386  16.750  22.997  0.00  0.00    +0.000 C 
ENDBRANCH  19  21
ENDBRANCH  13  19
ENDBRANCH   1  16
BRANCH  12  22
ATOM     22  C   UNL     1      -2.664  11.508  17.440  0.00  0.00    +0.000 C 
ATOM     23  C   UNL     1      -2.691  10.804  16.107  0.00  0.00    +0.000 C 
ATOM     24  C   UNL     1      -3.752  10.509  17.117  0.00  0.00    +0.000 C 
ENDBRANCH  12  22
BRANCH  10  25
ATOM     25  C   UNL     1       1.512   9.217  18.510  0.00  0.00    +0.000 C 
ATOM     26  O   UNL     1       2.065   9.407  17.437  0.00  0.00    +0.000 OA
BRANCH  25  27
ATOM     27  O   UNL     1       1.882   8.222  19.346  0.00  0.00    +0.000 OA
ATOM     28  H   UNL     1       1.369   7.384  19.237  0.00  0.00    +0.000 HD
ENDBRANCH  25  27
ENDBRANCH  10  25
TORSDOF 6
ENDMDL
MODEL 9
REMARK VINA RESULT:      -6.6      4.124      8.638
REMARK  Name = 
REMARK  6 active torsions:
REMARK  status: ('A' for Active; 'I' for Inactive)
REMARK    1  A    between atoms: C_2  and  C_3
REMARK    2  A    between atoms: C_3  and  N_4
REMARK    3  A    between atoms: N_7  and  C_8
REMARK    4  A    between atoms: C_17  and  C_18
REMARK    5  A    between atoms: C_18  and  O_20
REMARK    6  A    between atoms: N_22  and  C_23
REMARK                            x       y       z     vdW  Elec       q    Type
REMARK                         _______ _______ _______ _____ _____    ______ ____
ROOT
ATOM      1  C   UNL     1       1.924   7.515  19.327  0.00  0.00    +0.000 A 
ATOM      2  N   UNL     1       1.149   8.579  18.978  0.00  0.00    +0.000 NA
ATOM      3  C   UNL     1       0.564   9.346  19.934  0.00  0.00    +0.000 A 
ATOM      4  C   UNL     1       0.747   9.061  21.290  0.00  0.00    +0.000 A 
ATOM      5  C   UNL     1       1.519   7.970  21.671  0.00  0.00    +0.000 A 
ATOM      6  C   UNL     1       2.109   7.199  20.680  0.00  0.00    +0.000 A 
ATOM      7  F   UNL     1       2.796   6.111  21.057  0.00  0.00    +0.000 F 
ATOM      8  C   UNL     1       0.115   9.912  22.317  0.00  0.00    +0.000 A 
ATOM      9  O   UNL     1       0.250   9.668  23.516  0.00  0.00    +0.000 OA
ATOM     10  C   UNL     1      -0.677  11.079  21.885  0.00  0.00    +0.000 A 
ATOM     11  C   UNL     1      -0.804  11.262  20.561  0.00  0.00    +0.000 A 
ATOM     12  N   UNL     1      -0.278  10.441  19.580  0.00  0.00    +0.000 N 
ENDROOT
BRANCH   1  16
ATOM     13  N   UNL     1       4.427   4.681  17.508  0.00  0.00    +0.000 NA
ATOM     14  C   UNL     1       4.800   6.044  17.978  0.00  0.00    +0.000 C 
ATOM     15  C   UNL     1       3.726   7.122  17.717  0.00  0.00    +0.000 C 
ATOM     16  N   UNL     1       2.448   6.738  18.314  0.00  0.00    +0.000 N 
ATOM     17  C   UNL     1       1.976   5.374  18.031  0.00  0.00    +0.000 C 
ATOM     18  C   UNL     1       3.129   4.334  18.134  0.00  0.00    +0.000 C 
BRANCH  13  19
ATOM     19  C   UNL     1       4.432   4.668  16.041  0.00  0.00    +0.000 C 
BRANCH  19  21
ATOM     20  C   UNL     1       6.966   4.847  14.806  0.00  0.00    +0.000 C 
ATOM     21  C   UNL     1       5.796   4.764  15.376  0.00  0.00    +0.000 C 
ENDBRANCH  19  21
ENDBRANCH  13  19
ENDBRANCH   1  16
BRANCH  12  22
ATOM     22  C   UNL     1      -0.472  10.811  18.166  0.00  0.00    +0.000 C 
ATOM     23  C   UNL     1      -1.507  10.163  17.281  0.00  0.00    +0.000 C 
ATOM     24  C   UNL     1      -1.701  11.577  17.728  0.00  0.00    +0.000 C 
ENDBRANCH  12  22
BRANCH  10  25
ATOM     25  C   UNL     1      -1.324  12.023  22.818  0.00  0.00    +0.000 C 
ATOM     26  O   UNL     1      -0.929  13.166  22.999  0.00  0.00    +0.000 OA
BRANCH  25  27
ATOM     27  O   UNL     1      -2.400  11.523  23.463  0.00  0.00    +0.000 OA
ATOM     28  H   UNL     1      -2.185  10.871  24.175  0.00  0.00    +0.000 HD
ENDBRANCH  25  27
ENDBRANCH  10  25
TORSDOF 6
ENDMDL
