MODEL 1
REMARK VINA RESULT:      -6.0      0.000      0.000
REMARK  Name = 
REMARK  9 active torsions:
REMARK  status: ('A' for Active; 'I' for Inactive)
REMARK    1  A    between atoms: C_1  and  C_2
REMARK    2  A    between atoms: C_2  and  O_3
REMARK    3  A    between atoms: O_3  and  C_4
REMARK    4  A    between atoms: C_11  and  C_12
REMARK    5  A    between atoms: C_12  and  N_13
REMARK    6  A    between atoms: N_13  and  C_14
REMARK    7  A    between atoms: C_14  and  C_15
REMARK    8  A    between atoms: C_15  and  C_16
REMARK    9  A    between atoms: C_16  and  N_17
REMARK                            x       y       z     vdW  Elec       q    Type
REMARK                         _______ _______ _______ _____ _____    ______ ____
ROOT
ATOM      1  C   UNL     1       3.955   5.491  17.519  0.00  0.00    +0.000 A 
ATOM      2  C   UNL     1       4.088   4.147  17.100  0.00  0.00    +0.000 A 
ATOM      3 CL   UNL     1       5.451   3.628  16.162  0.00  0.00    +0.000 Cl
ATOM      4  C   UNL     1       3.131   3.180  17.419  0.00  0.00    +0.000 A 
ATOM      5  C   UNL     1       2.026   3.542  18.173  0.00  0.00    +0.000 A 
ATOM      6 CL   UNL     1       0.827   2.372  18.564  0.00  0.00    +0.000 Cl
ATOM      7  C   UNL     1       1.890   4.850  18.628  0.00  0.00    +0.000 A 
ATOM      8  C   UNL     1       2.860   5.839  18.338  0.00  0.00    +0.000 A 
ENDROOT
BRANCH   1   9
ATOM      9  O   UNL     1       4.977   6.327  17.141  0.00  0.00    +0.000 OA
BRANCH   9  11
ATOM     10  C   UNL     1       7.131   7.400  17.429  0.00  0.00    +0.000 C 
ATOM     11  C   UNL     1       6.129   6.409  17.978  0.00  0.00    +0.000 C 
ENDBRANCH   9  11
ENDBRANCH   1   9
BRANCH   8  12
ATOM     12  C   UNL     1       2.633   7.196  18.961  0.00  0.00    +0.000 C 
BRANCH  12  13
ATOM     13  N   UNL     1       2.715   8.270  17.974  0.00  0.00    +0.000 NA
ATOM     14  H   UNL     1       2.806   7.846  17.048  0.00  0.00    +0.000 HD
BRANCH  13  15
ATOM     15  C   UNL     1       1.508   9.091  18.021  0.00  0.00    +0.000 C 
BRANCH  15  16
ATOM     16  C   UNL     1       1.095   9.256  19.478  0.00  0.00    +0.000 C 
BRANCH  16  17
ATOM     17  C   UNL     1       0.483  10.624  19.723  0.00  0.00    +0.000 C 
BRANCH  17  18
ATOM     18  N   UNL     1      -0.034  10.708  21.073  0.00  0.00    +0.000 N 
ATOM     19  C   UNL     1      -0.902  11.646  21.552  0.00  0.00    +0.000 A 
ATOM     20  C   UNL     1      -1.041  11.347  22.888  0.00  0.00    +0.000 A 
ATOM     21  N   UNL     1      -0.292  10.250  23.223  0.00  0.00    +0.000 NA
ATOM     22  C   UNL     1       0.309   9.889  22.110  0.00  0.00    +0.000 A 
ENDBRANCH  17  18
ENDBRANCH  16  17
ENDBRANCH  15  16
ENDBRANCH  13  15
ENDBRANCH  12  13
ENDBRANCH   8  12
TORSDOF 8
ENDMDL
MODEL 2
REMARK VINA RESULT:      -6.0      2.448      4.010
REMARK  Name = 
REMARK  9 active torsions:
REMARK  status: ('A' for Active; 'I' for Inactive)
REMARK    1  A    between atoms: C_1  and  C_2
REMARK    2  A    between atoms: C_2  and  O_3
REMARK    3  A    between atoms: O_3  and  C_4
REMARK    4  A    between atoms: C_11  and  C_12
REMARK    5  A    between atoms: C_12  and  N_13
REMARK    6  A    between atoms: N_13  and  C_14
REMARK    7  A    between atoms: C_14  and  C_15
REMARK    8  A    between atoms: C_15  and  C_16
REMARK    9  A    between atoms: C_16  and  N_17
REMARK                            x       y       z     vdW  Elec       q    Type
REMARK                         _______ _______ _______ _____ _____    ______ ____
ROOT
ATOM      1  C   UNL     1       2.737   4.982  18.471  0.00  0.00    +0.000 A 
ATOM      2  C   UNL     1       3.368   3.870  17.868  0.00  0.00    +0.000 A 
ATOM      3 CL   UNL     1       2.872   2.249  18.229  0.00  0.00    +0.000 Cl
ATOM      4  C   UNL     1       4.417   4.026  16.958  0.00  0.00    +0.000 A 
ATOM      5  C   UNL     1       4.848   5.302  16.630  0.00  0.00    +0.000 A 
ATOM      6 CL   UNL     1       6.148   5.517  15.524  0.00  0.00    +0.000 Cl
ATOM      7  C   UNL     1       4.219   6.413  17.183  0.00  0.00    +0.000 A 
ATOM      8  C   UNL     1       3.138   6.279  18.087  0.00  0.00    +0.000 A 
ENDROOT
BRANCH   1   9
ATOM      9  O   UNL     1       1.715   4.678  19.337  0.00  0.00    +0.000 OA
BRANCH   9  11
ATOM     10  C   UNL     1       1.608   3.354  21.365  0.00  0.00    +0.000 C 
ATOM     11  C   UNL     1       1.992   4.676  20.736  0.00  0.00    +0.000 C 
ENDBRANCH   9  11
ENDBRANCH   1   9
BRANCH   8  12
ATOM     12  C   UNL     1       2.494   7.565  18.548  0.00  0.00    +0.000 C 
BRANCH  12  13
ATOM     13  N   UNL     1       2.326   8.515  17.452  0.00  0.00    +0.000 NA
ATOM     14  H   UNL     1       1.566   8.182  16.854  0.00  0.00    +0.000 HD
BRANCH  13  15
ATOM     15  C   UNL     1       1.993   9.838  17.977  0.00  0.00    +0.000 C 
BRANCH  15  16
ATOM     16  C   UNL     1       0.698   9.728  18.771  0.00  0.00    +0.000 C 
BRANCH  16  17
ATOM     17  C   UNL     1      -0.079  11.032  18.736  0.00  0.00    +0.000 C 
BRANCH  17  18
ATOM     18  N   UNL     1      -1.411  10.809  18.212  0.00  0.00    +0.000 N 
ATOM     19  C   UNL     1      -1.750   9.972  17.188  0.00  0.00    +0.000 A 
ATOM     20  C   UNL     1      -3.104  10.152  17.021  0.00  0.00    +0.000 A 
ATOM     21  N   UNL     1      -3.589  11.063  17.922  0.00  0.00    +0.000 NA
ATOM     22  C   UNL     1      -2.545  11.446  18.624  0.00  0.00    +0.000 A 
ENDBRANCH  17  18
ENDBRANCH  16  17
ENDBRANCH  15  16
ENDBRANCH  13  15
ENDBRANCH  12  13
ENDBRANCH   8  12
TORSDOF 8
ENDMDL
MODEL 3
REMARK VINA RESULT:      -6.0      2.049      2.602
REMARK  Name = 
REMARK  9 active torsions:
REMARK  status: ('A' for Active; 'I' for Inactive)
REMARK    1  A    between atoms: C_1  and  C_2
REMARK    2  A    between atoms: C_2  and  O_3
REMARK    3  A    between atoms: O_3  and  C_4
REMARK    4  A    between atoms: C_11  and  C_12
REMARK    5  A    between atoms: C_12  and  N_13
REMARK    6  A    between atoms: N_13  and  C_14
REMARK    7  A    between atoms: C_14  and  C_15
REMARK    8  A    between atoms: C_15  and  C_16
REMARK    9  A    between atoms: C_16  and  N_17
REMARK                            x       y       z     vdW  Elec       q    Type
REMARK                         _______ _______ _______ _____ _____    ______ ____
ROOT
ATOM      1  C   UNL     1       3.988   5.669  17.233  0.00  0.00    +0.000 A 
ATOM      2  C   UNL     1       4.166   4.300  16.927  0.00  0.00    +0.000 A 
ATOM      3 CL   UNL     1       5.537   3.752  16.020  0.00  0.00    +0.000 Cl
ATOM      4  C   UNL     1       3.247   3.330  17.339  0.00  0.00    +0.000 A 
ATOM      5  C   UNL     1       2.136   3.715  18.073  0.00  0.00    +0.000 A 
ATOM      6 CL   UNL     1       0.984   2.542  18.575  0.00  0.00    +0.000 Cl
ATOM      7  C   UNL     1       1.957   5.052  18.417  0.00  0.00    +0.000 A 
ATOM      8  C   UNL     1       2.888   6.047  18.033  0.00  0.00    +0.000 A 
ENDROOT
BRANCH   1   9
ATOM      9  O   UNL     1       4.976   6.506  16.773  0.00  0.00    +0.000 OA
BRANCH   9  11
ATOM     10  C   UNL     1       7.361   6.558  17.199  0.00  0.00    +0.000 C 
ATOM     11  C   UNL     1       5.980   6.933  17.691  0.00  0.00    +0.000 C 
ENDBRANCH   9  11
ENDBRANCH   1   9
BRANCH   8  12
ATOM     12  C   UNL     1       2.618   7.443  18.542  0.00  0.00    +0.000 C 
BRANCH  12  13
ATOM     13  N   UNL     1       2.608   8.425  17.460  0.00  0.00    +0.000 NA
ATOM     14  H   UNL     1       2.050   8.047  16.691  0.00  0.00    +0.000 HD
BRANCH  13  15
ATOM     15  C   UNL     1       2.021   9.680  17.924  0.00  0.00    +0.000 C 
BRANCH  15  16
ATOM     16  C   UNL     1       0.515   9.489  18.047  0.00  0.00    +0.000 C 
BRANCH  16  17
ATOM     17  C   UNL     1      -0.154  10.740  18.589  0.00  0.00    +0.000 C 
BRANCH  17  18
ATOM     18  N   UNL     1      -1.545  10.779  18.188  0.00  0.00    +0.000 N 
ATOM     19  C   UNL     1      -2.140   9.990  17.247  0.00  0.00    +0.000 A 
ATOM     20  C   UNL     1      -3.438  10.442  17.178  0.00  0.00    +0.000 A 
ATOM     21  N   UNL     1      -3.642  11.472  18.058  0.00  0.00    +0.000 NA
ATOM     22  C   UNL     1      -2.483  11.657  18.650  0.00  0.00    +0.000 A 
ENDBRANCH  17  18
ENDBRANCH  16  17
ENDBRANCH  15  16
ENDBRANCH  13  15
ENDBRANCH  12  13
ENDBRANCH   8  12
TORSDOF 8
ENDMDL
MODEL 4
REMARK VINA RESULT:      -6.0      2.362      3.862
REMARK  Name = 
REMARK  9 active torsions:
REMARK  status: ('A' for Active; 'I' for Inactive)
REMARK    1  A    between atoms: C_1  and  C_2
REMARK    2  A    between atoms: C_2  and  O_3
REMARK    3  A    between atoms: O_3  and  C_4
REMARK    4  A    between atoms: C_11  and  C_12
REMARK    5  A    between atoms: C_12  and  N_13
REMARK    6  A    between atoms: N_13  and  C_14
REMARK    7  A    between atoms: C_14  and  C_15
REMARK    8  A    between atoms: C_15  and  C_16
REMARK    9  A    between atoms: C_16  and  N_17
REMARK                            x       y       z     vdW  Elec       q    Type
REMARK                         _______ _______ _______ _____ _____    ______ ____
ROOT
ATOM      1  C   UNL     1       3.267   5.035  19.542  0.00  0.00    +0.000 A 
ATOM      2  C   UNL     1       4.120   4.064  18.967  0.00  0.00    +0.000 A 
ATOM      3 CL   UNL     1       4.362   2.521  19.718  0.00  0.00    +0.000 Cl
ATOM      4  C   UNL     1       4.806   4.304  17.773  0.00  0.00    +0.000 A 
ATOM      5  C   UNL     1       4.643   5.520  17.129  0.00  0.00    +0.000 A 
ATOM      6 CL   UNL     1       5.490   5.843  15.667  0.00  0.00    +0.000 Cl
ATOM      7  C   UNL     1       3.782   6.478  17.656  0.00  0.00    +0.000 A 
ATOM      8  C   UNL     1       3.057   6.246  18.849  0.00  0.00    +0.000 A 
ENDROOT
BRANCH   1   9
ATOM      9  O   UNL     1       2.652   4.657  20.710  0.00  0.00    +0.000 OA
BRANCH   9  11
ATOM     10  C   UNL     1       1.339   2.784  21.512  0.00  0.00    +0.000 C 
ATOM     11  C   UNL     1       1.384   4.010  20.626  0.00  0.00    +0.000 C 
ENDBRANCH   9  11
ENDBRANCH   1   9
BRANCH   8  12
ATOM     12  C   UNL     1       2.096   7.334  19.266  0.00  0.00    +0.000 C 
BRANCH  12  13
ATOM     13  N   UNL     1       2.028   7.475  20.718  0.00  0.00    +0.000 NA
ATOM     14  H   UNL     1       2.965   7.699  21.061  0.00  0.00    +0.000 HD
BRANCH  13  15
ATOM     15  C   UNL     1       1.104   8.548  21.078  0.00  0.00    +0.000 C 
BRANCH  15  16
ATOM     16  C   UNL     1       0.990   9.500  19.895  0.00  0.00    +0.000 C 
BRANCH  16  17
ATOM     17  C   UNL     1       0.343  10.811  20.307  0.00  0.00    +0.000 C 
BRANCH  17  18
ATOM     18  N   UNL     1      -0.839  11.061  19.508  0.00  0.00    +0.000 N 
ATOM     19  C   UNL     1      -1.851  11.926  19.807  0.00  0.00    +0.000 A 
ATOM     20  C   UNL     1      -2.763  11.765  18.789  0.00  0.00    +0.000 A 
ATOM     21  N   UNL     1      -2.323  10.837  17.882  0.00  0.00    +0.000 NA
ATOM     22  C   UNL     1      -1.162  10.425  18.344  0.00  0.00    +0.000 A 
ENDBRANCH  17  18
ENDBRANCH  16  17
ENDBRANCH  15  16
ENDBRANCH  13  15
ENDBRANCH  12  13
ENDBRANCH   8  12
TORSDOF 8
ENDMDL
MODEL 5
REMARK VINA RESULT:      -5.9      1.791      3.082
REMARK  Name = 
REMARK  9 active torsions:
REMARK  status: ('A' for Active; 'I' for Inactive)
REMARK    1  A    between atoms: C_1  and  C_2
REMARK    2  A    between atoms: C_2  and  O_3
REMARK    3  A    between atoms: O_3  and  C_4
REMARK    4  A    between atoms: C_11  and  C_12
REMARK    5  A    between atoms: C_12  and  N_13
REMARK    6  A    between atoms: N_13  and  C_14
REMARK    7  A    between atoms: C_14  and  C_15
REMARK    8  A    between atoms: C_15  and  C_16
REMARK    9  A    between atoms: C_16  and  N_17
REMARK                            x       y       z     vdW  Elec       q    Type
REMARK                         _______ _______ _______ _____ _____    ______ ____
ROOT
ATOM      1  C   UNL     1       3.488   5.096  19.363  0.00  0.00    +0.000 A 
ATOM      2  C   UNL     1       4.230   4.023  18.818  0.00  0.00    +0.000 A 
ATOM      3 CL   UNL     1       4.405   2.524  19.672  0.00  0.00    +0.000 Cl
ATOM      4  C   UNL     1       4.854   4.120  17.571  0.00  0.00    +0.000 A 
ATOM      5  C   UNL     1       4.740   5.295  16.844  0.00  0.00    +0.000 A 
ATOM      6 CL   UNL     1       5.514   5.443  15.316  0.00  0.00    +0.000 Cl
ATOM      7  C   UNL     1       3.986   6.352  17.344  0.00  0.00    +0.000 A 
ATOM      8  C   UNL     1       3.324   6.266  18.591  0.00  0.00    +0.000 A 
ENDROOT
BRANCH   1   9
ATOM      9  O   UNL     1       2.922   4.853  20.591  0.00  0.00    +0.000 OA
BRANCH   9  11
ATOM     10  C   UNL     1       0.972   3.576  19.925  0.00  0.00    +0.000 C 
ATOM     11  C   UNL     1       1.501   4.779  20.676  0.00  0.00    +0.000 C 
ENDBRANCH   9  11
ENDBRANCH   1   9
BRANCH   8  12
ATOM     12  C   UNL     1       2.473   7.453  18.977  0.00  0.00    +0.000 C 
BRANCH  12  13
ATOM     13  N   UNL     1       2.278   8.370  17.857  0.00  0.00    +0.000 NA
ATOM     14  H   UNL     1       1.642   7.928  17.189  0.00  0.00    +0.000 HD
BRANCH  13  15
ATOM     15  C   UNL     1       1.697   9.625  18.329  0.00  0.00    +0.000 C 
BRANCH  15  16
ATOM     16  C   UNL     1       0.933   9.347  19.617  0.00  0.00    +0.000 C 
BRANCH  16  17
ATOM     17  C   UNL     1      -0.339  10.173  19.689  0.00  0.00    +0.000 C 
BRANCH  17  18
ATOM     18  N   UNL     1      -0.551  10.651  21.040  0.00  0.00    +0.000 N 
ATOM     19  C   UNL     1      -1.103  11.846  21.399  0.00  0.00    +0.000 A 
ATOM     20  C   UNL     1      -1.032  11.868  22.773  0.00  0.00    +0.000 A 
ATOM     21  N   UNL     1      -0.463  10.716  23.250  0.00  0.00    +0.000 NA
ATOM     22  C   UNL     1      -0.179  10.003  22.182  0.00  0.00    +0.000 A 
ENDBRANCH  17  18
ENDBRANCH  16  17
ENDBRANCH  15  16
ENDBRANCH  13  15
ENDBRANCH  12  13
ENDBRANCH   8  12
TORSDOF 8
ENDMDL
MODEL 6
REMARK VINA RESULT:      -5.9      1.901      3.317
REMARK  Name = 
REMARK  9 active torsions:
REMARK  status: ('A' for Active; 'I' for Inactive)
REMARK    1  A    between atoms: C_1  and  C_2
REMARK    2  A    between atoms: C_2  and  O_3
REMARK    3  A    between atoms: O_3  and  C_4
REMARK    4  A    between atoms: C_11  and  C_12
REMARK    5  A    between atoms: C_12  and  N_13
REMARK    6  A    between atoms: N_13  and  C_14
REMARK    7  A    between atoms: C_14  and  C_15
REMARK    8  A    between atoms: C_15  and  C_16
REMARK    9  A    between atoms: C_16  and  N_17
REMARK                            x       y       z     vdW  Elec       q    Type
REMARK                         _______ _______ _______ _____ _____    ______ ____
ROOT
ATOM      1  C   UNL     1       3.290   5.285  19.466  0.00  0.00    +0.000 A 
ATOM      2  C   UNL     1       4.152   4.351  18.848  0.00  0.00    +0.000 A 
ATOM      3 CL   UNL     1       4.469   2.806  19.567  0.00  0.00    +0.000 Cl
ATOM      4  C   UNL     1       4.787   4.629  17.634  0.00  0.00    +0.000 A 
ATOM      5  C   UNL     1       4.562   5.847  17.013  0.00  0.00    +0.000 A 
ATOM      6 CL   UNL     1       5.346   6.217  15.528  0.00  0.00    +0.000 Cl
ATOM      7  C   UNL     1       3.690   6.769  17.584  0.00  0.00    +0.000 A 
ATOM      8  C   UNL     1       3.017   6.498  18.799  0.00  0.00    +0.000 A 
ENDROOT
BRANCH   1   9
ATOM      9  O   UNL     1       2.729   4.872  20.650  0.00  0.00    +0.000 OA
BRANCH   9  11
ATOM     10  C   UNL     1       1.422   2.979  21.413  0.00  0.00    +0.000 C 
ATOM     11  C   UNL     1       1.441   4.260  20.609  0.00  0.00    +0.000 C 
ENDBRANCH   9  11
ENDBRANCH   1   9
BRANCH   8  12
ATOM     12  C   UNL     1       2.037   7.549  19.265  0.00  0.00    +0.000 C 
BRANCH  12  13
ATOM     13  N   UNL     1       2.321   8.858  18.681  0.00  0.00    +0.000 NA
ATOM     14  H   UNL     1       3.113   8.756  18.042  0.00  0.00    +0.000 HD
BRANCH  13  15
ATOM     15  C   UNL     1       1.156   9.345  17.946  0.00  0.00    +0.000 C 
BRANCH  15  16
ATOM     16  C   UNL     1       0.168   9.932  18.945  0.00  0.00    +0.000 C 
BRANCH  16  17
ATOM     17  C   UNL     1       0.866  10.857  19.927  0.00  0.00    +0.000 C 
BRANCH  17  18
ATOM     18  N   UNL     1       0.411  10.592  21.276  0.00  0.00    +0.000 N 
ATOM     19  C   UNL     1       0.576   9.432  21.975  0.00  0.00    +0.000 A 
ATOM     20  C   UNL     1      -0.076   9.643  23.168  0.00  0.00    +0.000 A 
ATOM     21  N   UNL     1      -0.619  10.900  23.211  0.00  0.00    +0.000 NA
ATOM     22  C   UNL     1      -0.314  11.448  22.054  0.00  0.00    +0.000 A 
ENDBRANCH  17  18
ENDBRANCH  16  17
ENDBRANCH  15  16
ENDBRANCH  13  15
ENDBRANCH  12  13
ENDBRANCH   8  12
TORSDOF 8
ENDMDL
MODEL 7
REMARK VINA RESULT:      -5.9      1.660      3.278
REMARK  Name = 
REMARK  9 active torsions:
REMARK  status: ('A' for Active; 'I' for Inactive)
REMARK    1  A    between atoms: C_1  and  C_2
REMARK    2  A    between atoms: C_2  and  O_3
REMARK    3  A    between atoms: O_3  and  C_4
REMARK    4  A    between atoms: C_11  and  C_12
REMARK    5  A    between atoms: C_12  and  N_13
REMARK    6  A    between atoms: N_13  and  C_14
REMARK    7  A    between atoms: C_14  and  C_15
REMARK    8  A    between atoms: C_15  and  C_16
REMARK    9  A    between atoms: C_16  and  N_17
REMARK                            x       y       z     vdW  Elec       q    Type
REMARK                         _______ _______ _______ _____ _____    ______ ____
ROOT
ATOM      1  C   UNL     1       2.575   4.857  18.209  0.00  0.00    +0.000 A 
ATOM      2  C   UNL     1       3.227   3.769  17.584  0.00  0.00    +0.000 A 
ATOM      3 CL   UNL     1       2.638   2.148  17.755  0.00  0.00    +0.000 Cl
ATOM      4  C   UNL     1       4.373   3.950  16.804  0.00  0.00    +0.000 A 
ATOM      5  C   UNL     1       4.881   5.227  16.630  0.00  0.00    +0.000 A 
ATOM      6 CL   UNL     1       6.299   5.471  15.687  0.00  0.00    +0.000 Cl
ATOM      7  C   UNL     1       4.237   6.318  17.206  0.00  0.00    +0.000 A 
ATOM      8  C   UNL     1       3.062   6.161  17.978  0.00  0.00    +0.000 A 
ENDROOT
BRANCH   1   9
ATOM      9  O   UNL     1       1.456   4.531  18.936  0.00  0.00    +0.000 OA
BRANCH   9  11
ATOM     10  C   UNL     1       1.244   3.163  20.925  0.00  0.00    +0.000 C 
ATOM     11  C   UNL     1       1.550   4.532  20.359  0.00  0.00    +0.000 C 
ENDBRANCH   9  11
ENDBRANCH   1   9
BRANCH   8  12
ATOM     12  C   UNL     1       2.418   7.434  18.475  0.00  0.00    +0.000 C 
BRANCH  12  13
ATOM     13  N   UNL     1       2.599   8.539  17.538  0.00  0.00    +0.000 NA
ATOM     14  H   UNL     1       2.360   8.206  16.602  0.00  0.00    +0.000 HD
BRANCH  13  15
ATOM     15  C   UNL     1       1.728   9.655  17.901  0.00  0.00    +0.000 C 
BRANCH  15  16
ATOM     16  C   UNL     1       1.144   9.381  19.280  0.00  0.00    +0.000 C 
BRANCH  16  17
ATOM     17  C   UNL     1      -0.227  10.015  19.431  0.00  0.00    +0.000 C 
BRANCH  17  18
ATOM     18  N   UNL     1      -0.158  11.150  20.329  0.00  0.00    +0.000 N 
ATOM     19  C   UNL     1       0.113  12.442  19.982  0.00  0.00    +0.000 A 
ATOM     20  C   UNL     1       0.129  13.130  21.174  0.00  0.00    +0.000 A 
ATOM     21  N   UNL     1      -0.136  12.291  22.224  0.00  0.00    +0.000 NA
ATOM     22  C   UNL     1      -0.300  11.102  21.686  0.00  0.00    +0.000 A 
ENDBRANCH  17  18
ENDBRANCH  16  17
ENDBRANCH  15  16
ENDBRANCH  13  15
ENDBRANCH  12  13
ENDBRANCH   8  12
TORSDOF 8
ENDMDL
MODEL 8
REMARK VINA RESULT:      -5.8      2.715      4.084
REMARK  Name = 
REMARK  9 active torsions:
REMARK  status: ('A' for Active; 'I' for Inactive)
REMARK    1  A    between atoms: C_1  and  C_2
REMARK    2  A    between atoms: C_2  and  O_3
REMARK    3  A    between atoms: O_3  and  C_4
REMARK    4  A    between atoms: C_11  and  C_12
REMARK    5  A    between atoms: C_12  and  N_13
REMARK    6  A    between atoms: N_13  and  C_14
REMARK    7  A    between atoms: C_14  and  C_15
REMARK    8  A    between atoms: C_15  and  C_16
REMARK    9  A    between atoms: C_16  and  N_17
REMARK                            x       y       z     vdW  Elec       q    Type
REMARK                         _______ _______ _______ _____ _____    ______ ____
ROOT
ATOM      1  C   UNL     1       3.533   5.274  19.204  0.00  0.00    +0.000 A 
ATOM      2  C   UNL     1       4.307   4.171  18.776  0.00  0.00    +0.000 A 
ATOM      3 CL   UNL     1       4.481   2.757  19.764  0.00  0.00    +0.000 Cl
ATOM      4  C   UNL     1       4.964   4.169  17.543  0.00  0.00    +0.000 A 
ATOM      5  C   UNL     1       4.852   5.272  16.712  0.00  0.00    +0.000 A 
ATOM      6 CL   UNL     1       5.666   5.299  15.197  0.00  0.00    +0.000 Cl
ATOM      7  C   UNL     1       4.068   6.356  17.095  0.00  0.00    +0.000 A 
ATOM      8  C   UNL     1       3.372   6.368  18.327  0.00  0.00    +0.000 A 
ENDROOT
BRANCH   1   9
ATOM      9  O   UNL     1       2.936   5.131  20.433  0.00  0.00    +0.000 OA
BRANCH   9  11
ATOM     10  C   UNL     1       1.053   3.614  20.270  0.00  0.00    +0.000 C 
ATOM     11  C   UNL     1       1.515   5.039  20.487  0.00  0.00    +0.000 C 
ENDBRANCH   9  11
ENDBRANCH   1   9
BRANCH   8  12
ATOM     12  C   UNL     1       2.492   7.569  18.583  0.00  0.00    +0.000 C 
BRANCH  12  13
ATOM     13  N   UNL     1       2.631   8.579  17.537  0.00  0.00    +0.000 NA
ATOM     14  H   UNL     1       2.221   8.206  16.677  0.00  0.00    +0.000 HD
BRANCH  13  15
ATOM     15  C   UNL     1       1.932   9.803  17.923  0.00  0.00    +0.000 C 
BRANCH  15  16
ATOM     16  C   UNL     1       0.465   9.466  18.156  0.00  0.00    +0.000 C 
BRANCH  16  17
ATOM     17  C   UNL     1      -0.310  10.687  18.619  0.00  0.00    +0.000 C 
BRANCH  17  18
ATOM     18  N   UNL     1      -1.589  10.755  17.943  0.00  0.00    +0.000 N 
ATOM     19  C   UNL     1      -2.606  11.624  18.217  0.00  0.00    +0.000 A 
ATOM     20  C   UNL     1      -3.620  11.259  17.362  0.00  0.00    +0.000 A 
ATOM     21  N   UNL     1      -3.239  10.204  16.575  0.00  0.00    +0.000 NA
ATOM     22  C   UNL     1      -2.012   9.917  16.951  0.00  0.00    +0.000 A 
ENDBRANCH  17  18
ENDBRANCH  16  17
ENDBRANCH  15  16
ENDBRANCH  13  15
ENDBRANCH  12  13
ENDBRANCH   8  12
TORSDOF 8
ENDMDL
MODEL 9
REMARK VINA RESULT:      -5.8      4.452      7.103
REMARK  Name = 
REMARK  9 active torsions:
REMARK  status: ('A' for Active; 'I' for Inactive)
REMARK    1  A    between atoms: C_1  and  C_2
REMARK    2  A    between atoms: C_2  and  O_3
REMARK    3  A    between atoms: O_3  and  C_4
REMARK    4  A    between atoms: C_11  and  C_12
REMARK    5  A    between atoms: C_12  and  N_13
REMARK    6  A    between atoms: N_13  and  C_14
REMARK    7  A    between atoms: C_14  and  C_15
REMARK    8  A    between atoms: C_15  and  C_16
REMARK    9  A    between atoms: C_16  and  N_17
REMARK                            x       y       z     vdW  Elec       q    Type
REMARK                         _______ _______ _______ _____ _____    ______ ____
ROOT
ATOM      1  C   UNL     1       4.776   4.788  17.052  0.00  0.00    +0.000 A 
ATOM      2  C   UNL     1       3.411   4.595  17.367  0.00  0.00    +0.000 A 
ATOM      3 CL   UNL     1       2.656   3.045  17.184  0.00  0.00    +0.000 Cl
ATOM      4  C   UNL     1       2.611   5.640  17.837  0.00  0.00    +0.000 A 
ATOM      5  C   UNL     1       3.168   6.898  18.008  0.00  0.00    +0.000 A 
ATOM      6 CL   UNL     1       2.198   8.202  18.569  0.00  0.00    +0.000 Cl
ATOM      7  C   UNL     1       4.517   7.104  17.738  0.00  0.00    +0.000 A 
ATOM      8  C   UNL     1       5.352   6.055  17.287  0.00  0.00    +0.000 A 
ENDROOT
BRANCH   1   9
ATOM      9  O   UNL     1       5.440   3.669  16.611  0.00  0.00    +0.000 OA
BRANCH   9  11
ATOM     10  C   UNL     1       5.313   4.316  14.279  0.00  0.00    +0.000 C 
ATOM     11  C   UNL     1       6.172   3.755  15.391  0.00  0.00    +0.000 C 
ENDBRANCH   9  11
ENDBRANCH   1   9
BRANCH   8  12
ATOM     12  C   UNL     1       6.813   6.395  17.111  0.00  0.00    +0.000 C 
BRANCH  12  13
ATOM     13  N   UNL     1       7.047   7.836  17.161  0.00  0.00    +0.000 NA
ATOM     14  H   UNL     1       6.186   8.288  17.475  0.00  0.00    +0.000 HD
BRANCH  13  15
ATOM     15  C   UNL     1       8.130   8.138  18.095  0.00  0.00    +0.000 C 
BRANCH  15  16
ATOM     16  C   UNL     1       8.395   9.637  18.056  0.00  0.00    +0.000 C 
BRANCH  16  17
ATOM     17  C   UNL     1       9.364  10.051  19.149  0.00  0.00    +0.000 C 
BRANCH  17  18
ATOM     18  N   UNL     1      10.094  11.237  18.749  0.00  0.00    +0.000 N 
ATOM     19  C   UNL     1       9.705  12.151  17.814  0.00  0.00    +0.000 A 
ATOM     20  C   UNL     1      10.748  13.047  17.743  0.00  0.00    +0.000 A 
ATOM     21  N   UNL     1      11.745  12.703  18.617  0.00  0.00    +0.000 NA
ATOM     22  C   UNL     1      11.326  11.605  19.206  0.00  0.00    +0.000 A 
ENDBRANCH  17  18
ENDBRANCH  16  17
ENDBRANCH  15  16
ENDBRANCH  13  15
ENDBRANCH  12  13
ENDBRANCH   8  12
TORSDOF 8
ENDMDL
