MODEL 1
REMARK VINA RESULT:      -7.9      0.000      0.000
REMARK  Name = 
REMARK  5 active torsions:
REMARK  status: ('A' for Active; 'I' for Inactive)
REMARK    1  A    between atoms: C_5  and  N_6
REMARK    2  A    between atoms: N_6  and  C_7
REMARK    3  A    between atoms: C_7  and  C_8
REMARK    4  A    between atoms: C_8  and  C_9
REMARK    5  A    between atoms: C_13  and  C_14
REMARK                            x       y       z     vdW  Elec       q    Type
REMARK                         _______ _______ _______ _____ _____    ______ ____
ROOT
ATOM      1  N   UNL     1       2.540   6.517  20.469  0.00  0.00    +0.000 N 
ATOM      2  H   UNL     1       3.271   6.633  21.172  0.00  0.00    +0.000 HD
ENDROOT
BRANCH   1   7
ATOM      3  O   UNL     1       1.839   9.994  17.223  0.00  0.00    +0.000 OA
ATOM      4  C   UNL     1       1.611   9.537  18.338  0.00  0.00    +0.000 C 
ATOM      5  C   UNL     1       2.225   8.276  18.832  0.00  0.00    +0.000 C 
ATOM      6 CL   UNL     1       3.309   7.485  17.721  0.00  0.00    +0.000 Cl
ATOM      7  C   UNL     1       1.980   7.734  20.043  0.00  0.00    +0.000 C 
ATOM      8  C   UNL     1       1.049   8.492  20.967  0.00  0.00    +0.000 C 
ATOM      9  O   UNL     1       0.806   8.135  22.116  0.00  0.00    +0.000 OA
ATOM     10  C   UNL     1       0.413   9.731  20.497  0.00  0.00    +0.000 A 
ATOM     11  C   UNL     1      -0.472  10.409  21.352  0.00  0.00    +0.000 A 
ATOM     12  C   UNL     1      -1.068  11.601  20.945  0.00  0.00    +0.000 A 
ATOM     13  C   UNL     1      -0.785  12.119  19.684  0.00  0.00    +0.000 A 
ATOM     14  C   UNL     1       0.088  11.443  18.829  0.00  0.00    +0.000 A 
ATOM     15  C   UNL     1       0.689  10.243  19.239  0.00  0.00    +0.000 A 
ENDBRANCH   1   7
BRANCH   1  16
ATOM     16  C   UNL     1       1.892   5.213  20.456  0.00  0.00    +0.000 C 
BRANCH  16  17
ATOM     17  C   UNL     1       2.909   4.072  20.359  0.00  0.00    +0.000 C 
BRANCH  17  18
ATOM     18  C   UNL     1       3.749   4.255  19.114  0.00  0.00    +0.000 A 
ATOM     19  C   UNL     1       3.244   3.885  17.860  0.00  0.00    +0.000 A 
ATOM     20  C   UNL     1       4.054   3.934  16.727  0.00  0.00    +0.000 A 
ATOM     21  C   UNL     1       5.381   4.350  16.834  0.00  0.00    +0.000 A 
ATOM     22  C   UNL     1       5.909   4.723  18.078  0.00  0.00    +0.000 A 
ATOM     23  C   UNL     1       5.082   4.677  19.213  0.00  0.00    +0.000 A 
BRANCH  22  24
ATOM     24  C   UNL     1       7.349   5.145  18.223  0.00  0.00    +0.000 C 
ATOM     25  F   UNL     1       8.243   4.184  17.857  0.00  0.00    +0.000 F 
ATOM     26  F   UNL     1       7.649   6.240  17.469  0.00  0.00    +0.000 F 
ATOM     27  F   UNL     1       7.668   5.479  19.505  0.00  0.00    +0.000 F 
ENDBRANCH  22  24
ENDBRANCH  17  18
ENDBRANCH  16  17
ENDBRANCH   1  16
TORSDOF 5
ENDMDL
MODEL 2
REMARK VINA RESULT:      -7.9      4.214      6.482
REMARK  Name = 
REMARK  5 active torsions:
REMARK  status: ('A' for Active; 'I' for Inactive)
REMARK    1  A    between atoms: C_5  and  N_6
REMARK    2  A    between atoms: N_6  and  C_7
REMARK    3  A    between atoms: C_7  and  C_8
REMARK    4  A    between atoms: C_8  and  C_9
REMARK    5  A    between atoms: C_13  and  C_14
REMARK                            x       y       z     vdW  Elec       q    Type
REMARK                         _______ _______ _______ _____ _____    ______ ____
ROOT
ATOM      1  N   UNL     1       4.733   5.862  16.328  0.00  0.00    +0.000 N 
ATOM      2  H   UNL     1       4.233   6.359  15.590  0.00  0.00    +0.000 HD
ENDROOT
BRANCH   1   7
ATOM      3  O   UNL     1       1.856   7.064  19.988  0.00  0.00    +0.000 OA
ATOM      4  C   UNL     1       2.415   6.189  19.336  0.00  0.00    +0.000 C 
ATOM      5  C   UNL     1       3.312   6.489  18.188  0.00  0.00    +0.000 C 
ATOM      6 CL   UNL     1       3.528   8.180  17.830  0.00  0.00    +0.000 Cl
ATOM      7  C   UNL     1       3.925   5.552  17.436  0.00  0.00    +0.000 C 
ATOM      8  C   UNL     1       3.713   4.103  17.824  0.00  0.00    +0.000 C 
ATOM      9  O   UNL     1       4.274   3.168  17.260  0.00  0.00    +0.000 OA
ATOM     10  C   UNL     1       2.817   3.776  18.942  0.00  0.00    +0.000 A 
ATOM     11  C   UNL     1       2.604   2.428  19.273  0.00  0.00    +0.000 A 
ATOM     12  C   UNL     1       1.782   2.088  20.345  0.00  0.00    +0.000 A 
ATOM     13  C   UNL     1       1.169   3.091  21.090  0.00  0.00    +0.000 A 
ATOM     14  C   UNL     1       1.372   4.433  20.758  0.00  0.00    +0.000 A 
ATOM     15  C   UNL     1       2.200   4.775  19.678  0.00  0.00    +0.000 A 
ENDBRANCH   1   7
BRANCH   1  16
ATOM     16  C   UNL     1       6.178   6.046  16.333  0.00  0.00    +0.000 C 
BRANCH  16  17
ATOM     17  C   UNL     1       6.918   4.752  15.982  0.00  0.00    +0.000 C 
BRANCH  17  18
ATOM     18  C   UNL     1       6.975   4.600  14.478  0.00  0.00    +0.000 A 
ATOM     19  C   UNL     1       7.958   5.270  13.736  0.00  0.00    +0.000 A 
ATOM     20  C   UNL     1       7.942   5.235  12.343  0.00  0.00    +0.000 A 
ATOM     21  C   UNL     1       6.940   4.533  11.674  0.00  0.00    +0.000 A 
ATOM     22  C   UNL     1       5.945   3.857  12.393  0.00  0.00    +0.000 A 
ATOM     23  C   UNL     1       5.975   3.892  13.798  0.00  0.00    +0.000 A 
BRANCH  22  24
ATOM     24  C   UNL     1       4.834   3.119  11.690  0.00  0.00    +0.000 C 
ATOM     25  F   UNL     1       5.184   1.870  11.272  0.00  0.00    +0.000 F 
ATOM     26  F   UNL     1       3.737   2.954  12.481  0.00  0.00    +0.000 F 
ATOM     27  F   UNL     1       4.395   3.773  10.578  0.00  0.00    +0.000 F 
ENDBRANCH  22  24
ENDBRANCH  17  18
ENDBRANCH  16  17
ENDBRANCH   1  16
TORSDOF 5
ENDMDL
MODEL 3
REMARK VINA RESULT:      -7.7      3.815      7.582
REMARK  Name = 
REMARK  5 active torsions:
REMARK  status: ('A' for Active; 'I' for Inactive)
REMARK    1  A    between atoms: C_5  and  N_6
REMARK    2  A    between atoms: N_6  and  C_7
REMARK    3  A    between atoms: C_7  and  C_8
REMARK    4  A    between atoms: C_8  and  C_9
REMARK    5  A    between atoms: C_13  and  C_14
REMARK                            x       y       z     vdW  Elec       q    Type
REMARK                         _______ _______ _______ _____ _____    ______ ____
ROOT
ATOM      1  N   UNL     1       3.031   8.191  17.970  0.00  0.00    +0.000 N 
ATOM      2  H   UNL     1       3.825   8.582  17.462  0.00  0.00    +0.000 HD
ENDROOT
BRANCH   1   7
ATOM      3  O   UNL     1       4.951   3.821  17.385  0.00  0.00    +0.000 OA
ATOM      4  C   UNL     1       4.232   4.574  18.034  0.00  0.00    +0.000 C 
ATOM      5  C   UNL     1       3.982   5.987  17.640  0.00  0.00    +0.000 C 
ATOM      6 CL   UNL     1       4.775   6.508  16.179  0.00  0.00    +0.000 Cl
ATOM      7  C   UNL     1       3.215   6.847  18.340  0.00  0.00    +0.000 C 
ATOM      8  C   UNL     1       2.536   6.316  19.586  0.00  0.00    +0.000 C 
ATOM      9  O   UNL     1       1.760   6.983  20.264  0.00  0.00    +0.000 OA
ATOM     10  C   UNL     1       2.780   4.929  20.009  0.00  0.00    +0.000 A 
ATOM     11  C   UNL     1       2.168   4.458  21.182  0.00  0.00    +0.000 A 
ATOM     12  C   UNL     1       2.359   3.140  21.593  0.00  0.00    +0.000 A 
ATOM     13  C   UNL     1       3.161   2.290  20.837  0.00  0.00    +0.000 A 
ATOM     14  C   UNL     1       3.777   2.759  19.675  0.00  0.00    +0.000 A 
ATOM     15  C   UNL     1       3.585   4.086  19.260  0.00  0.00    +0.000 A 
ENDBRANCH   1   7
BRANCH   1  16
ATOM     16  C   UNL     1       1.757   8.861  17.745  0.00  0.00    +0.000 C 
BRANCH  16  17
ATOM     17  C   UNL     1       1.834  10.355  18.074  0.00  0.00    +0.000 C 
BRANCH  17  18
ATOM     18  C   UNL     1       0.745  10.705  19.064  0.00  0.00    +0.000 A 
ATOM     19  C   UNL     1      -0.076  11.821  18.846  0.00  0.00    +0.000 A 
ATOM     20  C   UNL     1      -0.997  12.223  19.811  0.00  0.00    +0.000 A 
ATOM     21  C   UNL     1      -1.107  11.517  21.009  0.00  0.00    +0.000 A 
ATOM     22  C   UNL     1      -0.296  10.399  21.251  0.00  0.00    +0.000 A 
ATOM     23  C   UNL     1       0.625   9.998  20.268  0.00  0.00    +0.000 A 
BRANCH  22  24
ATOM     24  C   UNL     1      -0.375   9.640  22.551  0.00  0.00    +0.000 C 
ATOM     25  F   UNL     1       0.834   9.450  23.150  0.00  0.00    +0.000 F 
ATOM     26  F   UNL     1      -1.154  10.270  23.475  0.00  0.00    +0.000 F 
ATOM     27  F   UNL     1      -0.913   8.398  22.398  0.00  0.00    +0.000 F 
ENDBRANCH  22  24
ENDBRANCH  17  18
ENDBRANCH  16  17
ENDBRANCH   1  16
TORSDOF 5
ENDMDL
MODEL 4
REMARK VINA RESULT:      -7.7      4.562      8.103
REMARK  Name = 
REMARK  5 active torsions:
REMARK  status: ('A' for Active; 'I' for Inactive)
REMARK    1  A    between atoms: C_5  and  N_6
REMARK    2  A    between atoms: N_6  and  C_7
REMARK    3  A    between atoms: C_7  and  C_8
REMARK    4  A    between atoms: C_8  and  C_9
REMARK    5  A    between atoms: C_13  and  C_14
REMARK                            x       y       z     vdW  Elec       q    Type
REMARK                         _______ _______ _______ _____ _____    ______ ____
ROOT
ATOM      1  N   UNL     1       2.932   8.311  17.936  0.00  0.00    +0.000 N 
ATOM      2  H   UNL     1       3.686   8.685  17.359  0.00  0.00    +0.000 HD
ENDROOT
BRANCH   1   7
ATOM      3  O   UNL     1       4.915   3.966  17.380  0.00  0.00    +0.000 OA
ATOM      4  C   UNL     1       4.182   4.712  18.021  0.00  0.00    +0.000 C 
ATOM      5  C   UNL     1       3.915   6.119  17.620  0.00  0.00    +0.000 C 
ATOM      6 CL   UNL     1       4.709   6.645  16.162  0.00  0.00    +0.000 Cl
ATOM      7  C   UNL     1       3.132   6.972  18.313  0.00  0.00    +0.000 C 
ATOM      8  C   UNL     1       2.453   6.436  19.556  0.00  0.00    +0.000 C 
ATOM      9  O   UNL     1       1.664   7.095  20.227  0.00  0.00    +0.000 OA
ATOM     10  C   UNL     1       2.713   5.054  19.986  0.00  0.00    +0.000 A 
ATOM     11  C   UNL     1       2.101   4.579  21.157  0.00  0.00    +0.000 A 
ATOM     12  C   UNL     1       2.307   3.265  21.574  0.00  0.00    +0.000 A 
ATOM     13  C   UNL     1       3.126   2.424  20.827  0.00  0.00    +0.000 A 
ATOM     14  C   UNL     1       3.743   2.897  19.666  0.00  0.00    +0.000 A 
ATOM     15  C   UNL     1       3.535   4.219  19.246  0.00  0.00    +0.000 A 
ENDBRANCH   1   7
BRANCH   1  16
ATOM     16  C   UNL     1       1.651   8.991  17.803  0.00  0.00    +0.000 C 
BRANCH  16  17
ATOM     17  C   UNL     1       1.566  10.226  18.705  0.00  0.00    +0.000 C 
BRANCH  17  18
ATOM     18  C   UNL     1       0.182  10.829  18.599  0.00  0.00    +0.000 A 
ATOM     19  C   UNL     1      -0.128  12.011  19.286  0.00  0.00    +0.000 A 
ATOM     20  C   UNL     1      -1.431  12.505  19.295  0.00  0.00    +0.000 A 
ATOM     21  C   UNL     1      -2.441  11.821  18.620  0.00  0.00    +0.000 A 
ATOM     22  C   UNL     1      -2.156  10.636  17.928  0.00  0.00    +0.000 A 
ATOM     23  C   UNL     1      -0.838  10.151  17.919  0.00  0.00    +0.000 A 
BRANCH  22  24
ATOM     24  C   UNL     1      -3.239   9.863  17.218  0.00  0.00    +0.000 C 
ATOM     25  F   UNL     1      -2.838   9.315  16.037  0.00  0.00    +0.000 F 
ATOM     26  F   UNL     1      -3.717   8.829  17.966  0.00  0.00    +0.000 F 
ATOM     27  F   UNL     1      -4.321  10.636  16.919  0.00  0.00    +0.000 F 
ENDBRANCH  22  24
ENDBRANCH  17  18
ENDBRANCH  16  17
ENDBRANCH   1  16
TORSDOF 5
ENDMDL
MODEL 5
REMARK VINA RESULT:      -7.6      4.456      6.403
REMARK  Name = 
REMARK  5 active torsions:
REMARK  status: ('A' for Active; 'I' for Inactive)
REMARK    1  A    between atoms: C_5  and  N_6
REMARK    2  A    between atoms: N_6  and  C_7
REMARK    3  A    between atoms: C_7  and  C_8
REMARK    4  A    between atoms: C_8  and  C_9
REMARK    5  A    between atoms: C_13  and  C_14
REMARK                            x       y       z     vdW  Elec       q    Type
REMARK                         _______ _______ _______ _____ _____    ______ ____
ROOT
ATOM      1  N   UNL     1       6.220   6.021  17.841  0.00  0.00    +0.000 N 
ATOM      2  H   UNL     1       6.900   6.247  18.568  0.00  0.00    +0.000 HD
ENDROOT
BRANCH   1   7
ATOM      3  O   UNL     1       1.488   6.702  18.354  0.00  0.00    +0.000 OA
ATOM      4  C   UNL     1       2.486   6.033  18.602  0.00  0.00    +0.000 C 
ATOM      5  C   UNL     1       3.842   6.399  18.115  0.00  0.00    +0.000 C 
ATOM      6 CL   UNL     1       3.929   7.859  17.169  0.00  0.00    +0.000 Cl
ATOM      7  C   UNL     1       4.956   5.676  18.351  0.00  0.00    +0.000 C 
ATOM      8  C   UNL     1       4.809   4.433  19.205  0.00  0.00    +0.000 C 
ATOM      9  O   UNL     1       5.760   3.735  19.544  0.00  0.00    +0.000 OA
ATOM     10  C   UNL     1       3.477   4.037  19.684  0.00  0.00    +0.000 A 
ATOM     11  C   UNL     1       3.349   2.866  20.449  0.00  0.00    +0.000 A 
ATOM     12  C   UNL     1       2.103   2.481  20.941  0.00  0.00    +0.000 A 
ATOM     13  C   UNL     1       0.982   3.259  20.669  0.00  0.00    +0.000 A 
ATOM     14  C   UNL     1       1.106   4.420  19.901  0.00  0.00    +0.000 A 
ATOM     15  C   UNL     1       2.360   4.808  19.406  0.00  0.00    +0.000 A 
ENDBRANCH   1   7
BRANCH   1  16
ATOM     16  C   UNL     1       6.787   5.595  16.569  0.00  0.00    +0.000 C 
BRANCH  16  17
ATOM     17  C   UNL     1       6.077   4.357  16.014  0.00  0.00    +0.000 C 
BRANCH  17  18
ATOM     18  C   UNL     1       6.342   4.252  14.528  0.00  0.00    +0.000 A 
ATOM     19  C   UNL     1       7.495   4.825  13.974  0.00  0.00    +0.000 A 
ATOM     20  C   UNL     1       7.686   4.841  12.594  0.00  0.00    +0.000 A 
ATOM     21  C   UNL     1       6.724   4.287  11.749  0.00  0.00    +0.000 A 
ATOM     22  C   UNL     1       5.563   3.709  12.280  0.00  0.00    +0.000 A 
ATOM     23  C   UNL     1       5.383   3.692  13.673  0.00  0.00    +0.000 A 
BRANCH  22  24
ATOM     24  C   UNL     1       4.495   3.132  11.385  0.00  0.00    +0.000 C 
ATOM     25  F   UNL     1       4.845   1.951  10.804  0.00  0.00    +0.000 F 
ATOM     26  F   UNL     1       3.332   2.889  12.052  0.00  0.00    +0.000 F 
ATOM     27  F   UNL     1       4.167   3.967  10.359  0.00  0.00    +0.000 F 
ENDBRANCH  22  24
ENDBRANCH  17  18
ENDBRANCH  16  17
ENDBRANCH   1  16
TORSDOF 5
ENDMDL
MODEL 6
REMARK VINA RESULT:      -7.6      1.599      2.203
REMARK  Name = 
REMARK  5 active torsions:
REMARK  status: ('A' for Active; 'I' for Inactive)
REMARK    1  A    between atoms: C_5  and  N_6
REMARK    2  A    between atoms: N_6  and  C_7
REMARK    3  A    between atoms: C_7  and  C_8
REMARK    4  A    between atoms: C_8  and  C_9
REMARK    5  A    between atoms: C_13  and  C_14
REMARK                            x       y       z     vdW  Elec       q    Type
REMARK                         _______ _______ _______ _____ _____    ______ ____
ROOT
ATOM      1  N   UNL     1       3.018   6.069  19.948  0.00  0.00    +0.000 N 
ATOM      2  H   UNL     1       3.363   6.008  20.906  0.00  0.00    +0.000 HD
ENDROOT
BRANCH   1   7
ATOM      3  O   UNL     1       2.129   9.849  17.113  0.00  0.00    +0.000 OA
ATOM      4  C   UNL     1       1.926   9.257  18.167  0.00  0.00    +0.000 C 
ATOM      5  C   UNL     1       2.608   7.983  18.519  0.00  0.00    +0.000 C 
ATOM      6 CL   UNL     1       3.734   7.384  17.332  0.00  0.00    +0.000 Cl
ATOM      7  C   UNL     1       2.392   7.294  19.659  0.00  0.00    +0.000 C 
ATOM      8  C   UNL     1       1.420   7.890  20.656  0.00  0.00    +0.000 C 
ATOM      9  O   UNL     1       1.197   7.392  21.756  0.00  0.00    +0.000 OA
ATOM     10  C   UNL     1       0.717   9.138  20.326  0.00  0.00    +0.000 A 
ATOM     11  C   UNL     1      -0.204   9.665  21.246  0.00  0.00    +0.000 A 
ATOM     12  C   UNL     1      -0.864  10.861  20.973  0.00  0.00    +0.000 A 
ATOM     13  C   UNL     1      -0.610  11.534  19.782  0.00  0.00    +0.000 A 
ATOM     14  C   UNL     1       0.300  11.008  18.862  0.00  0.00    +0.000 A 
ATOM     15  C   UNL     1       0.965   9.804  19.136  0.00  0.00    +0.000 A 
ENDBRANCH   1   7
BRANCH   1  16
ATOM     16  C   UNL     1       2.764   4.791  19.295  0.00  0.00    +0.000 C 
BRANCH  16  17
ATOM     17  C   UNL     1       3.939   3.823  19.465  0.00  0.00    +0.000 C 
BRANCH  17  18
ATOM     18  C   UNL     1       5.127   4.335  18.681  0.00  0.00    +0.000 A 
ATOM     19  C   UNL     1       6.116   5.099  19.317  0.00  0.00    +0.000 A 
ATOM     20  C   UNL     1       7.147   5.679  18.580  0.00  0.00    +0.000 A 
ATOM     21  C   UNL     1       7.201   5.503  17.198  0.00  0.00    +0.000 A 
ATOM     22  C   UNL     1       6.223   4.744  16.540  0.00  0.00    +0.000 A 
ATOM     23  C   UNL     1       5.192   4.159  17.293  0.00  0.00    +0.000 A 
BRANCH  22  24
ATOM     24  C   UNL     1       6.244   4.568  15.042  0.00  0.00    +0.000 C 
ATOM     25  F   UNL     1       5.184   5.141  14.407  0.00  0.00    +0.000 F 
ATOM     26  F   UNL     1       7.358   5.107  14.470  0.00  0.00    +0.000 F 
ATOM     27  F   UNL     1       6.234   3.257  14.671  0.00  0.00    +0.000 F 
ENDBRANCH  22  24
ENDBRANCH  17  18
ENDBRANCH  16  17
ENDBRANCH   1  16
TORSDOF 5
ENDMDL
MODEL 7
REMARK VINA RESULT:      -7.5      3.060      4.341
REMARK  Name = 
REMARK  5 active torsions:
REMARK  status: ('A' for Active; 'I' for Inactive)
REMARK    1  A    between atoms: C_5  and  N_6
REMARK    2  A    between atoms: N_6  and  C_7
REMARK    3  A    between atoms: C_7  and  C_8
REMARK    4  A    between atoms: C_8  and  C_9
REMARK    5  A    between atoms: C_13  and  C_14
REMARK                            x       y       z     vdW  Elec       q    Type
REMARK                         _______ _______ _______ _____ _____    ______ ____
ROOT
ATOM      1  N   UNL     1       1.660   9.486  18.699  0.00  0.00    +0.000 N 
ATOM      2  H   UNL     1       2.522  10.024  18.604  0.00  0.00    +0.000 HD
ENDROOT
BRANCH   1   7
ATOM      3  O   UNL     1       0.057   9.211  23.224  0.00  0.00    +0.000 OA
ATOM      4  C   UNL     1       0.031   9.770  22.133  0.00  0.00    +0.000 C 
ATOM      5  C   UNL     1       0.840   9.311  20.973  0.00  0.00    +0.000 C 
ATOM      6 CL   UNL     1       1.832   7.907  21.260  0.00  0.00    +0.000 Cl
ATOM      7  C   UNL     1       0.851   9.914  19.766  0.00  0.00    +0.000 C 
ATOM      8  C   UNL     1      -0.057  11.113  19.582  0.00  0.00    +0.000 C 
ATOM      9  O   UNL     1      -0.185  11.699  18.511  0.00  0.00    +0.000 OA
ATOM     10  C   UNL     1      -0.854  11.600  20.717  0.00  0.00    +0.000 A 
ATOM     11  C   UNL     1      -1.669  12.730  20.541  0.00  0.00    +0.000 A 
ATOM     12  C   UNL     1      -2.457  13.198  21.591  0.00  0.00    +0.000 A 
ATOM     13  C   UNL     1      -2.432  12.543  22.818  0.00  0.00    +0.000 A 
ATOM     14  C   UNL     1      -1.616  11.423  22.998  0.00  0.00    +0.000 A 
ATOM     15  C   UNL     1      -0.823  10.951  21.941  0.00  0.00    +0.000 A 
ENDBRANCH   1   7
BRANCH   1  16
ATOM     16  C   UNL     1       1.693   8.151  18.119  0.00  0.00    +0.000 C 
BRANCH  16  17
ATOM     17  C   UNL     1       3.125   7.691  17.829  0.00  0.00    +0.000 C 
BRANCH  17  18
ATOM     18  C   UNL     1       3.200   6.184  17.942  0.00  0.00    +0.000 A 
ATOM     19  C   UNL     1       4.133   5.464  17.183  0.00  0.00    +0.000 A 
ATOM     20  C   UNL     1       4.126   4.070  17.187  0.00  0.00    +0.000 A 
ATOM     21  C   UNL     1       3.184   3.379  17.948  0.00  0.00    +0.000 A 
ATOM     22  C   UNL     1       2.240   4.077  18.714  0.00  0.00    +0.000 A 
ATOM     23  C   UNL     1       2.260   5.482  18.709  0.00  0.00    +0.000 A 
BRANCH  22  24
ATOM     24  C   UNL     1       1.192   3.351  19.519  0.00  0.00    +0.000 C 
ATOM     25  F   UNL     1       0.315   2.636  18.760  0.00  0.00    +0.000 F 
ATOM     26  F   UNL     1       1.735   2.462  20.399  0.00  0.00    +0.000 F 
ATOM     27  F   UNL     1       0.431   4.197  20.268  0.00  0.00    +0.000 F 
ENDBRANCH  22  24
ENDBRANCH  17  18
ENDBRANCH  16  17
ENDBRANCH   1  16
TORSDOF 5
ENDMDL
MODEL 8
REMARK VINA RESULT:      -7.4      4.492      8.453
REMARK  Name = 
REMARK  5 active torsions:
REMARK  status: ('A' for Active; 'I' for Inactive)
REMARK    1  A    between atoms: C_5  and  N_6
REMARK    2  A    between atoms: N_6  and  C_7
REMARK    3  A    between atoms: C_7  and  C_8
REMARK    4  A    between atoms: C_8  and  C_9
REMARK    5  A    between atoms: C_13  and  C_14
REMARK                            x       y       z     vdW  Elec       q    Type
REMARK                         _______ _______ _______ _____ _____    ______ ____
ROOT
ATOM      1  N   UNL     1       2.859   8.195  18.212  0.00  0.00    +0.000 N 
ATOM      2  H   UNL     1       3.763   8.479  17.832  0.00  0.00    +0.000 HD
ENDROOT
BRANCH   1   7
ATOM      3  O   UNL     1       1.551   4.656  21.191  0.00  0.00    +0.000 OA
ATOM      4  C   UNL     1       2.123   5.006  20.165  0.00  0.00    +0.000 C 
ATOM      5  C   UNL     1       2.219   6.429  19.743  0.00  0.00    +0.000 C 
ATOM      6 CL   UNL     1       1.468   7.580  20.814  0.00  0.00    +0.000 Cl
ATOM      7  C   UNL     1       2.821   6.848  18.611  0.00  0.00    +0.000 C 
ATOM      8  C   UNL     1       3.476   5.793  17.742  0.00  0.00    +0.000 C 
ATOM      9  O   UNL     1       4.113   6.061  16.728  0.00  0.00    +0.000 OA
ATOM     10  C   UNL     1       3.381   4.377  18.126  0.00  0.00    +0.000 A 
ATOM     11  C   UNL     1       3.966   3.407  17.297  0.00  0.00    +0.000 A 
ATOM     12  C   UNL     1       3.916   2.060  17.649  0.00  0.00    +0.000 A 
ATOM     13  C   UNL     1       3.281   1.676  18.826  0.00  0.00    +0.000 A 
ATOM     14  C   UNL     1       2.691   2.639  19.648  0.00  0.00    +0.000 A 
ATOM     15  C   UNL     1       2.741   3.996  19.294  0.00  0.00    +0.000 A 
ENDBRANCH   1   7
BRANCH   1  16
ATOM     16  C   UNL     1       1.725   9.007  17.791  0.00  0.00    +0.000 C 
BRANCH  16  17
ATOM     17  C   UNL     1       1.713  10.373  18.485  0.00  0.00    +0.000 C 
BRANCH  17  18
ATOM     18  C   UNL     1       0.286  10.859  18.609  0.00  0.00    +0.000 A 
ATOM     19  C   UNL     1      -0.047  11.840  19.554  0.00  0.00    +0.000 A 
ATOM     20  C   UNL     1      -1.376  12.203  19.760  0.00  0.00    +0.000 A 
ATOM     21  C   UNL     1      -2.390  11.588  19.027  0.00  0.00    +0.000 A 
ATOM     22  C   UNL     1      -2.083  10.603  18.079  0.00  0.00    +0.000 A 
ATOM     23  C   UNL     1      -0.738  10.249  17.873  0.00  0.00    +0.000 A 
BRANCH  22  24
ATOM     24  C   UNL     1      -3.165   9.901  17.298  0.00  0.00    +0.000 C 
ATOM     25  F   UNL     1      -3.738   8.862  17.967  0.00  0.00    +0.000 F 
ATOM     26  F   UNL     1      -4.187  10.736  16.960  0.00  0.00    +0.000 F 
ATOM     27  F   UNL     1      -2.708   9.380  16.125  0.00  0.00    +0.000 F 
ENDBRANCH  22  24
ENDBRANCH  17  18
ENDBRANCH  16  17
ENDBRANCH   1  16
TORSDOF 5
ENDMDL
MODEL 9
REMARK VINA RESULT:      -7.4      3.647      4.805
REMARK  Name = 
REMARK  5 active torsions:
REMARK  status: ('A' for Active; 'I' for Inactive)
REMARK    1  A    between atoms: C_5  and  N_6
REMARK    2  A    between atoms: N_6  and  C_7
REMARK    3  A    between atoms: C_7  and  C_8
REMARK    4  A    between atoms: C_8  and  C_9
REMARK    5  A    between atoms: C_13  and  C_14
REMARK                            x       y       z     vdW  Elec       q    Type
REMARK                         _______ _______ _______ _____ _____    ______ ____
ROOT
ATOM      1  N   UNL     1       0.724   9.910  17.842  0.00  0.00    +0.000 N 
ATOM      2  H   UNL     1       1.270  10.509  17.221  0.00  0.00    +0.000 HD
ENDROOT
BRANCH   1   7
ATOM      3  O   UNL     1      -1.500  12.756  21.016  0.00  0.00    +0.000 OA
ATOM      4  C   UNL     1      -1.564  12.042  20.021  0.00  0.00    +0.000 C 
ATOM      5  C   UNL     1      -0.385  11.321  19.470  0.00  0.00    +0.000 C 
ATOM      6 CL   UNL     1       1.106  11.547  20.343  0.00  0.00    +0.000 Cl
ATOM      7  C   UNL     1      -0.415  10.546  18.367  0.00  0.00    +0.000 C 
ATOM      8  C   UNL     1      -1.752  10.374  17.676  0.00  0.00    +0.000 C 
ATOM      9  O   UNL     1      -1.917   9.638  16.707  0.00  0.00    +0.000 OA
ATOM     10  C   UNL     1      -2.930  11.090  18.187  0.00  0.00    +0.000 A 
ATOM     11  C   UNL     1      -4.157  10.946  17.520  0.00  0.00    +0.000 A 
ATOM     12  C   UNL     1      -5.296  11.590  17.998  0.00  0.00    +0.000 A 
ATOM     13  C   UNL     1      -5.215  12.381  19.139  0.00  0.00    +0.000 A 
ATOM     14  C   UNL     1      -3.993  12.533  19.800  0.00  0.00    +0.000 A 
ATOM     15  C   UNL     1      -2.846  11.884  19.320  0.00  0.00    +0.000 A 
ENDBRANCH   1   7
BRANCH   1  16
ATOM     16  C   UNL     1       1.457   8.807  18.447  0.00  0.00    +0.000 C 
BRANCH  16  17
ATOM     17  C   UNL     1       2.816   8.589  17.775  0.00  0.00    +0.000 C 
BRANCH  17  18
ATOM     18  C   UNL     1       3.188   7.125  17.860  0.00  0.00    +0.000 A 
ATOM     19  C   UNL     1       4.337   6.649  17.215  0.00  0.00    +0.000 A 
ATOM     20  C   UNL     1       4.620   5.285  17.184  0.00  0.00    +0.000 A 
ATOM     21  C   UNL     1       3.755   4.379  17.797  0.00  0.00    +0.000 A 
ATOM     22  C   UNL     1       2.598   4.831  18.447  0.00  0.00    +0.000 A 
ATOM     23  C   UNL     1       2.326   6.209  18.478  0.00  0.00    +0.000 A 
BRANCH  22  24
ATOM     24  C   UNL     1       1.632   3.866  19.088  0.00  0.00    +0.000 C 
ATOM     25  F   UNL     1       0.784   3.271  18.204  0.00  0.00    +0.000 F 
ATOM     26  F   UNL     1       2.266   2.851  19.739  0.00  0.00    +0.000 F 
ATOM     27  F   UNL     1       0.838   4.466  20.019  0.00  0.00    +0.000 F 
ENDBRANCH  22  24
ENDBRANCH  17  18
ENDBRANCH  16  17
ENDBRANCH   1  16
TORSDOF 5
ENDMDL
