MODEL 1
REMARK VINA RESULT:      -8.4      0.000      0.000
REMARK  Name = 
REMARK  7 active torsions:
REMARK  status: ('A' for Active; 'I' for Inactive)
REMARK    1  A    between atoms: C_1  and  N_2
REMARK    2  A    between atoms: N_2  and  C_3
REMARK    3  A    between atoms: N_2  and  S_10
REMARK    4  A    between atoms: S_10  and  C_13
REMARK    5  A    between atoms: C_19  and  C_20
REMARK    6  A    between atoms: C_20  and  O_22
REMARK    7  A    between atoms: C_23  and  O_24
REMARK                            x       y       z     vdW  Elec       q    Type
REMARK                         _______ _______ _______ _____ _____    ______ ____
ROOT
ATOM      1  C   UNL     1       3.209   4.818  18.994  0.00  0.00    +0.000 A 
ATOM      2  C   UNL     1       2.741   4.659  20.297  0.00  0.00    +0.000 A 
ATOM      3  C   UNL     1       2.033   5.701  20.906  0.00  0.00    +0.000 A 
ATOM      4  C   UNL     1       1.813   6.914  20.266  0.00  0.00    +0.000 A 
ATOM      5  N   UNL     1       1.182   7.887  20.943  0.00  0.00    +0.000 NA
ATOM      6  C   UNL     1       1.040   9.100  20.352  0.00  0.00    +0.000 A 
ATOM      7  C   UNL     1       1.480   9.391  19.076  0.00  0.00    +0.000 A 
ATOM      8  C   UNL     1       2.110   8.366  18.370  0.00  0.00    +0.000 A 
ATOM      9  C   UNL     1       2.299   7.090  18.951  0.00  0.00    +0.000 A 
ATOM     10  C   UNL     1       2.985   6.023  18.318  0.00  0.00    +0.000 A 
ENDROOT
BRANCH   1  11
ATOM     11  S   UNL     1       4.328   3.600  18.308  0.00  0.00    +0.000 S 
ATOM     12  O   UNL     1       3.500   2.660  17.571  0.00  0.00    +0.000 OA
ATOM     13  O   UNL     1       5.163   3.141  19.398  0.00  0.00    +0.000 OA
BRANCH  11  15
ATOM     14  C   UNL     1       5.052   4.252  15.763  0.00  0.00    +0.000 C 
ATOM     15  N   UNL     1       5.265   4.449  17.198  0.00  0.00    +0.000 N 
BRANCH  15  16
ATOM     16  C   UNL     1       6.153   5.469  17.638  0.00  0.00    +0.000 A 
ATOM     17  C   UNL     1       7.040   5.175  18.680  0.00  0.00    +0.000 A 
ATOM     18  C   UNL     1       7.979   6.121  19.090  0.00  0.00    +0.000 A 
ATOM     19  C   UNL     1       8.024   7.355  18.452  0.00  0.00    +0.000 A 
ATOM     20  F   UNL     1       8.931   8.262  18.836  0.00  0.00    +0.000 F 
ATOM     21  C   UNL     1       7.148   7.657  17.412  0.00  0.00    +0.000 A 
ATOM     22  C   UNL     1       6.208   6.709  16.998  0.00  0.00    +0.000 A 
ENDBRANCH  15  16
ENDBRANCH  11  15
ENDBRANCH   1  11
BRANCH   7  23
ATOM     23  C   UNL     1       1.294  10.767  18.581  0.00  0.00    +0.000 C 
ATOM     24  O   UNL     1       0.325  11.443  18.885  0.00  0.00    +0.000 OA
BRANCH  23  25
ATOM     25  O   UNL     1       2.276  11.207  17.769  0.00  0.00    +0.000 OA
ATOM     26  H   UNL     1       2.153  10.984  16.822  0.00  0.00    +0.000 HD
ENDBRANCH  23  25
ENDBRANCH   7  23
BRANCH   8  27
ATOM     27  O   UNL     1       2.576   8.591  17.097  0.00  0.00    +0.000 OA
ATOM     28  H   UNL     1       3.522   8.337  17.082  0.00  0.00    +0.000 HD
ENDBRANCH   8  27
TORSDOF 6
ENDMDL
MODEL 2
REMARK VINA RESULT:      -8.1      4.131      8.240
REMARK  Name = 
REMARK  7 active torsions:
REMARK  status: ('A' for Active; 'I' for Inactive)
REMARK    1  A    between atoms: C_1  and  N_2
REMARK    2  A    between atoms: N_2  and  C_3
REMARK    3  A    between atoms: N_2  and  S_10
REMARK    4  A    between atoms: S_10  and  C_13
REMARK    5  A    between atoms: C_19  and  C_20
REMARK    6  A    between atoms: C_20  and  O_22
REMARK    7  A    between atoms: C_23  and  O_24
REMARK                            x       y       z     vdW  Elec       q    Type
REMARK                         _______ _______ _______ _____ _____    ______ ____
ROOT
ATOM      1  C   UNL     1       1.274   8.869  19.714  0.00  0.00    +0.000 A 
ATOM      2  C   UNL     1       1.782   9.253  18.474  0.00  0.00    +0.000 A 
ATOM      3  C   UNL     1       2.579   8.360  17.750  0.00  0.00    +0.000 A 
ATOM      4  C   UNL     1       2.919   7.108  18.245  0.00  0.00    +0.000 A 
ATOM      5  N   UNL     1       3.742   6.336  17.517  0.00  0.00    +0.000 NA
ATOM      6  C   UNL     1       4.143   5.148  18.035  0.00  0.00    +0.000 A 
ATOM      7  C   UNL     1       3.730   4.665  19.261  0.00  0.00    +0.000 A 
ATOM      8  C   UNL     1       2.854   5.461  19.998  0.00  0.00    +0.000 A 
ATOM      9  C   UNL     1       2.423   6.716  19.508  0.00  0.00    +0.000 A 
ATOM     10  C   UNL     1       1.584   7.604  20.229  0.00  0.00    +0.000 A 
ENDROOT
BRANCH   1  11
ATOM     11  S   UNL     1       0.475  10.088  20.753  0.00  0.00    +0.000 S 
ATOM     12  O   UNL     1       1.528  10.694  21.550  0.00  0.00    +0.000 OA
ATOM     13  O   UNL     1      -0.639   9.421  21.396  0.00  0.00    +0.000 OA
BRANCH  11  15
ATOM     14  C   UNL     1       0.762  12.356  19.269  0.00  0.00    +0.000 C 
ATOM     15  N   UNL     1      -0.105  11.253  19.686  0.00  0.00    +0.000 N 
BRANCH  15  16
ATOM     16  C   UNL     1      -1.375  11.091  19.066  0.00  0.00    +0.000 A 
ATOM     17  C   UNL     1      -2.413  11.951  19.440  0.00  0.00    +0.000 A 
ATOM     18  C   UNL     1      -3.651  11.876  18.802  0.00  0.00    +0.000 A 
ATOM     19  C   UNL     1      -3.840  10.940  17.792  0.00  0.00    +0.000 A 
ATOM     20  F   UNL     1      -5.024  10.872  17.170  0.00  0.00    +0.000 F 
ATOM     21  C   UNL     1      -2.813  10.081  17.409  0.00  0.00    +0.000 A 
ATOM     22  C   UNL     1      -1.571  10.157  18.046  0.00  0.00    +0.000 A 
ENDBRANCH  15  16
ENDBRANCH  11  15
ENDBRANCH   1  11
BRANCH   7  23
ATOM     23  C   UNL     1       4.284   3.375  19.713  0.00  0.00    +0.000 C 
ATOM     24  O   UNL     1       3.668   2.625  20.451  0.00  0.00    +0.000 OA
BRANCH  23  25
ATOM     25  O   UNL     1       5.520   3.104  19.249  0.00  0.00    +0.000 OA
ATOM     26  H   UNL     1       5.698   3.438  18.343  0.00  0.00    +0.000 HD
ENDBRANCH  23  25
ENDBRANCH   7  23
BRANCH   8  27
ATOM     27  O   UNL     1       2.409   5.040  21.228  0.00  0.00    +0.000 OA
ATOM     28  H   UNL     1       2.474   5.803  21.840  0.00  0.00    +0.000 HD
ENDBRANCH   8  27
TORSDOF 6
ENDMDL
MODEL 3
REMARK VINA RESULT:      -7.9      2.153      2.875
REMARK  Name = 
REMARK  7 active torsions:
REMARK  status: ('A' for Active; 'I' for Inactive)
REMARK    1  A    between atoms: C_1  and  N_2
REMARK    2  A    between atoms: N_2  and  C_3
REMARK    3  A    between atoms: N_2  and  S_10
REMARK    4  A    between atoms: S_10  and  C_13
REMARK    5  A    between atoms: C_19  and  C_20
REMARK    6  A    between atoms: C_20  and  O_22
REMARK    7  A    between atoms: C_23  and  O_24
REMARK                            x       y       z     vdW  Elec       q    Type
REMARK                         _______ _______ _______ _____ _____    ______ ____
ROOT
ATOM      1  C   UNL     1       2.402   6.692  19.062  0.00  0.00    +0.000 A 
ATOM      2  C   UNL     1       2.429   7.358  17.838  0.00  0.00    +0.000 A 
ATOM      3  C   UNL     1       1.946   8.669  17.757  0.00  0.00    +0.000 A 
ATOM      4  C   UNL     1       1.398   9.320  18.855  0.00  0.00    +0.000 A 
ATOM      5  N   UNL     1       0.896  10.554  18.679  0.00  0.00    +0.000 NA
ATOM      6  C   UNL     1       0.285  11.160  19.728  0.00  0.00    +0.000 A 
ATOM      7  C   UNL     1       0.173  10.596  20.983  0.00  0.00    +0.000 A 
ATOM      8  C   UNL     1       0.721   9.326  21.164  0.00  0.00    +0.000 A 
ATOM      9  C   UNL     1       1.350   8.647  20.095  0.00  0.00    +0.000 A 
ATOM     10  C   UNL     1       1.874   7.332  20.189  0.00  0.00    +0.000 A 
ENDROOT
BRANCH   1  11
ATOM     11  S   UNL     1       2.777   4.942  19.118  0.00  0.00    +0.000 S 
ATOM     12  O   UNL     1       1.618   4.262  18.564  0.00  0.00    +0.000 OA
ATOM     13  O   UNL     1       3.219   4.654  20.466  0.00  0.00    +0.000 OA
BRANCH  11  15
ATOM     14  C   UNL     1       3.889   3.909  16.854  0.00  0.00    +0.000 C 
ATOM     15  N   UNL     1       4.060   4.739  18.048  0.00  0.00    +0.000 N 
BRANCH  15  16
ATOM     16  C   UNL     1       5.257   5.490  18.211  0.00  0.00    +0.000 A 
ATOM     17  C   UNL     1       6.111   5.159  19.269  0.00  0.00    +0.000 A 
ATOM     18  C   UNL     1       7.331   5.819  19.419  0.00  0.00    +0.000 A 
ATOM     19  C   UNL     1       7.687   6.805  18.506  0.00  0.00    +0.000 A 
ATOM     20  F   UNL     1       8.861   7.433  18.640  0.00  0.00    +0.000 F 
ATOM     21  C   UNL     1       6.846   7.140  17.447  0.00  0.00    +0.000 A 
ATOM     22  C   UNL     1       5.624   6.477  17.295  0.00  0.00    +0.000 A 
ENDBRANCH  15  16
ENDBRANCH  11  15
ENDBRANCH   1  11
BRANCH   7  23
ATOM     23  C   UNL     1      -0.557  11.356  22.015  0.00  0.00    +0.000 C 
ATOM     24  O   UNL     1      -0.396  11.155  23.207  0.00  0.00    +0.000 OA
BRANCH  23  25
ATOM     25  O   UNL     1      -1.411  12.280  21.530  0.00  0.00    +0.000 OA
ATOM     26  H   UNL     1      -1.072  13.200  21.550  0.00  0.00    +0.000 HD
ENDBRANCH  23  25
ENDBRANCH   7  23
BRANCH   8  27
ATOM     27  O   UNL     1       0.639   8.708  22.388  0.00  0.00    +0.000 OA
ATOM     28  H   UNL     1       1.547   8.660  22.753  0.00  0.00    +0.000 HD
ENDBRANCH   8  27
TORSDOF 6
ENDMDL
MODEL 4
REMARK VINA RESULT:      -7.9      2.787      3.882
REMARK  Name = 
REMARK  7 active torsions:
REMARK  status: ('A' for Active; 'I' for Inactive)
REMARK    1  A    between atoms: C_1  and  N_2
REMARK    2  A    between atoms: N_2  and  C_3
REMARK    3  A    between atoms: N_2  and  S_10
REMARK    4  A    between atoms: S_10  and  C_13
REMARK    5  A    between atoms: C_19  and  C_20
REMARK    6  A    between atoms: C_20  and  O_22
REMARK    7  A    between atoms: C_23  and  O_24
REMARK                            x       y       z     vdW  Elec       q    Type
REMARK                         _______ _______ _______ _____ _____    ______ ____
ROOT
ATOM      1  C   UNL     1       2.540   7.015  18.948  0.00  0.00    +0.000 A 
ATOM      2  C   UNL     1       2.564   7.767  17.775  0.00  0.00    +0.000 A 
ATOM      3  C   UNL     1       1.993   9.045  17.765  0.00  0.00    +0.000 A 
ATOM      4  C   UNL     1       1.362   9.578  18.881  0.00  0.00    +0.000 A 
ATOM      5  N   UNL     1       0.782  10.785  18.771  0.00  0.00    +0.000 NA
ATOM      6  C   UNL     1       0.093  11.272  19.833  0.00  0.00    +0.000 A 
ATOM      7  C   UNL     1      -0.024  10.614  21.042  0.00  0.00    +0.000 A 
ATOM      8  C   UNL     1       0.605   9.374  21.156  0.00  0.00    +0.000 A 
ATOM      9  C   UNL     1       1.318   8.816  20.070  0.00  0.00    +0.000 A 
ATOM     10  C   UNL     1       1.928   7.536  20.094  0.00  0.00    +0.000 A 
ENDROOT
BRANCH   1  11
ATOM     11  S   UNL     1       3.033   5.295  18.899  0.00  0.00    +0.000 S 
ATOM     12  O   UNL     1       2.262   4.683  17.830  0.00  0.00    +0.000 OA
ATOM     13  O   UNL     1       2.933   4.794  20.254  0.00  0.00    +0.000 OA
BRANCH  11  15
ATOM     14  C   UNL     1       5.699   5.504  19.428  0.00  0.00    +0.000 C 
ATOM     15  N   UNL     1       4.648   5.321  18.425  0.00  0.00    +0.000 N 
BRANCH  15  16
ATOM     16  C   UNL     1       5.010   5.014  17.085  0.00  0.00    +0.000 A 
ATOM     17  C   UNL     1       5.119   6.065  16.167  0.00  0.00    +0.000 A 
ATOM     18  C   UNL     1       5.545   5.815  14.862  0.00  0.00    +0.000 A 
ATOM     19  C   UNL     1       5.860   4.515  14.487  0.00  0.00    +0.000 A 
ATOM     20  F   UNL     1       6.279   4.273  13.239  0.00  0.00    +0.000 F 
ATOM     21  C   UNL     1       5.758   3.462  15.393  0.00  0.00    +0.000 A 
ATOM     22  C   UNL     1       5.333   3.711  16.701  0.00  0.00    +0.000 A 
ENDBRANCH  15  16
ENDBRANCH  11  15
ENDBRANCH   1  11
BRANCH   7  23
ATOM     23  C   UNL     1      -0.841  11.247  22.093  0.00  0.00    +0.000 C 
ATOM     24  O   UNL     1      -1.802  11.953  21.833  0.00  0.00    +0.000 OA
BRANCH  23  25
ATOM     25  O   UNL     1      -0.434  10.985  23.351  0.00  0.00    +0.000 OA
ATOM     26  H   UNL     1      -1.155  10.739  23.970  0.00  0.00    +0.000 HD
ENDBRANCH  23  25
ENDBRANCH   7  23
BRANCH   8  27
ATOM     27  O   UNL     1       0.522   8.666  22.330  0.00  0.00    +0.000 OA
ATOM     28  H   UNL     1       1.265   8.027  22.340  0.00  0.00    +0.000 HD
ENDBRANCH   8  27
TORSDOF 6
ENDMDL
MODEL 5
REMARK VINA RESULT:      -7.8      2.788      3.804
REMARK  Name = 
REMARK  7 active torsions:
REMARK  status: ('A' for Active; 'I' for Inactive)
REMARK    1  A    between atoms: C_1  and  N_2
REMARK    2  A    between atoms: N_2  and  C_3
REMARK    3  A    between atoms: N_2  and  S_10
REMARK    4  A    between atoms: S_10  and  C_13
REMARK    5  A    between atoms: C_19  and  C_20
REMARK    6  A    between atoms: C_20  and  O_22
REMARK    7  A    between atoms: C_23  and  O_24
REMARK                            x       y       z     vdW  Elec       q    Type
REMARK                         _______ _______ _______ _____ _____    ______ ____
ROOT
ATOM      1  C   UNL     1       2.565   7.017  18.892  0.00  0.00    +0.000 A 
ATOM      2  C   UNL     1       2.531   7.768  17.718  0.00  0.00    +0.000 A 
ATOM      3  C   UNL     1       1.949   9.040  17.732  0.00  0.00    +0.000 A 
ATOM      4  C   UNL     1       1.361   9.569  18.874  0.00  0.00    +0.000 A 
ATOM      5  N   UNL     1       0.765  10.770  18.788  0.00  0.00    +0.000 NA
ATOM      6  C   UNL     1       0.118  11.252  19.878  0.00  0.00    +0.000 A 
ATOM      7  C   UNL     1       0.059  10.594  21.091  0.00  0.00    +0.000 A 
ATOM      8  C   UNL     1       0.704   9.360  21.179  0.00  0.00    +0.000 A 
ATOM      9  C   UNL     1       1.375   8.808  20.064  0.00  0.00    +0.000 A 
ATOM     10  C   UNL     1       1.998   7.533  20.063  0.00  0.00    +0.000 A 
ENDROOT
BRANCH   1  11
ATOM     11  S   UNL     1       3.072   5.301  18.823  0.00  0.00    +0.000 S 
ATOM     12  O   UNL     1       2.347   4.709  17.711  0.00  0.00    +0.000 OA
ATOM     13  O   UNL     1       2.923   4.769  20.161  0.00  0.00    +0.000 OA
BRANCH  11  15
ATOM     14  C   UNL     1       5.714   5.508  19.461  0.00  0.00    +0.000 C 
ATOM     15  N   UNL     1       4.704   5.349  18.413  0.00  0.00    +0.000 N 
BRANCH  15  16
ATOM     16  C   UNL     1       5.119   5.081  17.079  0.00  0.00    +0.000 A 
ATOM     17  C   UNL     1       5.410   3.759  16.725  0.00  0.00    +0.000 A 
ATOM     18  C   UNL     1       5.746   3.443  15.409  0.00  0.00    +0.000 A 
ATOM     19  C   UNL     1       5.786   4.454  14.456  0.00  0.00    +0.000 A 
ATOM     20  F   UNL     1       6.098   4.154  13.189  0.00  0.00    +0.000 F 
ATOM     21  C   UNL     1       5.496   5.773  14.797  0.00  0.00    +0.000 A 
ATOM     22  C   UNL     1       5.156   6.091  16.116  0.00  0.00    +0.000 A 
ENDBRANCH  15  16
ENDBRANCH  11  15
ENDBRANCH   1  11
BRANCH   7  23
ATOM     23  C   UNL     1      -0.718  11.221  22.175  0.00  0.00    +0.000 C 
ATOM     24  O   UNL     1      -0.516  10.969  23.351  0.00  0.00    +0.000 OA
BRANCH  23  25
ATOM     25  O   UNL     1      -1.665  12.085  21.757  0.00  0.00    +0.000 OA
ATOM     26  H   UNL     1      -2.162  11.793  20.962  0.00  0.00    +0.000 HD
ENDBRANCH  23  25
ENDBRANCH   7  23
BRANCH   8  27
ATOM     27  O   UNL     1       0.679   8.653  22.356  0.00  0.00    +0.000 OA
ATOM     28  H   UNL     1       1.429   8.968  22.904  0.00  0.00    +0.000 HD
ENDBRANCH   8  27
TORSDOF 6
ENDMDL
MODEL 6
REMARK VINA RESULT:      -7.8      2.181      3.025
REMARK  Name = 
REMARK  7 active torsions:
REMARK  status: ('A' for Active; 'I' for Inactive)
REMARK    1  A    between atoms: C_1  and  N_2
REMARK    2  A    between atoms: N_2  and  C_3
REMARK    3  A    between atoms: N_2  and  S_10
REMARK    4  A    between atoms: S_10  and  C_13
REMARK    5  A    between atoms: C_19  and  C_20
REMARK    6  A    between atoms: C_20  and  O_22
REMARK    7  A    between atoms: C_23  and  O_24
REMARK                            x       y       z     vdW  Elec       q    Type
REMARK                         _______ _______ _______ _____ _____    ______ ____
ROOT
ATOM      1  C   UNL     1       2.423   6.720  19.080  0.00  0.00    +0.000 A 
ATOM      2  C   UNL     1       2.513   7.385  17.859  0.00  0.00    +0.000 A 
ATOM      3  C   UNL     1       2.035   8.696  17.753  0.00  0.00    +0.000 A 
ATOM      4  C   UNL     1       1.431   9.349  18.820  0.00  0.00    +0.000 A 
ATOM      5  N   UNL     1       0.939  10.582  18.618  0.00  0.00    +0.000 NA
ATOM      6  C   UNL     1       0.275  11.189  19.633  0.00  0.00    +0.000 A 
ATOM      7  C   UNL     1       0.099  10.626  20.882  0.00  0.00    +0.000 A 
ATOM      8  C   UNL     1       0.637   9.356  21.091  0.00  0.00    +0.000 A 
ATOM      9  C   UNL     1       1.320   8.676  20.057  0.00  0.00    +0.000 A 
ATOM     10  C   UNL     1       1.838   7.361  20.178  0.00  0.00    +0.000 A 
ENDROOT
BRANCH   1  11
ATOM     11  S   UNL     1       2.795   4.970  19.157  0.00  0.00    +0.000 S 
ATOM     12  O   UNL     1       1.603   4.283  18.690  0.00  0.00    +0.000 OA
ATOM     13  O   UNL     1       3.315   4.713  20.484  0.00  0.00    +0.000 OA
BRANCH  11  15
ATOM     14  C   UNL     1       3.720   4.013  16.779  0.00  0.00    +0.000 C 
ATOM     15  N   UNL     1       4.011   4.735  18.018  0.00  0.00    +0.000 N 
BRANCH  15  16
ATOM     16  C   UNL     1       5.277   5.365  18.178  0.00  0.00    +0.000 A 
ATOM     17  C   UNL     1       5.648   6.354  17.260  0.00  0.00    +0.000 A 
ATOM     18  C   UNL     1       6.847   7.049  17.426  0.00  0.00    +0.000 A 
ATOM     19  C   UNL     1       7.663   6.749  18.510  0.00  0.00    +0.000 A 
ATOM     20  F   UNL     1       8.808   7.421  18.677  0.00  0.00    +0.000 F 
ATOM     21  C   UNL     1       7.301   5.768  19.430  0.00  0.00    +0.000 A 
ATOM     22  C   UNL     1       6.099   5.073  19.267  0.00  0.00    +0.000 A 
ENDBRANCH  15  16
ENDBRANCH  11  15
ENDBRANCH   1  11
BRANCH   7  23
ATOM     23  C   UNL     1      -0.683  11.387  21.874  0.00  0.00    +0.000 C 
ATOM     24  O   UNL     1      -1.571  12.158  21.550  0.00  0.00    +0.000 OA
BRANCH  23  25
ATOM     25  O   UNL     1      -0.329  11.162  23.155  0.00  0.00    +0.000 OA
ATOM     26  H   UNL     1      -1.046  10.797  23.718  0.00  0.00    +0.000 HD
ENDBRANCH  23  25
ENDBRANCH   7  23
BRANCH   8  27
ATOM     27  O   UNL     1       0.492   8.739  22.310  0.00  0.00    +0.000 OA
ATOM     28  H   UNL     1       1.364   8.766  22.757  0.00  0.00    +0.000 HD
ENDBRANCH   8  27
TORSDOF 6
ENDMDL
MODEL 7
REMARK VINA RESULT:      -7.8      2.963      3.778
REMARK  Name = 
REMARK  7 active torsions:
REMARK  status: ('A' for Active; 'I' for Inactive)
REMARK    1  A    between atoms: C_1  and  N_2
REMARK    2  A    between atoms: N_2  and  C_3
REMARK    3  A    between atoms: N_2  and  S_10
REMARK    4  A    between atoms: S_10  and  C_13
REMARK    5  A    between atoms: C_19  and  C_20
REMARK    6  A    between atoms: C_20  and  O_22
REMARK    7  A    between atoms: C_23  and  O_24
REMARK                            x       y       z     vdW  Elec       q    Type
REMARK                         _______ _______ _______ _____ _____    ______ ____
ROOT
ATOM      1  C   UNL     1       2.450   7.152  19.410  0.00  0.00    +0.000 A 
ATOM      2  C   UNL     1       2.349   7.729  18.146  0.00  0.00    +0.000 A 
ATOM      3  C   UNL     1       1.659   8.936  17.993  0.00  0.00    +0.000 A 
ATOM      4  C   UNL     1       1.031   9.566  19.060  0.00  0.00    +0.000 A 
ATOM      5  N   UNL     1       0.334  10.688  18.818  0.00  0.00    +0.000 NA
ATOM      6  C   UNL     1      -0.350  11.259  19.841  0.00  0.00    +0.000 A 
ATOM      7  C   UNL     1      -0.350  10.772  21.133  0.00  0.00    +0.000 A 
ATOM      8  C   UNL     1       0.400   9.621  21.381  0.00  0.00    +0.000 A 
ATOM      9  C   UNL     1       1.113   8.980  20.342  0.00  0.00    +0.000 A 
ATOM     10  C   UNL     1       1.843   7.775  20.508  0.00  0.00    +0.000 A 
ENDROOT
BRANCH   1  11
ATOM     11  S   UNL     1       3.103   5.493  19.570  0.00  0.00    +0.000 S 
ATOM     12  O   UNL     1       2.181   4.776  20.435  0.00  0.00    +0.000 OA
ATOM     13  O   UNL     1       4.497   5.628  19.938  0.00  0.00    +0.000 OA
BRANCH  11  15
ATOM     14  C   UNL     1       1.699   4.344  17.536  0.00  0.00    +0.000 C 
ATOM     15  N   UNL     1       2.989   4.832  18.027  0.00  0.00    +0.000 N 
BRANCH  15  16
ATOM     16  C   UNL     1       4.098   4.884  17.138  0.00  0.00    +0.000 A 
ATOM     17  C   UNL     1       4.672   3.678  16.719  0.00  0.00    +0.000 A 
ATOM     18  C   UNL     1       5.712   3.683  15.789  0.00  0.00    +0.000 A 
ATOM     19  C   UNL     1       6.169   4.895  15.285  0.00  0.00    +0.000 A 
ATOM     20  F   UNL     1       7.159   4.903  14.384  0.00  0.00    +0.000 F 
ATOM     21  C   UNL     1       5.603   6.100  15.693  0.00  0.00    +0.000 A 
ATOM     22  C   UNL     1       4.559   6.097  16.623  0.00  0.00    +0.000 A 
ENDBRANCH  15  16
ENDBRANCH  11  15
ENDBRANCH   1  11
BRANCH   7  23
ATOM     23  C   UNL     1      -1.176  11.474  22.133  0.00  0.00    +0.000 C 
ATOM     24  O   UNL     1      -0.964  11.384  23.331  0.00  0.00    +0.000 OA
BRANCH  23  25
ATOM     25  O   UNL     1      -2.177  12.211  21.611  0.00  0.00    +0.000 OA
ATOM     26  H   UNL     1      -1.887  13.036  21.165  0.00  0.00    +0.000 HD
ENDBRANCH  23  25
ENDBRANCH   7  23
BRANCH   8  27
ATOM     27  O   UNL     1       0.438   9.084  22.645  0.00  0.00    +0.000 OA
ATOM     28  H   UNL     1       0.992   8.276  22.603  0.00  0.00    +0.000 HD
ENDBRANCH   8  27
TORSDOF 6
ENDMDL
MODEL 8
REMARK VINA RESULT:      -7.8      3.000      3.825
REMARK  Name = 
REMARK  7 active torsions:
REMARK  status: ('A' for Active; 'I' for Inactive)
REMARK    1  A    between atoms: C_1  and  N_2
REMARK    2  A    between atoms: N_2  and  C_3
REMARK    3  A    between atoms: N_2  and  S_10
REMARK    4  A    between atoms: S_10  and  C_13
REMARK    5  A    between atoms: C_19  and  C_20
REMARK    6  A    between atoms: C_20  and  O_22
REMARK    7  A    between atoms: C_23  and  O_24
REMARK                            x       y       z     vdW  Elec       q    Type
REMARK                         _______ _______ _______ _____ _____    ______ ____
ROOT
ATOM      1  C   UNL     1       3.836   6.561  18.141  0.00  0.00    +0.000 A 
ATOM      2  C   UNL     1       3.567   5.933  19.356  0.00  0.00    +0.000 A 
ATOM      3  C   UNL     1       2.601   6.475  20.211  0.00  0.00    +0.000 A 
ATOM      4  C   UNL     1       1.925   7.649  19.908  0.00  0.00    +0.000 A 
ATOM      5  N   UNL     1       1.060   8.139  20.812  0.00  0.00    +0.000 NA
ATOM      6  C   UNL     1       0.461   9.329  20.557  0.00  0.00    +0.000 A 
ATOM      7  C   UNL     1       0.661  10.059  19.403  0.00  0.00    +0.000 A 
ATOM      8  C   UNL     1       1.540   9.530  18.457  0.00  0.00    +0.000 A 
ATOM      9  C   UNL     1       2.203   8.302  18.687  0.00  0.00    +0.000 A 
ATOM     10  C   UNL     1       3.155   7.736  17.801  0.00  0.00    +0.000 A 
ENDROOT
BRANCH   1  11
ATOM     11  S   UNL     1       5.239   6.025  17.166  0.00  0.00    +0.000 S 
ATOM     12  O   UNL     1       6.345   5.873  18.097  0.00  0.00    +0.000 OA
ATOM     13  O   UNL     1       5.343   6.940  16.048  0.00  0.00    +0.000 OA
BRANCH  11  15
ATOM     14  C   UNL     1       5.473   3.948  15.417  0.00  0.00    +0.000 C 
ATOM     15  N   UNL     1       4.817   4.495  16.606  0.00  0.00    +0.000 N 
BRANCH  15  16
ATOM     16  C   UNL     1       3.944   3.667  17.364  0.00  0.00    +0.000 A 
ATOM     17  C   UNL     1       4.478   2.941  18.435  0.00  0.00    +0.000 A 
ATOM     18  C   UNL     1       3.642   2.178  19.250  0.00  0.00    +0.000 A 
ATOM     19  C   UNL     1       2.278   2.148  18.988  0.00  0.00    +0.000 A 
ATOM     20  F   UNL     1       1.471   1.425  19.775  0.00  0.00    +0.000 F 
ATOM     21  C   UNL     1       1.736   2.869  17.927  0.00  0.00    +0.000 A 
ATOM     22  C   UNL     1       2.571   3.637  17.110  0.00  0.00    +0.000 A 
ENDBRANCH  15  16
ENDBRANCH  11  15
ENDBRANCH   1  11
BRANCH   7  23
ATOM     23  C   UNL     1      -0.027  11.358  19.283  0.00  0.00    +0.000 C 
ATOM     24  O   UNL     1      -0.146  12.121  20.227  0.00  0.00    +0.000 OA
BRANCH  23  25
ATOM     25  O   UNL     1      -0.511  11.622  18.053  0.00  0.00    +0.000 OA
ATOM     26  H   UNL     1      -0.584  10.839  17.466  0.00  0.00    +0.000 HD
ENDBRANCH  23  25
ENDBRANCH   7  23
BRANCH   8  27
ATOM     27  O   UNL     1       1.786  10.210  17.289  0.00  0.00    +0.000 OA
ATOM     28  H   UNL     1       2.427   9.679  16.771  0.00  0.00    +0.000 HD
ENDBRANCH   8  27
TORSDOF 6
ENDMDL
MODEL 9
REMARK VINA RESULT:      -7.7      1.885      2.690
REMARK  Name = 
REMARK  7 active torsions:
REMARK  status: ('A' for Active; 'I' for Inactive)
REMARK    1  A    between atoms: C_1  and  N_2
REMARK    2  A    between atoms: N_2  and  C_3
REMARK    3  A    between atoms: N_2  and  S_10
REMARK    4  A    between atoms: S_10  and  C_13
REMARK    5  A    between atoms: C_19  and  C_20
REMARK    6  A    between atoms: C_20  and  O_22
REMARK    7  A    between atoms: C_23  and  O_24
REMARK                            x       y       z     vdW  Elec       q    Type
REMARK                         _______ _______ _______ _____ _____    ______ ____
ROOT
ATOM      1  C   UNL     1       3.296   6.121  18.299  0.00  0.00    +0.000 A 
ATOM      2  C   UNL     1       3.199   6.987  17.211  0.00  0.00    +0.000 A 
ATOM      3  C   UNL     1       2.576   8.229  17.374  0.00  0.00    +0.000 A 
ATOM      4  C   UNL     1       2.011   8.616  18.582  0.00  0.00    +0.000 A 
ATOM      5  N   UNL     1       1.373   9.797  18.639  0.00  0.00    +0.000 NA
ATOM      6  C   UNL     1       0.748  10.141  19.793  0.00  0.00    +0.000 A 
ATOM      7  C   UNL     1       0.751   9.361  20.932  0.00  0.00    +0.000 A 
ATOM      8  C   UNL     1       1.439   8.148  20.872  0.00  0.00    +0.000 A 
ATOM      9  C   UNL     1       2.089   7.738  19.686  0.00  0.00    +0.000 A 
ATOM     10  C   UNL     1       2.753   6.493  19.534  0.00  0.00    +0.000 A 
ENDROOT
BRANCH   1  11
ATOM     11  S   UNL     1       3.857   4.440  18.037  0.00  0.00    +0.000 S 
ATOM     12  O   UNL     1       2.879   3.820  17.158  0.00  0.00    +0.000 OA
ATOM     13  O   UNL     1       4.123   3.882  19.346  0.00  0.00    +0.000 OA
BRANCH  11  15
ATOM     14  C   UNL     1       5.459   3.921  15.894  0.00  0.00    +0.000 C 
ATOM     15  N   UNL     1       5.300   4.593  17.185  0.00  0.00    +0.000 N 
BRANCH  15  16
ATOM     16  C   UNL     1       6.307   5.493  17.632  0.00  0.00    +0.000 A 
ATOM     17  C   UNL     1       6.506   6.678  16.915  0.00  0.00    +0.000 A 
ATOM     18  C   UNL     1       7.430   7.622  17.364  0.00  0.00    +0.000 A 
ATOM     19  C   UNL     1       8.147   7.372  18.529  0.00  0.00    +0.000 A 
ATOM     20  F   UNL     1       9.027   8.280  18.968  0.00  0.00    +0.000 F 
ATOM     21  C   UNL     1       7.954   6.197  19.251  0.00  0.00    +0.000 A 
ATOM     22  C   UNL     1       7.027   5.251  18.804  0.00  0.00    +0.000 A 
ENDBRANCH  15  16
ENDBRANCH  11  15
ENDBRANCH   1  11
BRANCH   7  23
ATOM     23  C   UNL     1      -0.009   9.845  22.099  0.00  0.00    +0.000 C 
ATOM     24  O   UNL     1       0.032  11.008  22.465  0.00  0.00    +0.000 OA
BRANCH  23  25
ATOM     25  O   UNL     1      -0.741   8.899  22.721  0.00  0.00    +0.000 OA
ATOM     26  H   UNL     1      -0.347   8.560  23.553  0.00  0.00    +0.000 HD
ENDBRANCH  23  25
ENDBRANCH   7  23
BRANCH   8  27
ATOM     27  O   UNL     1       1.476   7.324  21.970  0.00  0.00    +0.000 OA
ATOM     28  H   UNL     1       0.574   7.304  22.353  0.00  0.00    +0.000 HD
ENDBRANCH   8  27
TORSDOF 6
ENDMDL
