MODEL 1
REMARK VINA RESULT:      -7.6      0.000      0.000
REMARK  Name = 
REMARK  11 active torsions:
REMARK  status: ('A' for Active; 'I' for Inactive)
REMARK    1  A    between atoms: C_1  and  C_2
REMARK    2  A    between atoms: N_5  and  C_6
REMARK    3  A    between atoms: C_6  and  C_7
REMARK    4  A    between atoms: C_7  and  O_8
REMARK    5  A    between atoms: C_11  and  C_12
REMARK    6  A    between atoms: N_18  and  C_19
REMARK    7  A    between atoms: C_19  and  C_20
REMARK    8  A    between atoms: C_20  and  C_21
REMARK    9  A    between atoms: C_21  and  N_22
REMARK   10  A    between atoms: N_22  and  C_23
REMARK   11  A    between atoms: N_22  and  C_24
REMARK                            x       y       z     vdW  Elec       q    Type
REMARK                         _______ _______ _______ _____ _____    ______ ____
ROOT
ATOM      1  C   UNL     1      -0.677   9.969  22.846  0.00  0.00    +0.000 C 
ATOM      2  C   UNL     1       0.105   9.607  21.617  0.00  0.00    +0.000 A 
ATOM      3  N   UNL     1       0.128  10.551  20.642  0.00  0.00    +0.000 NA
ATOM      4  C   UNL     1       0.778  10.292  19.488  0.00  0.00    +0.000 A 
ATOM      5  N   UNL     1       0.813  11.208  18.449  0.00  0.00    +0.000 N 
ATOM      6  C   UNL     1       1.431   9.059  19.368  0.00  0.00    +0.000 A 
ATOM      7  N   UNL     1       2.196   8.550  18.358  0.00  0.00    +0.000 NA
ATOM      8  C   UNL     1       2.563   7.334  18.737  0.00  0.00    +0.000 A 
ATOM      9  N   UNL     1       2.088   7.075  20.023  0.00  0.00    +0.000 N 
ATOM     10  C   UNL     1       1.358   8.178  20.430  0.00  0.00    +0.000 A 
ATOM     11  N   UNL     1       0.700   8.384  21.588  0.00  0.00    +0.000 NA
ATOM     12  H   UNL     1       1.416  10.899  17.688  0.00  0.00    +0.000 HD
ENDROOT
BRANCH   8  13
ATOM     13  C   UNL     1       3.395   6.494  17.854  0.00  0.00    +0.000 A 
ATOM     14  C   UNL     1       4.407   7.120  17.099  0.00  0.00    +0.000 A 
ATOM     15  C   UNL     1       5.231   6.390  16.238  0.00  0.00    +0.000 A 
ATOM     16  C   UNL     1       5.067   5.014  16.126  0.00  0.00    +0.000 A 
ATOM     17  C   UNL     1       4.055   4.381  16.844  0.00  0.00    +0.000 A 
ATOM     18  C   UNL     1       3.206   5.123  17.671  0.00  0.00    +0.000 A 
ENDBRANCH   8  13
BRANCH   5  19
ATOM     19  C   UNL     1       0.812  12.631  18.744  0.00  0.00    +0.000 C 
BRANCH  19  20
ATOM     20  C   UNL     1      -0.435  13.357  18.225  0.00  0.00    +0.000 C 
BRANCH  20  21
ATOM     21  O   UNL     1      -1.214  12.511  17.378  0.00  0.00    +0.000 OA
ATOM     22  H   UNL     1      -1.370  13.022  16.562  0.00  0.00    +0.000 HD
ENDBRANCH  20  21
ENDBRANCH  19  20
ENDBRANCH   5  19
BRANCH   9  23
ATOM     23  C   UNL     1       2.215   5.867  20.818  0.00  0.00    +0.000 C 
BRANCH  23  24
ATOM     24  C   UNL     1       1.230   4.730  20.533  0.00  0.00    +0.000 C 
BRANCH  24  25
ATOM     25  C   UNL     1       1.565   3.382  21.180  0.00  0.00    +0.000 C 
BRANCH  25  26
ATOM     26  N   UNL     1       1.717   2.319  20.161  0.00  0.00    +0.000 NA
ATOM     27  C   UNL     1       0.865   2.528  18.984  0.00  0.00    +0.000 C 
ATOM     28  C   UNL     1       3.114   2.219  19.727  0.00  0.00    +0.000 C 
ENDBRANCH  25  26
ENDBRANCH  24  25
ENDBRANCH  23  24
ENDBRANCH   9  23
TORSDOF 8
ENDMDL
MODEL 2
REMARK VINA RESULT:      -7.4      0.948      1.381
REMARK  Name = 
REMARK  11 active torsions:
REMARK  status: ('A' for Active; 'I' for Inactive)
REMARK    1  A    between atoms: C_1  and  C_2
REMARK    2  A    between atoms: N_5  and  C_6
REMARK    3  A    between atoms: C_6  and  C_7
REMARK    4  A    between atoms: C_7  and  O_8
REMARK    5  A    between atoms: C_11  and  C_12
REMARK    6  A    between atoms: N_18  and  C_19
REMARK    7  A    between atoms: C_19  and  C_20
REMARK    8  A    between atoms: C_20  and  C_21
REMARK    9  A    between atoms: C_21  and  N_22
REMARK   10  A    between atoms: N_22  and  C_23
REMARK   11  A    between atoms: N_22  and  C_24
REMARK                            x       y       z     vdW  Elec       q    Type
REMARK                         _______ _______ _______ _____ _____    ______ ____
ROOT
ATOM      1  C   UNL     1      -0.515   9.554  22.771  0.00  0.00    +0.000 C 
ATOM      2  C   UNL     1       0.268   9.252  21.526  0.00  0.00    +0.000 A 
ATOM      3  N   UNL     1       0.230  10.211  20.567  0.00  0.00    +0.000 NA
ATOM      4  C   UNL     1       0.877  10.004  19.400  0.00  0.00    +0.000 A 
ATOM      5  N   UNL     1       0.851  10.936  18.376  0.00  0.00    +0.000 N 
ATOM      6  C   UNL     1       1.589   8.806  19.252  0.00  0.00    +0.000 A 
ATOM      7  N   UNL     1       2.365   8.353  18.224  0.00  0.00    +0.000 NA
ATOM      8  C   UNL     1       2.798   7.152  18.578  0.00  0.00    +0.000 A 
ATOM      9  N   UNL     1       2.354   6.849  19.865  0.00  0.00    +0.000 N 
ATOM     10  C   UNL     1       1.576   7.906  20.300  0.00  0.00    +0.000 A 
ATOM     11  N   UNL     1       0.924   8.061  21.470  0.00  0.00    +0.000 NA
ATOM     12  H   UNL     1       1.459  10.670  17.602  0.00  0.00    +0.000 HD
ENDROOT
BRANCH   8  13
ATOM     13  C   UNL     1       3.659   6.369  17.670  0.00  0.00    +0.000 A 
ATOM     14  C   UNL     1       3.388   4.995  17.515  0.00  0.00    +0.000 A 
ATOM     15  C   UNL     1       4.163   4.189  16.677  0.00  0.00    +0.000 A 
ATOM     16  C   UNL     1       5.218   4.748  15.965  0.00  0.00    +0.000 A 
ATOM     17  C   UNL     1       5.519   6.098  16.125  0.00  0.00    +0.000 A 
ATOM     18  C   UNL     1       4.767   6.890  16.998  0.00  0.00    +0.000 A 
ENDBRANCH   8  13
BRANCH   5  19
ATOM     19  C   UNL     1       0.783  12.352  18.695  0.00  0.00    +0.000 C 
BRANCH  19  20
ATOM     20  C   UNL     1       2.001  13.144  18.203  0.00  0.00    +0.000 C 
BRANCH  20  21
ATOM     21  O   UNL     1       2.804  12.364  17.316  0.00  0.00    +0.000 OA
ATOM     22  H   UNL     1       3.532  12.009  17.858  0.00  0.00    +0.000 HD
ENDBRANCH  20  21
ENDBRANCH  19  20
ENDBRANCH   5  19
BRANCH   9  23
ATOM     23  C   UNL     1       2.552   5.636  20.639  0.00  0.00    +0.000 C 
BRANCH  23  24
ATOM     24  C   UNL     1       1.545   4.500  20.438  0.00  0.00    +0.000 C 
BRANCH  24  25
ATOM     25  C   UNL     1       2.061   3.091  20.749  0.00  0.00    +0.000 C 
BRANCH  25  26
ATOM     26  N   UNL     1       1.685   2.133  19.686  0.00  0.00    +0.000 NA
ATOM     27  C   UNL     1       0.701   2.682  18.743  0.00  0.00    +0.000 C 
ATOM     28  C   UNL     1       2.870   1.701  18.939  0.00  0.00    +0.000 C 
ENDBRANCH  25  26
ENDBRANCH  24  25
ENDBRANCH  23  24
ENDBRANCH   9  23
TORSDOF 8
ENDMDL
MODEL 3
REMARK VINA RESULT:      -7.4      0.548      1.257
REMARK  Name = 
REMARK  11 active torsions:
REMARK  status: ('A' for Active; 'I' for Inactive)
REMARK    1  A    between atoms: C_1  and  C_2
REMARK    2  A    between atoms: N_5  and  C_6
REMARK    3  A    between atoms: C_6  and  C_7
REMARK    4  A    between atoms: C_7  and  O_8
REMARK    5  A    between atoms: C_11  and  C_12
REMARK    6  A    between atoms: N_18  and  C_19
REMARK    7  A    between atoms: C_19  and  C_20
REMARK    8  A    between atoms: C_20  and  C_21
REMARK    9  A    between atoms: C_21  and  N_22
REMARK   10  A    between atoms: N_22  and  C_23
REMARK   11  A    between atoms: N_22  and  C_24
REMARK                            x       y       z     vdW  Elec       q    Type
REMARK                         _______ _______ _______ _____ _____    ______ ____
ROOT
ATOM      1  C   UNL     1      -0.469   9.648  22.760  0.00  0.00    +0.000 C 
ATOM      2  C   UNL     1       0.297   9.331  21.507  0.00  0.00    +0.000 A 
ATOM      3  N   UNL     1       0.248  10.278  20.538  0.00  0.00    +0.000 NA
ATOM      4  C   UNL     1       0.878  10.057  19.365  0.00  0.00    +0.000 A 
ATOM      5  N   UNL     1       0.841  10.978  18.331  0.00  0.00    +0.000 N 
ATOM      6  C   UNL     1       1.587   8.857  19.221  0.00  0.00    +0.000 A 
ATOM      7  N   UNL     1       2.349   8.391  18.188  0.00  0.00    +0.000 NA
ATOM      8  C   UNL     1       2.784   7.192  18.550  0.00  0.00    +0.000 A 
ATOM      9  N   UNL     1       2.357   6.905  19.846  0.00  0.00    +0.000 N 
ATOM     10  C   UNL     1       1.586   7.969  20.280  0.00  0.00    +0.000 A 
ATOM     11  N   UNL     1       0.949   8.138  21.456  0.00  0.00    +0.000 NA
ATOM     12  H   UNL     1       1.438  10.702  17.552  0.00  0.00    +0.000 HD
ENDROOT
BRANCH   8  13
ATOM     13  C   UNL     1       3.632   6.398  17.640  0.00  0.00    +0.000 A 
ATOM     14  C   UNL     1       3.375   5.017  17.528  0.00  0.00    +0.000 A 
ATOM     15  C   UNL     1       4.140   4.200  16.690  0.00  0.00    +0.000 A 
ATOM     16  C   UNL     1       5.168   4.754  15.936  0.00  0.00    +0.000 A 
ATOM     17  C   UNL     1       5.453   6.112  16.053  0.00  0.00    +0.000 A 
ATOM     18  C   UNL     1       4.714   6.916  16.925  0.00  0.00    +0.000 A 
ENDBRANCH   8  13
BRANCH   5  19
ATOM     19  C   UNL     1       0.779  12.398  18.634  0.00  0.00    +0.000 C 
BRANCH  19  20
ATOM     20  C   UNL     1      -0.630  12.986  18.495  0.00  0.00    +0.000 C 
BRANCH  20  21
ATOM     21  O   UNL     1      -1.200  12.675  17.224  0.00  0.00    +0.000 OA
ATOM     22  H   UNL     1      -0.457  12.655  16.595  0.00  0.00    +0.000 HD
ENDBRANCH  20  21
ENDBRANCH  19  20
ENDBRANCH   5  19
BRANCH   9  23
ATOM     23  C   UNL     1       2.563   5.701  20.631  0.00  0.00    +0.000 C 
BRANCH  23  24
ATOM     24  C   UNL     1       1.433   4.667  20.644  0.00  0.00    +0.000 C 
BRANCH  24  25
ATOM     25  C   UNL     1       1.865   3.213  20.865  0.00  0.00    +0.000 C 
BRANCH  25  26
ATOM     26  N   UNL     1       2.824   2.773  19.827  0.00  0.00    +0.000 NA
ATOM     27  C   UNL     1       4.040   2.173  20.391  0.00  0.00    +0.000 C 
ATOM     28  C   UNL     1       2.195   1.810  18.919  0.00  0.00    +0.000 C 
ENDBRANCH  25  26
ENDBRANCH  24  25
ENDBRANCH  23  24
ENDBRANCH   9  23
TORSDOF 8
ENDMDL
MODEL 4
REMARK VINA RESULT:      -6.7      1.111      1.313
REMARK  Name = 
REMARK  11 active torsions:
REMARK  status: ('A' for Active; 'I' for Inactive)
REMARK    1  A    between atoms: C_1  and  C_2
REMARK    2  A    between atoms: N_5  and  C_6
REMARK    3  A    between atoms: C_6  and  C_7
REMARK    4  A    between atoms: C_7  and  O_8
REMARK    5  A    between atoms: C_11  and  C_12
REMARK    6  A    between atoms: N_18  and  C_19
REMARK    7  A    between atoms: C_19  and  C_20
REMARK    8  A    between atoms: C_20  and  C_21
REMARK    9  A    between atoms: C_21  and  N_22
REMARK   10  A    between atoms: N_22  and  C_23
REMARK   11  A    between atoms: N_22  and  C_24
REMARK                            x       y       z     vdW  Elec       q    Type
REMARK                         _______ _______ _______ _____ _____    ______ ____
ROOT
ATOM      1  C   UNL     1      -0.542   9.967  22.648  0.00  0.00    +0.000 C 
ATOM      2  C   UNL     1       0.255   9.606  21.427  0.00  0.00    +0.000 A 
ATOM      3  N   UNL     1       0.302  10.556  20.460  0.00  0.00    +0.000 NA
ATOM      4  C   UNL     1       0.966  10.298  19.313  0.00  0.00    +0.000 A 
ATOM      5  N   UNL     1       1.027  11.221  18.282  0.00  0.00    +0.000 N 
ATOM      6  C   UNL     1       1.607   9.058  19.194  0.00  0.00    +0.000 A 
ATOM      7  N   UNL     1       2.381   8.548  18.191  0.00  0.00    +0.000 NA
ATOM      8  C   UNL     1       2.728   7.325  18.566  0.00  0.00    +0.000 A 
ATOM      9  N   UNL     1       2.231   7.062  19.843  0.00  0.00    +0.000 N 
ATOM     10  C   UNL     1       1.509   8.170  20.248  0.00  0.00    +0.000 A 
ATOM     11  N   UNL     1       0.836   8.376  21.398  0.00  0.00    +0.000 NA
ATOM     12  H   UNL     1       1.637  10.911  17.527  0.00  0.00    +0.000 HD
ENDROOT
BRANCH   8  13
ATOM     13  C   UNL     1       3.563   6.482  17.689  0.00  0.00    +0.000 A 
ATOM     14  C   UNL     1       4.534   7.113  16.887  0.00  0.00    +0.000 A 
ATOM     15  C   UNL     1       5.359   6.380  16.028  0.00  0.00    +0.000 A 
ATOM     16  C   UNL     1       5.235   4.997  15.967  0.00  0.00    +0.000 A 
ATOM     17  C   UNL     1       4.264   4.357  16.732  0.00  0.00    +0.000 A 
ATOM     18  C   UNL     1       3.413   5.100  17.557  0.00  0.00    +0.000 A 
ENDBRANCH   8  13
BRANCH   5  19
ATOM     19  C   UNL     1       1.038  12.642  18.587  0.00  0.00    +0.000 C 
BRANCH  19  20
ATOM     20  C   UNL     1       2.331  13.105  19.270  0.00  0.00    +0.000 C 
BRANCH  20  21
ATOM     21  O   UNL     1       2.124  13.354  20.661  0.00  0.00    +0.000 OA
ATOM     22  H   UNL     1       2.162  12.484  21.097  0.00  0.00    +0.000 HD
ENDBRANCH  20  21
ENDBRANCH  19  20
ENDBRANCH   5  19
BRANCH   9  23
ATOM     23  C   UNL     1       2.332   5.847  20.631  0.00  0.00    +0.000 C 
BRANCH  23  24
ATOM     24  C   UNL     1       1.105   4.933  20.676  0.00  0.00    +0.000 C 
BRANCH  24  25
ATOM     25  C   UNL     1       1.163   3.696  19.773  0.00  0.00    +0.000 C 
BRANCH  25  26
ATOM     26  N   UNL     1       2.315   2.833  20.116  0.00  0.00    +0.000 NA
ATOM     27  C   UNL     1       2.251   2.312  21.487  0.00  0.00    +0.000 C 
ATOM     28  C   UNL     1       2.410   1.706  19.183  0.00  0.00    +0.000 C 
ENDBRANCH  25  26
ENDBRANCH  24  25
ENDBRANCH  23  24
ENDBRANCH   9  23
TORSDOF 8
ENDMDL
MODEL 5
REMARK VINA RESULT:      -6.5      2.241      4.584
REMARK  Name = 
REMARK  11 active torsions:
REMARK  status: ('A' for Active; 'I' for Inactive)
REMARK    1  A    between atoms: C_1  and  C_2
REMARK    2  A    between atoms: N_5  and  C_6
REMARK    3  A    between atoms: C_6  and  C_7
REMARK    4  A    between atoms: C_7  and  O_8
REMARK    5  A    between atoms: C_11  and  C_12
REMARK    6  A    between atoms: N_18  and  C_19
REMARK    7  A    between atoms: C_19  and  C_20
REMARK    8  A    between atoms: C_20  and  C_21
REMARK    9  A    between atoms: C_21  and  N_22
REMARK   10  A    between atoms: N_22  and  C_23
REMARK   11  A    between atoms: N_22  and  C_24
REMARK                            x       y       z     vdW  Elec       q    Type
REMARK                         _______ _______ _______ _____ _____    ______ ____
ROOT
ATOM      1  C   UNL     1       2.021  11.597  18.078  0.00  0.00    +0.000 C 
ATOM      2  C   UNL     1       1.995  10.172  18.552  0.00  0.00    +0.000 A 
ATOM      3  N   UNL     1       1.304   9.953  19.699  0.00  0.00    +0.000 NA
ATOM      4  C   UNL     1       1.261   8.706  20.216  0.00  0.00    +0.000 A 
ATOM      5  N   UNL     1       0.593   8.428  21.397  0.00  0.00    +0.000 N 
ATOM      6  C   UNL     1       1.913   7.685  19.513  0.00  0.00    +0.000 A 
ATOM      7  N   UNL     1       1.996   6.345  19.761  0.00  0.00    +0.000 NA
ATOM      8  C   UNL     1       2.747   5.827  18.799  0.00  0.00    +0.000 A 
ATOM      9  N   UNL     1       3.102   6.823  17.889  0.00  0.00    +0.000 N 
ATOM     10  C   UNL     1       2.572   8.017  18.344  0.00  0.00    +0.000 A 
ATOM     11  N   UNL     1       2.662   9.250  17.808  0.00  0.00    +0.000 NA
ATOM     12  H   UNL     1       0.579   7.430  21.602  0.00  0.00    +0.000 HD
ENDROOT
BRANCH   8  13
ATOM     13  C   UNL     1       3.050   4.383  18.782  0.00  0.00    +0.000 A 
ATOM     14  C   UNL     1       2.359   3.569  17.863  0.00  0.00    +0.000 A 
ATOM     15  C   UNL     1       2.591   2.192  17.792  0.00  0.00    +0.000 A 
ATOM     16  C   UNL     1       3.531   1.606  18.631  0.00  0.00    +0.000 A 
ATOM     17  C   UNL     1       4.205   2.389  19.564  0.00  0.00    +0.000 A 
ATOM     18  C   UNL     1       3.938   3.759  19.661  0.00  0.00    +0.000 A 
ENDBRANCH   8  13
BRANCH   5  19
ATOM     19  C   UNL     1      -0.601   9.182  21.742  0.00  0.00    +0.000 C 
BRANCH  19  20
ATOM     20  C   UNL     1      -0.576   9.735  23.172  0.00  0.00    +0.000 C 
BRANCH  20  21
ATOM     21  O   UNL     1      -0.566  11.163  23.177  0.00  0.00    +0.000 OA
ATOM     22  H   UNL     1      -1.469  11.436  23.419  0.00  0.00    +0.000 HD
ENDBRANCH  20  21
ENDBRANCH  19  20
ENDBRANCH   5  19
BRANCH   9  23
ATOM     23  C   UNL     1       3.942   6.725  16.709  0.00  0.00    +0.000 C 
BRANCH  23  24
ATOM     24  C   UNL     1       5.237   5.916  16.831  0.00  0.00    +0.000 C 
BRANCH  24  25
ATOM     25  C   UNL     1       6.528   6.736  16.917  0.00  0.00    +0.000 C 
BRANCH  25  26
ATOM     26  N   UNL     1       7.634   5.941  17.496  0.00  0.00    +0.000 NA
ATOM     27  C   UNL     1       7.772   6.124  18.946  0.00  0.00    +0.000 C 
ATOM     28  C   UNL     1       7.447   4.515  17.212  0.00  0.00    +0.000 C 
ENDBRANCH  25  26
ENDBRANCH  24  25
ENDBRANCH  23  24
ENDBRANCH   9  23
TORSDOF 8
ENDMDL
MODEL 6
REMARK VINA RESULT:      -6.5      2.198      4.488
REMARK  Name = 
REMARK  11 active torsions:
REMARK  status: ('A' for Active; 'I' for Inactive)
REMARK    1  A    between atoms: C_1  and  C_2
REMARK    2  A    between atoms: N_5  and  C_6
REMARK    3  A    between atoms: C_6  and  C_7
REMARK    4  A    between atoms: C_7  and  O_8
REMARK    5  A    between atoms: C_11  and  C_12
REMARK    6  A    between atoms: N_18  and  C_19
REMARK    7  A    between atoms: C_19  and  C_20
REMARK    8  A    between atoms: C_20  and  C_21
REMARK    9  A    between atoms: C_21  and  N_22
REMARK   10  A    between atoms: N_22  and  C_23
REMARK   11  A    between atoms: N_22  and  C_24
REMARK                            x       y       z     vdW  Elec       q    Type
REMARK                         _______ _______ _______ _____ _____    ______ ____
ROOT
ATOM      1  C   UNL     1       1.917  11.683  18.160  0.00  0.00    +0.000 C 
ATOM      2  C   UNL     1       1.911  10.255  18.623  0.00  0.00    +0.000 A 
ATOM      3  N   UNL     1       1.250  10.022  19.784  0.00  0.00    +0.000 NA
ATOM      4  C   UNL     1       1.227   8.771  20.291  0.00  0.00    +0.000 A 
ATOM      5  N   UNL     1       0.589   8.479  21.486  0.00  0.00    +0.000 N 
ATOM      6  C   UNL     1       1.868   7.760  19.564  0.00  0.00    +0.000 A 
ATOM      7  N   UNL     1       1.965   6.418  19.799  0.00  0.00    +0.000 NA
ATOM      8  C   UNL     1       2.696   5.913  18.816  0.00  0.00    +0.000 A 
ATOM      9  N   UNL     1       3.023   6.918  17.905  0.00  0.00    +0.000 N 
ATOM     10  C   UNL     1       2.497   8.105  18.383  0.00  0.00    +0.000 A 
ATOM     11  N   UNL     1       2.566   9.343  17.855  0.00  0.00    +0.000 NA
ATOM     12  H   UNL     1       0.586   7.479  21.683  0.00  0.00    +0.000 HD
ENDROOT
BRANCH   8  13
ATOM     13  C   UNL     1       3.008   4.472  18.779  0.00  0.00    +0.000 A 
ATOM     14  C   UNL     1       2.242   3.646  17.932  0.00  0.00    +0.000 A 
ATOM     15  C   UNL     1       2.477   2.271  17.848  0.00  0.00    +0.000 A 
ATOM     16  C   UNL     1       3.495   1.697  18.601  0.00  0.00    +0.000 A 
ATOM     17  C   UNL     1       4.246   2.491  19.463  0.00  0.00    +0.000 A 
ATOM     18  C   UNL     1       3.978   3.859  19.575  0.00  0.00    +0.000 A 
ENDBRANCH   8  13
BRANCH   5  19
ATOM     19  C   UNL     1      -0.601   9.222  21.867  0.00  0.00    +0.000 C 
BRANCH  19  20
ATOM     20  C   UNL     1      -0.481   9.896  23.239  0.00  0.00    +0.000 C 
BRANCH  20  21
ATOM     21  O   UNL     1      -0.449  11.318  23.118  0.00  0.00    +0.000 OA
ATOM     22  H   UNL     1      -0.006  11.505  22.270  0.00  0.00    +0.000 HD
ENDBRANCH  20  21
ENDBRANCH  19  20
ENDBRANCH   5  19
BRANCH   9  23
ATOM     23  C   UNL     1       3.835   6.836  16.704  0.00  0.00    +0.000 C 
BRANCH  23  24
ATOM     24  C   UNL     1       5.132   6.027  16.786  0.00  0.00    +0.000 C 
BRANCH  24  25
ATOM     25  C   UNL     1       5.168   4.740  15.955  0.00  0.00    +0.000 C 
BRANCH  25  26
ATOM     26  N   UNL     1       6.555   4.264  15.759  0.00  0.00    +0.000 NA
ATOM     27  C   UNL     1       7.196   4.842  14.571  0.00  0.00    +0.000 C 
ATOM     28  C   UNL     1       7.374   4.565  16.936  0.00  0.00    +0.000 C 
ENDBRANCH  25  26
ENDBRANCH  24  25
ENDBRANCH  23  24
ENDBRANCH   9  23
TORSDOF 8
ENDMDL
MODEL 7
REMARK VINA RESULT:      -6.5      2.139      4.398
REMARK  Name = 
REMARK  11 active torsions:
REMARK  status: ('A' for Active; 'I' for Inactive)
REMARK    1  A    between atoms: C_1  and  C_2
REMARK    2  A    between atoms: N_5  and  C_6
REMARK    3  A    between atoms: C_6  and  C_7
REMARK    4  A    between atoms: C_7  and  O_8
REMARK    5  A    between atoms: C_11  and  C_12
REMARK    6  A    between atoms: N_18  and  C_19
REMARK    7  A    between atoms: C_19  and  C_20
REMARK    8  A    between atoms: C_20  and  C_21
REMARK    9  A    between atoms: C_21  and  N_22
REMARK   10  A    between atoms: N_22  and  C_23
REMARK   11  A    between atoms: N_22  and  C_24
REMARK                            x       y       z     vdW  Elec       q    Type
REMARK                         _______ _______ _______ _____ _____    ______ ____
ROOT
ATOM      1  C   UNL     1       1.703  11.744  18.459  0.00  0.00    +0.000 C 
ATOM      2  C   UNL     1       1.758  10.295  18.851  0.00  0.00    +0.000 A 
ATOM      3  N   UNL     1       1.127   9.981  20.010  0.00  0.00    +0.000 NA
ATOM      4  C   UNL     1       1.159   8.707  20.455  0.00  0.00    +0.000 A 
ATOM      5  N   UNL     1       0.554   8.334  21.644  0.00  0.00    +0.000 N 
ATOM      6  C   UNL     1       1.824   7.758  19.669  0.00  0.00    +0.000 A 
ATOM      7  N   UNL     1       1.975   6.411  19.836  0.00  0.00    +0.000 NA
ATOM      8  C   UNL     1       2.706   5.982  18.818  0.00  0.00    +0.000 A 
ATOM      9  N   UNL     1       2.979   7.042  17.953  0.00  0.00    +0.000 N 
ATOM     10  C   UNL     1       2.418   8.184  18.497  0.00  0.00    +0.000 A 
ATOM     11  N   UNL     1       2.433   9.447  18.029  0.00  0.00    +0.000 NA
ATOM     12  H   UNL     1       0.591   7.327  21.792  0.00  0.00    +0.000 HD
ENDROOT
BRANCH   8  13
ATOM     13  C   UNL     1       3.070   4.557  18.705  0.00  0.00    +0.000 A 
ATOM     14  C   UNL     1       4.092   4.062  19.540  0.00  0.00    +0.000 A 
ATOM     15  C   UNL     1       4.493   2.725  19.486  0.00  0.00    +0.000 A 
ATOM     16  C   UNL     1       3.869   1.851  18.603  0.00  0.00    +0.000 A 
ATOM     17  C   UNL     1       2.876   2.327  17.751  0.00  0.00    +0.000 A 
ATOM     18  C   UNL     1       2.508   3.675  17.779  0.00  0.00    +0.000 A 
ENDBRANCH   8  13
BRANCH   5  19
ATOM     19  C   UNL     1      -0.656   9.012  22.080  0.00  0.00    +0.000 C 
BRANCH  19  20
ATOM     20  C   UNL     1      -0.411  10.025  23.205  0.00  0.00    +0.000 C 
BRANCH  20  21
ATOM     21  O   UNL     1      -0.052  11.305  22.683  0.00  0.00    +0.000 OA
ATOM     22  H   UNL     1       0.590  11.133  21.971  0.00  0.00    +0.000 HD
ENDBRANCH  20  21
ENDBRANCH  19  20
ENDBRANCH   5  19
BRANCH   9  23
ATOM     23  C   UNL     1       3.772   7.048  16.736  0.00  0.00    +0.000 C 
BRANCH  23  24
ATOM     24  C   UNL     1       5.075   6.244  16.741  0.00  0.00    +0.000 C 
BRANCH  24  25
ATOM     25  C   UNL     1       6.279   6.930  17.396  0.00  0.00    +0.000 C 
BRANCH  25  26
ATOM     26  N   UNL     1       7.371   5.967  17.659  0.00  0.00    +0.000 NA
ATOM     27  C   UNL     1       7.712   5.864  19.084  0.00  0.00    +0.000 C 
ATOM     28  C   UNL     1       7.017   4.637  17.157  0.00  0.00    +0.000 C 
ENDBRANCH  25  26
ENDBRANCH  24  25
ENDBRANCH  23  24
ENDBRANCH   9  23
TORSDOF 8
ENDMDL
MODEL 8
REMARK VINA RESULT:      -6.5      1.263      1.361
REMARK  Name = 
REMARK  11 active torsions:
REMARK  status: ('A' for Active; 'I' for Inactive)
REMARK    1  A    between atoms: C_1  and  C_2
REMARK    2  A    between atoms: N_5  and  C_6
REMARK    3  A    between atoms: C_6  and  C_7
REMARK    4  A    between atoms: C_7  and  O_8
REMARK    5  A    between atoms: C_11  and  C_12
REMARK    6  A    between atoms: N_18  and  C_19
REMARK    7  A    between atoms: C_19  and  C_20
REMARK    8  A    between atoms: C_20  and  C_21
REMARK    9  A    between atoms: C_21  and  N_22
REMARK   10  A    between atoms: N_22  and  C_23
REMARK   11  A    between atoms: N_22  and  C_24
REMARK                            x       y       z     vdW  Elec       q    Type
REMARK                         _______ _______ _______ _____ _____    ______ ____
ROOT
ATOM      1  C   UNL     1      -0.667   9.368  22.300  0.00  0.00    +0.000 C 
ATOM      2  C   UNL     1       0.264   9.120  21.148  0.00  0.00    +0.000 A 
ATOM      3  N   UNL     1       0.351  10.125  20.241  0.00  0.00    +0.000 NA
ATOM      4  C   UNL     1       1.138   9.969  19.155  0.00  0.00    +0.000 A 
ATOM      5  N   UNL     1       1.246  10.952  18.185  0.00  0.00    +0.000 N 
ATOM      6  C   UNL     1       1.857   8.773  19.037  0.00  0.00    +0.000 A 
ATOM      7  N   UNL     1       2.753   8.362  18.092  0.00  0.00    +0.000 NA
ATOM      8  C   UNL     1       3.131   7.139  18.435  0.00  0.00    +0.000 A 
ATOM      9  N   UNL     1       2.528   6.778  19.640  0.00  0.00    +0.000 N 
ATOM     10  C   UNL     1       1.707   7.822  20.028  0.00  0.00    +0.000 A 
ATOM     11  N   UNL     1       0.914   7.926  21.113  0.00  0.00    +0.000 NA
ATOM     12  H   UNL     1       1.944  10.718  17.481  0.00  0.00    +0.000 HD
ENDROOT
BRANCH   8  13
ATOM     13  C   UNL     1       4.095   6.392  17.603  0.00  0.00    +0.000 A 
ATOM     14  C   UNL     1       4.495   6.959  16.377  0.00  0.00    +0.000 A 
ATOM     15  C   UNL     1       5.401   6.308  15.535  0.00  0.00    +0.000 A 
ATOM     16  C   UNL     1       5.934   5.081  15.911  0.00  0.00    +0.000 A 
ATOM     17  C   UNL     1       5.531   4.492  17.107  0.00  0.00    +0.000 A 
ATOM     18  C   UNL     1       4.592   5.128  17.925  0.00  0.00    +0.000 A 
ENDBRANCH   8  13
BRANCH   5  19
ATOM     19  C   UNL     1       1.146  12.351  18.564  0.00  0.00    +0.000 C 
BRANCH  19  20
ATOM     20  C   UNL     1       2.497  13.076  18.570  0.00  0.00    +0.000 C 
BRANCH  20  21
ATOM     21  O   UNL     1       3.304  12.680  17.460  0.00  0.00    +0.000 OA
ATOM     22  H   UNL     1       3.893  13.434  17.275  0.00  0.00    +0.000 HD
ENDBRANCH  20  21
ENDBRANCH  19  20
ENDBRANCH   5  19
BRANCH   9  23
ATOM     23  C   UNL     1       2.621   5.526  20.369  0.00  0.00    +0.000 C 
BRANCH  23  24
ATOM     24  C   UNL     1       1.809   4.340  19.839  0.00  0.00    +0.000 C 
BRANCH  24  25
ATOM     25  C   UNL     1       2.340   2.952  20.211  0.00  0.00    +0.000 C 
BRANCH  25  26
ATOM     26  N   UNL     1       1.951   1.939  19.205  0.00  0.00    +0.000 NA
ATOM     27  C   UNL     1       0.638   2.206  18.603  0.00  0.00    +0.000 C 
ATOM     28  C   UNL     1       2.955   1.857  18.141  0.00  0.00    +0.000 C 
ENDBRANCH  25  26
ENDBRANCH  24  25
ENDBRANCH  23  24
ENDBRANCH   9  23
TORSDOF 8
ENDMDL
MODEL 9
REMARK VINA RESULT:      -6.5      1.510      2.010
REMARK  Name = 
REMARK  11 active torsions:
REMARK  status: ('A' for Active; 'I' for Inactive)
REMARK    1  A    between atoms: C_1  and  C_2
REMARK    2  A    between atoms: N_5  and  C_6
REMARK    3  A    between atoms: C_6  and  C_7
REMARK    4  A    between atoms: C_7  and  O_8
REMARK    5  A    between atoms: C_11  and  C_12
REMARK    6  A    between atoms: N_18  and  C_19
REMARK    7  A    between atoms: C_19  and  C_20
REMARK    8  A    between atoms: C_20  and  C_21
REMARK    9  A    between atoms: C_21  and  N_22
REMARK   10  A    between atoms: N_22  and  C_23
REMARK   11  A    between atoms: N_22  and  C_24
REMARK                            x       y       z     vdW  Elec       q    Type
REMARK                         _______ _______ _______ _____ _____    ______ ____
ROOT
ATOM      1  C   UNL     1      -0.337   8.740  22.057  0.00  0.00    +0.000 C 
ATOM      2  C   UNL     1       0.607   8.578  20.900  0.00  0.00    +0.000 A 
ATOM      3  N   UNL     1       0.555   9.559  19.965  0.00  0.00    +0.000 NA
ATOM      4  C   UNL     1       1.344   9.473  18.872  0.00  0.00    +0.000 A 
ATOM      5  N   UNL     1       1.315  10.431  17.873  0.00  0.00    +0.000 N 
ATOM      6  C   UNL     1       2.209   8.375  18.778  0.00  0.00    +0.000 A 
ATOM      7  N   UNL     1       3.141   8.054  17.832  0.00  0.00    +0.000 NA
ATOM      8  C   UNL     1       3.677   6.901  18.205  0.00  0.00    +0.000 A 
ATOM      9  N   UNL     1       3.138   6.502  19.428  0.00  0.00    +0.000 N 
ATOM     10  C   UNL     1       2.193   7.443  19.798  0.00  0.00    +0.000 A 
ATOM     11  N   UNL     1       1.405   7.477  20.890  0.00  0.00    +0.000 NA
ATOM     12  H   UNL     1       2.030  10.267  17.166  0.00  0.00    +0.000 HD
ENDROOT
BRANCH   8  13
ATOM     13  C   UNL     1       4.720   6.259  17.381  0.00  0.00    +0.000 A 
ATOM     14  C   UNL     1       4.355   5.154  16.587  0.00  0.00    +0.000 A 
ATOM     15  C   UNL     1       5.289   4.493  15.785  0.00  0.00    +0.000 A 
ATOM     16  C   UNL     1       6.606   4.935  15.752  0.00  0.00    +0.000 A 
ATOM     17  C   UNL     1       6.993   6.009  16.550  0.00  0.00    +0.000 A 
ATOM     18  C   UNL     1       6.063   6.640  17.383  0.00  0.00    +0.000 A 
ENDBRANCH   8  13
BRANCH   5  19
ATOM     19  C   UNL     1       1.040  11.817  18.214  0.00  0.00    +0.000 C 
BRANCH  19  20
ATOM     20  C   UNL     1       2.300  12.689  18.272  0.00  0.00    +0.000 C 
BRANCH  20  21
ATOM     21  O   UNL     1       1.973  14.061  18.494  0.00  0.00    +0.000 OA
ATOM     22  H   UNL     1       2.526  14.350  19.242  0.00  0.00    +0.000 HD
ENDBRANCH  20  21
ENDBRANCH  19  20
ENDBRANCH   5  19
BRANCH   9  23
ATOM     23  C   UNL     1       3.398   5.295  20.192  0.00  0.00    +0.000 C 
BRANCH  23  24
ATOM     24  C   UNL     1       2.695   4.011  19.741  0.00  0.00    +0.000 C 
BRANCH  24  25
ATOM     25  C   UNL     1       1.613   4.186  18.670  0.00  0.00    +0.000 C 
BRANCH  25  26
ATOM     26  N   UNL     1       1.312   2.905  17.994  0.00  0.00    +0.000 NA
ATOM     27  C   UNL     1       2.519   2.184  17.571  0.00  0.00    +0.000 C 
ATOM     28  C   UNL     1       0.520   2.034  18.868  0.00  0.00    +0.000 C 
ENDBRANCH  25  26
ENDBRANCH  24  25
ENDBRANCH  23  24
ENDBRANCH   9  23
TORSDOF 8
ENDMDL
