MODEL 1
REMARK VINA RESULT:      -9.1      0.000      0.000
REMARK  Name = 
REMARK  7 active torsions:
REMARK  status: ('A' for Active; 'I' for Inactive)
REMARK    1  A    between atoms: C_2  and  C_3
REMARK    2  A    between atoms: C_6  and  C_7
REMARK    3  A    between atoms: C_7  and  C_8
REMARK    4  A    between atoms: C_7  and  N_21
REMARK    5  A    between atoms: N_12  and  C_13
REMARK    6  A    between atoms: C_13  and  C_14
REMARK    7  A    between atoms: C_14  and  C_15
REMARK                            x       y       z     vdW  Elec       q    Type
REMARK                         _______ _______ _______ _____ _____    ______ ____
ROOT
ATOM      1  C   UNL     1       4.168   5.154  18.319  0.00  0.00    +0.000 C 
ENDROOT
BRANCH   1   2
ATOM      2  N   UNL     1       3.501   3.910  18.885  0.00  0.00    +0.000 NA
ATOM      3  C   UNL     1       3.072   4.168  20.283  0.00  0.00    +0.000 C 
ATOM      4  C   UNL     1       2.696   2.937  21.129  0.00  0.00    +0.000 C 
ATOM      5  C   UNL     1       1.279   2.407  20.949  0.00  0.00    +0.000 C 
ATOM      6  C   UNL     1       0.986   1.935  19.539  0.00  0.00    +0.000 C 
ATOM      7  C   UNL     1       1.008   3.089  18.556  0.00  0.00    +0.000 C 
ATOM      8  C   UNL     1       2.400   3.424  18.013  0.00  0.00    +0.000 C 
ENDBRANCH   1   2
BRANCH   1  12
ATOM      9  C   UNL     1       1.809   8.815  18.793  0.00  0.00    +0.000 A 
ATOM     10  C   UNL     1       1.874   7.868  19.813  0.00  0.00    +0.000 A 
ATOM     11  C   UNL     1       2.671   6.723  19.663  0.00  0.00    +0.000 A 
ATOM     12  C   UNL     1       3.411   6.489  18.481  0.00  0.00    +0.000 A 
ATOM     13  C   UNL     1       3.377   7.480  17.491  0.00  0.00    +0.000 A 
ATOM     14  C   UNL     1       2.589   8.631  17.644  0.00  0.00    +0.000 A 
BRANCH   9  16
ATOM     15  N   UNL     1       0.232  10.871  18.981  0.00  0.00    +0.000 NA
ATOM     16  C   UNL     1       0.925   9.949  18.897  0.00  0.00    +0.000 C 
ENDBRANCH   9  16
ENDBRANCH   1  12
BRANCH   1  17
ATOM     17  C   UNL     1       5.632   5.329  18.679  0.00  0.00    +0.000 A 
ATOM     18  N   UNL     1       6.097   5.068  19.895  0.00  0.00    +0.000 NA
ATOM     19  N   UNL     1       7.390   5.483  19.926  0.00  0.00    +0.000 NA
ATOM     20  N   UNL     1       7.750   5.977  18.759  0.00  0.00    +0.000 NA
ATOM     21  N   UNL     1       6.677   5.842  17.945  0.00  0.00    +0.000 N 
BRANCH  21  22
ATOM     22  C   UNL     1       6.811   6.272  16.557  0.00  0.00    +0.000 C 
BRANCH  22  23
ATOM     23  C   UNL     1       5.891   5.445  15.628  0.00  0.00    +0.000 C 
BRANCH  23  24
ATOM     24  C   UNL     1       6.382   4.868  14.319  0.00  0.00    +0.000 A 
ATOM     25  C   UNL     1       7.508   5.301  13.621  0.00  0.00    +0.000 A 
ATOM     26  C   UNL     1       7.774   4.795  12.340  0.00  0.00    +0.000 A 
ATOM     27  C   UNL     1       6.939   3.837  11.762  0.00  0.00    +0.000 A 
ATOM     28  C   UNL     1       5.866   3.334  12.486  0.00  0.00    +0.000 A 
ATOM     29  C   UNL     1       5.600   3.836  13.758  0.00  0.00    +0.000 A 
ENDBRANCH  23  24
ENDBRANCH  22  23
ENDBRANCH  21  22
ENDBRANCH   1  17
TORSDOF 7
ENDMDL
MODEL 2
REMARK VINA RESULT:      -8.9      0.962      1.349
REMARK  Name = 
REMARK  7 active torsions:
REMARK  status: ('A' for Active; 'I' for Inactive)
REMARK    1  A    between atoms: C_2  and  C_3
REMARK    2  A    between atoms: C_6  and  C_7
REMARK    3  A    between atoms: C_7  and  C_8
REMARK    4  A    between atoms: C_7  and  N_21
REMARK    5  A    between atoms: N_12  and  C_13
REMARK    6  A    between atoms: C_13  and  C_14
REMARK    7  A    between atoms: C_14  and  C_15
REMARK                            x       y       z     vdW  Elec       q    Type
REMARK                         _______ _______ _______ _____ _____    ______ ____
ROOT
ATOM      1  C   UNL     1       4.173   5.273  17.777  0.00  0.00    +0.000 C 
ENDROOT
BRANCH   1   2
ATOM      2  N   UNL     1       3.389   3.970  17.754  0.00  0.00    +0.000 NA
ATOM      3  C   UNL     1       3.836   3.099  18.871  0.00  0.00    +0.000 C 
ATOM      4  C   UNL     1       3.413   1.620  18.807  0.00  0.00    +0.000 C 
ATOM      5  C   UNL     1       2.013   1.300  19.316  0.00  0.00    +0.000 C 
ATOM      6  C   UNL     1       0.914   1.988  18.530  0.00  0.00    +0.000 C 
ATOM      7  C   UNL     1       0.969   3.493  18.708  0.00  0.00    +0.000 C 
ATOM      8  C   UNL     1       1.921   4.204  17.744  0.00  0.00    +0.000 C 
ENDBRANCH   1   2
BRANCH   1  12
ATOM      9  C   UNL     1       1.825   8.720  19.114  0.00  0.00    +0.000 A 
ATOM     10  C   UNL     1       2.014   7.618  19.945  0.00  0.00    +0.000 A 
ATOM     11  C   UNL     1       2.807   6.541  19.519  0.00  0.00    +0.000 A 
ATOM     12  C   UNL     1       3.418   6.535  18.244  0.00  0.00    +0.000 A 
ATOM     13  C   UNL     1       3.262   7.676  17.446  0.00  0.00    +0.000 A 
ATOM     14  C   UNL     1       2.478   8.759  17.876  0.00  0.00    +0.000 A 
BRANCH   9  16
ATOM     15  N   UNL     1       0.219  10.635  19.825  0.00  0.00    +0.000 NA
ATOM     16  C   UNL     1       0.940   9.791  19.502  0.00  0.00    +0.000 C 
ENDBRANCH   9  16
ENDBRANCH   1  12
BRANCH   1  17
ATOM     17  C   UNL     1       5.539   5.199  18.436  0.00  0.00    +0.000 A 
ATOM     18  N   UNL     1       5.748   5.623  19.677  0.00  0.00    +0.000 NA
ATOM     19  N   UNL     1       7.088   5.572  19.896  0.00  0.00    +0.000 NA
ATOM     20  N   UNL     1       7.717   5.110  18.834  0.00  0.00    +0.000 NA
ATOM     21  N   UNL     1       6.758   4.820  17.923  0.00  0.00    +0.000 N 
BRANCH  21  22
ATOM     22  C   UNL     1       7.174   4.242  16.650  0.00  0.00    +0.000 C 
BRANCH  22  23
ATOM     23  C   UNL     1       6.829   5.185  15.473  0.00  0.00    +0.000 C 
BRANCH  23  24
ATOM     24  C   UNL     1       6.645   4.674  14.062  0.00  0.00    +0.000 A 
ATOM     25  C   UNL     1       5.675   3.756  13.659  0.00  0.00    +0.000 A 
ATOM     26  C   UNL     1       5.702   3.238  12.356  0.00  0.00    +0.000 A 
ATOM     27  C   UNL     1       6.673   3.651  11.442  0.00  0.00    +0.000 A 
ATOM     28  C   UNL     1       7.587   4.630  11.806  0.00  0.00    +0.000 A 
ATOM     29  C   UNL     1       7.562   5.146  13.101  0.00  0.00    +0.000 A 
ENDBRANCH  23  24
ENDBRANCH  22  23
ENDBRANCH  21  22
ENDBRANCH   1  17
TORSDOF 7
ENDMDL
MODEL 3
REMARK VINA RESULT:      -8.8      1.464      1.925
REMARK  Name = 
REMARK  7 active torsions:
REMARK  status: ('A' for Active; 'I' for Inactive)
REMARK    1  A    between atoms: C_2  and  C_3
REMARK    2  A    between atoms: C_6  and  C_7
REMARK    3  A    between atoms: C_7  and  C_8
REMARK    4  A    between atoms: C_7  and  N_21
REMARK    5  A    between atoms: N_12  and  C_13
REMARK    6  A    between atoms: C_13  and  C_14
REMARK    7  A    between atoms: C_14  and  C_15
REMARK                            x       y       z     vdW  Elec       q    Type
REMARK                         _______ _______ _______ _____ _____    ______ ____
ROOT
ATOM      1  C   UNL     1       3.896   5.839  17.272  0.00  0.00    +0.000 C 
ENDROOT
BRANCH   1   2
ATOM      2  N   UNL     1       3.642   4.417  17.749  0.00  0.00    +0.000 NA
ATOM      3  C   UNL     1       4.174   4.251  19.125  0.00  0.00    +0.000 C 
ATOM      4  C   UNL     1       4.321   2.807  19.641  0.00  0.00    +0.000 C 
ATOM      5  C   UNL     1       3.061   2.166  20.209  0.00  0.00    +0.000 C 
ATOM      6  C   UNL     1       1.940   2.039  19.198  0.00  0.00    +0.000 C 
ATOM      7  C   UNL     1       1.425   3.400  18.772  0.00  0.00    +0.000 C 
ATOM      8  C   UNL     1       2.212   4.035  17.621  0.00  0.00    +0.000 C 
ENDBRANCH   1   2
BRANCH   1  12
ATOM      9  C   UNL     1       1.516   8.877  19.343  0.00  0.00    +0.000 A 
ATOM     10  C   UNL     1       1.982   7.750  20.018  0.00  0.00    +0.000 A 
ATOM     11  C   UNL     1       2.782   6.810  19.351  0.00  0.00    +0.000 A 
ATOM     12  C   UNL     1       3.122   6.965  17.988  0.00  0.00    +0.000 A 
ATOM     13  C   UNL     1       2.691   8.132  17.343  0.00  0.00    +0.000 A 
ATOM     14  C   UNL     1       1.900   9.080  18.012  0.00  0.00    +0.000 A 
BRANCH   9  16
ATOM     15  N   UNL     1      -0.089  10.562  20.499  0.00  0.00    +0.000 NA
ATOM     16  C   UNL     1       0.619   9.804  19.990  0.00  0.00    +0.000 C 
ENDBRANCH   9  16
ENDBRANCH   1  12
BRANCH   1  17
ATOM     17  C   UNL     1       5.357   6.220  17.110  0.00  0.00    +0.000 A 
ATOM     18  N   UNL     1       5.861   7.327  17.643  0.00  0.00    +0.000 NA
ATOM     19  N   UNL     1       7.131   7.452  17.176  0.00  0.00    +0.000 NA
ATOM     20  N   UNL     1       7.438   6.445  16.384  0.00  0.00    +0.000 NA
ATOM     21  N   UNL     1       6.357   5.631  16.371  0.00  0.00    +0.000 N 
BRANCH  21  22
ATOM     22  C   UNL     1       6.437   4.397  15.597  0.00  0.00    +0.000 C 
BRANCH  22  23
ATOM     23  C   UNL     1       6.798   4.689  14.121  0.00  0.00    +0.000 C 
BRANCH  23  24
ATOM     24  C   UNL     1       6.236   3.871  12.981  0.00  0.00    +0.000 A 
ATOM     25  C   UNL     1       4.899   3.852  12.584  0.00  0.00    +0.000 A 
ATOM     26  C   UNL     1       4.469   2.935  11.615  0.00  0.00    +0.000 A 
ATOM     27  C   UNL     1       5.371   2.054  11.016  0.00  0.00    +0.000 A 
ATOM     28  C   UNL     1       6.719   2.125  11.338  0.00  0.00    +0.000 A 
ATOM     29  C   UNL     1       7.148   3.036  12.301  0.00  0.00    +0.000 A 
ENDBRANCH  23  24
ENDBRANCH  22  23
ENDBRANCH  21  22
ENDBRANCH   1  17
TORSDOF 7
ENDMDL
MODEL 4
REMARK VINA RESULT:      -8.8      0.790      1.483
REMARK  Name = 
REMARK  7 active torsions:
REMARK  status: ('A' for Active; 'I' for Inactive)
REMARK    1  A    between atoms: C_2  and  C_3
REMARK    2  A    between atoms: C_6  and  C_7
REMARK    3  A    between atoms: C_7  and  C_8
REMARK    4  A    between atoms: C_7  and  N_21
REMARK    5  A    between atoms: N_12  and  C_13
REMARK    6  A    between atoms: C_13  and  C_14
REMARK    7  A    between atoms: C_14  and  C_15
REMARK                            x       y       z     vdW  Elec       q    Type
REMARK                         _______ _______ _______ _____ _____    ______ ____
ROOT
ATOM      1  C   UNL     1       4.423   4.712  18.206  0.00  0.00    +0.000 C 
ENDROOT
BRANCH   1   2
ATOM      2  N   UNL     1       3.652   3.550  18.814  0.00  0.00    +0.000 NA
ATOM      3  C   UNL     1       3.243   3.894  20.199  0.00  0.00    +0.000 C 
ATOM      4  C   UNL     1       2.762   2.731  21.088  0.00  0.00    +0.000 C 
ATOM      5  C   UNL     1       1.305   2.316  20.919  0.00  0.00    +0.000 C 
ATOM      6  C   UNL     1       0.977   1.820  19.525  0.00  0.00    +0.000 C 
ATOM      7  C   UNL     1       1.099   2.931  18.501  0.00  0.00    +0.000 C 
ATOM      8  C   UNL     1       2.516   3.126  17.954  0.00  0.00    +0.000 C 
ENDBRANCH   1   2
BRANCH   1  12
ATOM      9  C   UNL     1       2.597   8.692  18.099  0.00  0.00    +0.000 A 
ATOM     10  C   UNL     1       3.562   8.322  17.164  0.00  0.00    +0.000 A 
ATOM     11  C   UNL     1       4.103   7.027  17.184  0.00  0.00    +0.000 A 
ATOM     12  C   UNL     1       3.704   6.076  18.151  0.00  0.00    +0.000 A 
ATOM     13  C   UNL     1       2.693   6.449  19.046  0.00  0.00    +0.000 A 
ATOM     14  C   UNL     1       2.142   7.740  19.020  0.00  0.00    +0.000 A 
BRANCH   9  16
ATOM     15  N   UNL     1       1.720  11.136  18.192  0.00  0.00    +0.000 NA
ATOM     16  C   UNL     1       2.100  10.045  18.147  0.00  0.00    +0.000 C 
ENDBRANCH   9  16
ENDBRANCH   1  12
BRANCH   1  17
ATOM     17  C   UNL     1       5.845   4.883  18.709  0.00  0.00    +0.000 A 
ATOM     18  N   UNL     1       6.113   5.317  19.936  0.00  0.00    +0.000 NA
ATOM     19  N   UNL     1       7.456   5.513  20.005  0.00  0.00    +0.000 NA
ATOM     20  N   UNL     1       8.033   5.196  18.864  0.00  0.00    +0.000 NA
ATOM     21  N   UNL     1       7.047   4.747  18.053  0.00  0.00    +0.000 N 
BRANCH  21  22
ATOM     22  C   UNL     1       7.414   4.279  16.721  0.00  0.00    +0.000 C 
BRANCH  22  23
ATOM     23  C   UNL     1       6.791   5.177  15.625  0.00  0.00    +0.000 C 
BRANCH  23  24
ATOM     24  C   UNL     1       6.516   4.666  14.230  0.00  0.00    +0.000 A 
ATOM     25  C   UNL     1       5.409   3.907  13.853  0.00  0.00    +0.000 A 
ATOM     26  C   UNL     1       5.343   3.357  12.565  0.00  0.00    +0.000 A 
ATOM     27  C   UNL     1       6.361   3.585  11.637  0.00  0.00    +0.000 A 
ATOM     28  C   UNL     1       7.424   4.413  11.973  0.00  0.00    +0.000 A 
ATOM     29  C   UNL     1       7.491   4.959  13.253  0.00  0.00    +0.000 A 
ENDBRANCH  23  24
ENDBRANCH  22  23
ENDBRANCH  21  22
ENDBRANCH   1  17
TORSDOF 7
ENDMDL
MODEL 5
REMARK VINA RESULT:      -8.6      1.333      1.910
REMARK  Name = 
REMARK  7 active torsions:
REMARK  status: ('A' for Active; 'I' for Inactive)
REMARK    1  A    between atoms: C_2  and  C_3
REMARK    2  A    between atoms: C_6  and  C_7
REMARK    3  A    between atoms: C_7  and  C_8
REMARK    4  A    between atoms: C_7  and  N_21
REMARK    5  A    between atoms: N_12  and  C_13
REMARK    6  A    between atoms: C_13  and  C_14
REMARK    7  A    between atoms: C_14  and  C_15
REMARK                            x       y       z     vdW  Elec       q    Type
REMARK                         _______ _______ _______ _____ _____    ______ ____
ROOT
ATOM      1  C   UNL     1       3.747   5.942  17.474  0.00  0.00    +0.000 C 
ENDROOT
BRANCH   1   2
ATOM      2  N   UNL     1       3.534   4.504  17.923  0.00  0.00    +0.000 NA
ATOM      3  C   UNL     1       4.001   4.345  19.323  0.00  0.00    +0.000 C 
ATOM      4  C   UNL     1       4.188   2.903  19.831  0.00  0.00    +0.000 C 
ATOM      5  C   UNL     1       2.931   2.198  20.327  0.00  0.00    +0.000 C 
ATOM      6  C   UNL     1       1.870   2.033  19.257  0.00  0.00    +0.000 C 
ATOM      7  C   UNL     1       1.316   3.375  18.819  0.00  0.00    +0.000 C 
ATOM      8  C   UNL     1       2.131   4.059  17.717  0.00  0.00    +0.000 C 
ENDBRANCH   1   2
BRANCH   1  12
ATOM      9  C   UNL     1       1.475   9.171  19.372  0.00  0.00    +0.000 A 
ATOM     10  C   UNL     1       1.790   9.219  18.015  0.00  0.00    +0.000 A 
ATOM     11  C   UNL     1       2.478   8.155  17.413  0.00  0.00    +0.000 A 
ATOM     12  C   UNL     1       2.882   7.022  18.157  0.00  0.00    +0.000 A 
ATOM     13  C   UNL     1       2.507   6.968  19.506  0.00  0.00    +0.000 A 
ATOM     14  C   UNL     1       1.809   8.027  20.107  0.00  0.00    +0.000 A 
BRANCH   9  16
ATOM     15  N   UNL     1       0.330  11.195  20.532  0.00  0.00    +0.000 NA
ATOM     16  C   UNL     1       0.849  10.296  20.022  0.00  0.00    +0.000 C 
ENDBRANCH   9  16
ENDBRANCH   1  12
BRANCH   1  17
ATOM     17  C   UNL     1       5.194   6.392  17.398  0.00  0.00    +0.000 A 
ATOM     18  N   UNL     1       5.554   7.653  17.611  0.00  0.00    +0.000 NA
ATOM     19  N   UNL     1       6.874   7.748  17.305  0.00  0.00    +0.000 NA
ATOM     20  N   UNL     1       7.351   6.580  16.925  0.00  0.00    +0.000 NA
ATOM     21  N   UNL     1       6.325   5.702  17.027  0.00  0.00    +0.000 N 
BRANCH  21  22
ATOM     22  C   UNL     1       6.586   4.303  16.707  0.00  0.00    +0.000 C 
BRANCH  22  23
ATOM     23  C   UNL     1       5.726   3.838  15.507  0.00  0.00    +0.000 C 
BRANCH  23  24
ATOM     24  C   UNL     1       6.177   4.022  14.077  0.00  0.00    +0.000 A 
ATOM     25  C   UNL     1       5.700   3.302  12.982  0.00  0.00    +0.000 A 
ATOM     26  C   UNL     1       6.307   3.452  11.727  0.00  0.00    +0.000 A 
ATOM     27  C   UNL     1       7.371   4.339  11.550  0.00  0.00    +0.000 A 
ATOM     28  C   UNL     1       7.795   5.126  12.612  0.00  0.00    +0.000 A 
ATOM     29  C   UNL     1       7.192   4.978  13.859  0.00  0.00    +0.000 A 
ENDBRANCH  23  24
ENDBRANCH  22  23
ENDBRANCH  21  22
ENDBRANCH   1  17
TORSDOF 7
ENDMDL
MODEL 6
REMARK VINA RESULT:      -8.5      1.056      1.671
REMARK  Name = 
REMARK  7 active torsions:
REMARK  status: ('A' for Active; 'I' for Inactive)
REMARK    1  A    between atoms: C_2  and  C_3
REMARK    2  A    between atoms: C_6  and  C_7
REMARK    3  A    between atoms: C_7  and  C_8
REMARK    4  A    between atoms: C_7  and  N_21
REMARK    5  A    between atoms: N_12  and  C_13
REMARK    6  A    between atoms: C_13  and  C_14
REMARK    7  A    between atoms: C_14  and  C_15
REMARK                            x       y       z     vdW  Elec       q    Type
REMARK                         _______ _______ _______ _____ _____    ______ ____
ROOT
ATOM      1  C   UNL     1       3.729   5.592  17.750  0.00  0.00    +0.000 C 
ENDROOT
BRANCH   1   2
ATOM      2  N   UNL     1       3.027   4.244  17.686  0.00  0.00    +0.000 NA
ATOM      3  C   UNL     1       3.746   3.267  18.542  0.00  0.00    +0.000 C 
ATOM      4  C   UNL     1       3.397   1.781  18.338  0.00  0.00    +0.000 C 
ATOM      5  C   UNL     1       2.155   1.278  19.065  0.00  0.00    +0.000 C 
ATOM      6  C   UNL     1       0.880   1.976  18.633  0.00  0.00    +0.000 C 
ATOM      7  C   UNL     1       0.893   3.440  19.025  0.00  0.00    +0.000 C 
ATOM      8  C   UNL     1       1.581   4.355  18.009  0.00  0.00    +0.000 C 
ENDBRANCH   1   2
BRANCH   1  12
ATOM      9  C   UNL     1       1.638   9.090  19.355  0.00  0.00    +0.000 A 
ATOM     10  C   UNL     1       2.057   9.054  18.026  0.00  0.00    +0.000 A 
ATOM     11  C   UNL     1       2.684   7.908  17.515  0.00  0.00    +0.000 A 
ATOM     12  C   UNL     1       2.923   6.774  18.327  0.00  0.00    +0.000 A 
ATOM     13  C   UNL     1       2.444   6.809  19.643  0.00  0.00    +0.000 A 
ATOM     14  C   UNL     1       1.806   7.951  20.152  0.00  0.00    +0.000 A 
BRANCH   9  16
ATOM     15  N   UNL     1       0.633  11.269  20.352  0.00  0.00    +0.000 NA
ATOM     16  C   UNL     1       1.075  10.294  19.917  0.00  0.00    +0.000 C 
ENDBRANCH   9  16
ENDBRANCH   1  12
BRANCH   1  17
ATOM     17  C   UNL     1       5.129   5.570  18.337  0.00  0.00    +0.000 A 
ATOM     18  N   UNL     1       5.351   5.334  19.625  0.00  0.00    +0.000 NA
ATOM     19  N   UNL     1       6.674   5.548  19.848  0.00  0.00    +0.000 NA
ATOM     20  N   UNL     1       7.285   5.894  18.733  0.00  0.00    +0.000 NA
ATOM     21  N   UNL     1       6.344   5.861  17.760  0.00  0.00    +0.000 N 
BRANCH  21  22
ATOM     22  C   UNL     1       6.759   6.161  16.394  0.00  0.00    +0.000 C 
BRANCH  22  23
ATOM     23  C   UNL     1       7.278   4.890  15.680  0.00  0.00    +0.000 C 
BRANCH  23  24
ATOM     24  C   UNL     1       6.863   4.537  14.270  0.00  0.00    +0.000 A 
ATOM     25  C   UNL     1       5.789   3.717  13.927  0.00  0.00    +0.000 A 
ATOM     26  C   UNL     1       5.599   3.335  12.591  0.00  0.00    +0.000 A 
ATOM     27  C   UNL     1       6.456   3.791  11.588  0.00  0.00    +0.000 A 
ATOM     28  C   UNL     1       7.474   4.680  11.906  0.00  0.00    +0.000 A 
ATOM     29  C   UNL     1       7.665   5.060  13.233  0.00  0.00    +0.000 A 
ENDBRANCH  23  24
ENDBRANCH  22  23
ENDBRANCH  21  22
ENDBRANCH   1  17
TORSDOF 7
ENDMDL
MODEL 7
REMARK VINA RESULT:      -8.4      1.599      2.233
REMARK  Name = 
REMARK  7 active torsions:
REMARK  status: ('A' for Active; 'I' for Inactive)
REMARK    1  A    between atoms: C_2  and  C_3
REMARK    2  A    between atoms: C_6  and  C_7
REMARK    3  A    between atoms: C_7  and  C_8
REMARK    4  A    between atoms: C_7  and  N_21
REMARK    5  A    between atoms: N_12  and  C_13
REMARK    6  A    between atoms: C_13  and  C_14
REMARK    7  A    between atoms: C_14  and  C_15
REMARK                            x       y       z     vdW  Elec       q    Type
REMARK                         _______ _______ _______ _____ _____    ______ ____
ROOT
ATOM      1  C   UNL     1       3.259   6.002  17.662  0.00  0.00    +0.000 C 
ENDROOT
BRANCH   1   2
ATOM      2  N   UNL     1       3.020   4.724  18.451  0.00  0.00    +0.000 NA
ATOM      3  C   UNL     1       1.671   4.189  18.134  0.00  0.00    +0.000 C 
ATOM      4  C   UNL     1       1.116   3.108  19.081  0.00  0.00    +0.000 C 
ATOM      5  C   UNL     1       1.582   1.681  18.816  0.00  0.00    +0.000 C 
ATOM      6  C   UNL     1       3.080   1.500  18.956  0.00  0.00    +0.000 C 
ATOM      7  C   UNL     1       3.831   2.271  17.888  0.00  0.00    +0.000 C 
ATOM      8  C   UNL     1       4.108   3.733  18.247  0.00  0.00    +0.000 C 
ENDBRANCH   1   2
BRANCH   1  12
ATOM      9  C   UNL     1       1.308   9.556  19.321  0.00  0.00    +0.000 A 
ATOM     10  C   UNL     1       1.604   8.460  20.129  0.00  0.00    +0.000 A 
ATOM     11  C   UNL     1       2.271   7.348  19.592  0.00  0.00    +0.000 A 
ATOM     12  C   UNL     1       2.644   7.299  18.228  0.00  0.00    +0.000 A 
ATOM     13  C   UNL     1       2.388   8.434  17.447  0.00  0.00    +0.000 A 
ATOM     14  C   UNL     1       1.731   9.552  17.986  0.00  0.00    +0.000 A 
BRANCH   9  16
ATOM     15  N   UNL     1      -0.052  11.559  20.264  0.00  0.00    +0.000 NA
ATOM     16  C   UNL     1       0.544  10.665  19.838  0.00  0.00    +0.000 C 
ENDBRANCH   9  16
ENDBRANCH   1  12
BRANCH   1  17
ATOM     17  C   UNL     1       4.695   6.242  17.232  0.00  0.00    +0.000 A 
ATOM     18  N   UNL     1       5.464   7.156  17.813  0.00  0.00    +0.000 NA
ATOM     19  N   UNL     1       6.613   7.229  17.092  0.00  0.00    +0.000 NA
ATOM     20  N   UNL     1       6.589   6.374  16.089  0.00  0.00    +0.000 NA
ATOM     21  N   UNL     1       5.416   5.706  16.189  0.00  0.00    +0.000 N 
BRANCH  21  22
ATOM     22  C   UNL     1       5.142   4.652  15.219  0.00  0.00    +0.000 C 
BRANCH  22  23
ATOM     23  C   UNL     1       6.000   4.834  13.944  0.00  0.00    +0.000 C 
BRANCH  23  24
ATOM     24  C   UNL     1       5.988   3.826  12.818  0.00  0.00    +0.000 A 
ATOM     25  C   UNL     1       4.844   3.278  12.239  0.00  0.00    +0.000 A 
ATOM     26  C   UNL     1       4.961   2.235  11.310  0.00  0.00    +0.000 A 
ATOM     27  C   UNL     1       6.215   1.753  10.930  0.00  0.00    +0.000 A 
ATOM     28  C   UNL     1       7.363   2.352  11.432  0.00  0.00    +0.000 A 
ATOM     29  C   UNL     1       7.248   3.388  12.356  0.00  0.00    +0.000 A 
ENDBRANCH  23  24
ENDBRANCH  22  23
ENDBRANCH  21  22
ENDBRANCH   1  17
TORSDOF 7
ENDMDL
MODEL 8
REMARK VINA RESULT:      -8.4      4.807      8.413
REMARK  Name = 
REMARK  7 active torsions:
REMARK  status: ('A' for Active; 'I' for Inactive)
REMARK    1  A    between atoms: C_2  and  C_3
REMARK    2  A    between atoms: C_6  and  C_7
REMARK    3  A    between atoms: C_7  and  C_8
REMARK    4  A    between atoms: C_7  and  N_21
REMARK    5  A    between atoms: N_12  and  C_13
REMARK    6  A    between atoms: C_13  and  C_14
REMARK    7  A    between atoms: C_14  and  C_15
REMARK                            x       y       z     vdW  Elec       q    Type
REMARK                         _______ _______ _______ _____ _____    ______ ____
ROOT
ATOM      1  C   UNL     1       0.095  11.809  20.357  0.00  0.00    +0.000 C 
ENDROOT
BRANCH   1   2
ATOM      2  N   UNL     1       1.422  12.400  19.907  0.00  0.00    +0.000 NA
ATOM      3  C   UNL     1       1.210  13.239  18.701  0.00  0.00    +0.000 C 
ATOM      4  C   UNL     1       2.468  13.636  17.904  0.00  0.00    +0.000 C 
ATOM      5  C   UNL     1       3.240  14.841  18.426  0.00  0.00    +0.000 C 
ATOM      6  C   UNL     1       3.788  14.647  19.826  0.00  0.00    +0.000 C 
ATOM      7  C   UNL     1       2.671  14.535  20.845  0.00  0.00    +0.000 C 
ATOM      8  C   UNL     1       2.113  13.118  21.010  0.00  0.00    +0.000 C 
ENDBRANCH   1   2
BRANCH   1  12
ATOM      9  C   UNL     1      -2.515  10.617  17.047  0.00  0.00    +0.000 A 
ATOM     10  C   UNL     1      -1.311   9.956  17.282  0.00  0.00    +0.000 A 
ATOM     11  C   UNL     1      -0.509  10.320  18.374  0.00  0.00    +0.000 A 
ATOM     12  C   UNL     1      -0.884  11.366  19.250  0.00  0.00    +0.000 A 
ATOM     13  C   UNL     1      -2.124  11.979  19.029  0.00  0.00    +0.000 A 
ATOM     14  C   UNL     1      -2.933  11.608  17.943  0.00  0.00    +0.000 A 
BRANCH   9  16
ATOM     15  N   UNL     1      -3.925  10.087  14.930  0.00  0.00    +0.000 NA
ATOM     16  C   UNL     1      -3.304  10.315  15.878  0.00  0.00    +0.000 C 
ENDBRANCH   9  16
ENDBRANCH   1  12
BRANCH   1  17
ATOM     17  C   UNL     1       0.188  10.746  21.437  0.00  0.00    +0.000 A 
ATOM     18  N   UNL     1      -0.257  10.952  22.671  0.00  0.00    +0.000 NA
ATOM     19  N   UNL     1       0.124   9.881  23.417  0.00  0.00    +0.000 NA
ATOM     20  N   UNL     1       0.777   9.008  22.678  0.00  0.00    +0.000 NA
ATOM     21  N   UNL     1       0.783   9.505  21.419  0.00  0.00    +0.000 N 
BRANCH  21  22
ATOM     22  C   UNL     1       1.409   8.708  20.370  0.00  0.00    +0.000 C 
BRANCH  22  23
ATOM     23  C   UNL     1       1.856   7.329  20.911  0.00  0.00    +0.000 C 
BRANCH  23  24
ATOM     24  C   UNL     1       1.871   6.093  20.042  0.00  0.00    +0.000 A 
ATOM     25  C   UNL     1       2.348   6.034  18.733  0.00  0.00    +0.000 A 
ATOM     26  C   UNL     1       2.165   4.870  17.974  0.00  0.00    +0.000 A 
ATOM     27  C   UNL     1       1.535   3.751  18.521  0.00  0.00    +0.000 A 
ATOM     28  C   UNL     1       1.138   3.768  19.851  0.00  0.00    +0.000 A 
ATOM     29  C   UNL     1       1.318   4.924  20.607  0.00  0.00    +0.000 A 
ENDBRANCH  23  24
ENDBRANCH  22  23
ENDBRANCH  21  22
ENDBRANCH   1  17
TORSDOF 7
ENDMDL
MODEL 9
REMARK VINA RESULT:      -8.4      1.577      2.229
REMARK  Name = 
REMARK  7 active torsions:
REMARK  status: ('A' for Active; 'I' for Inactive)
REMARK    1  A    between atoms: C_2  and  C_3
REMARK    2  A    between atoms: C_6  and  C_7
REMARK    3  A    between atoms: C_7  and  C_8
REMARK    4  A    between atoms: C_7  and  N_21
REMARK    5  A    between atoms: N_12  and  C_13
REMARK    6  A    between atoms: C_13  and  C_14
REMARK    7  A    between atoms: C_14  and  C_15
REMARK                            x       y       z     vdW  Elec       q    Type
REMARK                         _______ _______ _______ _____ _____    ______ ____
ROOT
ATOM      1  C   UNL     1       2.703   6.370  18.069  0.00  0.00    +0.000 C 
ENDROOT
BRANCH   1   2
ATOM      2  N   UNL     1       2.359   5.172  18.941  0.00  0.00    +0.000 NA
ATOM      3  C   UNL     1       1.706   4.126  18.114  0.00  0.00    +0.000 C 
ATOM      4  C   UNL     1       0.981   2.998  18.872  0.00  0.00    +0.000 C 
ATOM      5  C   UNL     1       1.856   1.852  19.367  0.00  0.00    +0.000 C 
ATOM      6  C   UNL     1       2.915   2.287  20.361  0.00  0.00    +0.000 C 
ATOM      7  C   UNL     1       3.939   3.197  19.713  0.00  0.00    +0.000 C 
ATOM      8  C   UNL     1       3.541   4.675  19.693  0.00  0.00    +0.000 C 
ENDBRANCH   1   2
BRANCH   1  12
ATOM      9  C   UNL     1       0.976  10.160  19.428  0.00  0.00    +0.000 A 
ATOM     10  C   UNL     1       1.204   9.115  20.322  0.00  0.00    +0.000 A 
ATOM     11  C   UNL     1       1.801   7.925  19.879  0.00  0.00    +0.000 A 
ATOM     12  C   UNL     1       2.169   7.744  18.526  0.00  0.00    +0.000 A 
ATOM     13  C   UNL     1       1.984   8.826  17.656  0.00  0.00    +0.000 A 
ATOM     14  C   UNL     1       1.397  10.022  18.100  0.00  0.00    +0.000 A 
BRANCH   9  16
ATOM     15  N   UNL     1      -0.262  12.307  20.207  0.00  0.00    +0.000 NA
ATOM     16  C   UNL     1       0.283  11.352  19.851  0.00  0.00    +0.000 C 
ENDBRANCH   9  16
ENDBRANCH   1  12
BRANCH   1  17
ATOM     17  C   UNL     1       4.160   6.479  17.657  0.00  0.00    +0.000 A 
ATOM     18  N   UNL     1       4.907   7.531  17.973  0.00  0.00    +0.000 NA
ATOM     19  N   UNL     1       6.090   7.391  17.320  0.00  0.00    +0.000 NA
ATOM     20  N   UNL     1       6.108   6.274  16.622  0.00  0.00    +0.000 NA
ATOM     21  N   UNL     1       4.927   5.659  16.861  0.00  0.00    +0.000 N 
BRANCH  21  22
ATOM     22  C   UNL     1       4.692   4.359  16.241  0.00  0.00    +0.000 C 
BRANCH  22  23
ATOM     23  C   UNL     1       5.989   3.806  15.604  0.00  0.00    +0.000 C 
BRANCH  23  24
ATOM     24  C   UNL     1       6.319   4.017  14.144  0.00  0.00    +0.000 A 
ATOM     25  C   UNL     1       5.748   3.320  13.080  0.00  0.00    +0.000 A 
ATOM     26  C   UNL     1       6.248   3.493  11.782  0.00  0.00    +0.000 A 
ATOM     27  C   UNL     1       7.296   4.380  11.532  0.00  0.00    +0.000 A 
ATOM     28  C   UNL     1       7.812   5.145  12.569  0.00  0.00    +0.000 A 
ATOM     29  C   UNL     1       7.316   4.974  13.860  0.00  0.00    +0.000 A 
ENDBRANCH  23  24
ENDBRANCH  22  23
ENDBRANCH  21  22
ENDBRANCH   1  17
TORSDOF 7
ENDMDL
