MODEL 1
REMARK VINA RESULT:      -8.3      0.000      0.000
REMARK  Name = 
REMARK  6 active torsions:
REMARK  status: ('A' for Active; 'I' for Inactive)
REMARK    1  A    between atoms: C_1  and  C_2
REMARK    2  A    between atoms: C_2  and  C_3
REMARK    3  A    between atoms: C_7  and  C_8
REMARK    4  A    between atoms: C_11  and  C_12
REMARK    5  A    between atoms: C_24  and  C_25
REMARK    6  A    between atoms: C_26  and  C_27
REMARK                            x       y       z     vdW  Elec       q    Type
REMARK                         _______ _______ _______ _____ _____    ______ ____
ROOT
ATOM      1  C   UNL     1      -1.068  11.117  22.073  0.00  0.00    +0.000 A 
ATOM      2  N   UNL     1      -0.651  11.059  23.359  0.00  0.00    +0.000 NA
ATOM      3  C   UNL     1       0.226  10.099  23.661  0.00  0.00    +0.000 A 
ATOM      4  N   UNL     1       0.730   9.215  22.799  0.00  0.00    +0.000 NA
ATOM      5  C   UNL     1       0.311   9.286  21.505  0.00  0.00    +0.000 A 
ATOM      6  C   UNL     1      -0.633  10.224  21.092  0.00  0.00    +0.000 A 
ENDROOT
BRANCH   5   7
ATOM      7  C   UNL     1       1.012   8.307  20.635  0.00  0.00    +0.000 A 
ATOM      8  C   UNL     1       1.164   6.979  21.062  0.00  0.00    +0.000 A 
ATOM      9  C   UNL     1       1.968   6.077  20.364  0.00  0.00    +0.000 A 
ATOM     10  C   UNL     1       2.551   6.421  19.137  0.00  0.00    +0.000 A 
ATOM     11  C   UNL     1       2.379   7.730  18.673  0.00  0.00    +0.000 A 
ATOM     12 CL   UNL     1       3.031   8.327  17.183  0.00  0.00    +0.000 Cl
ATOM     13  C   UNL     1       1.653   8.660  19.436  0.00  0.00    +0.000 A 
BRANCH  10  14
ATOM     14  C   UNL     1       3.500   5.474  18.487  0.00  0.00    +0.000 C 
ATOM     15  O   UNL     1       4.688   5.791  18.441  0.00  0.00    +0.000 OA
ATOM     16  N   UNL     1       3.089   4.219  18.049  0.00  0.00    +0.000 N 
ATOM     17  C   UNL     1       4.114   3.200  17.837  0.00  0.00    +0.000 C 
ATOM     18  C   UNL     1       3.815   2.010  18.747  0.00  0.00    +0.000 C 
ATOM     19  N   UNL     1       2.446   1.544  18.609  0.00  0.00    +0.000 N 
ATOM     20  C   UNL     1       1.395   2.389  18.339  0.00  0.00    +0.000 C 
ATOM     21  O   UNL     1       0.240   1.986  18.457  0.00  0.00    +0.000 OA
ATOM     22  C   UNL     1       1.730   3.763  17.722  0.00  0.00    +0.000 C 
ATOM     23  H   UNL     1       2.178   0.661  19.028  0.00  0.00    +0.000 HD
ENDBRANCH  10  14
ENDBRANCH   5   7
BRANCH   1  25
ATOM     24  C   UNL     1      -1.811  13.433  22.667  0.00  0.00    +0.000 C 
ATOM     25  C   UNL     1      -2.045  12.228  21.774  0.00  0.00    +0.000 C 
ENDBRANCH   1  25
BRANCH   6  26
ATOM     26  C   UNL     1      -1.141  10.292  19.746  0.00  0.00    +0.000 C 
ATOM     27  C   UNL     1      -1.639  10.328  18.651  0.00  0.00    +0.000 C 
BRANCH  27  28
ATOM     28  C   UNL     1      -2.319  10.346  17.394  0.00  0.00    +0.000 A 
ATOM     29  C   UNL     1      -3.453  11.127  17.197  0.00  0.00    +0.000 A 
ATOM     30  C   UNL     1      -4.110  11.088  15.969  0.00  0.00    +0.000 A 
ATOM     31  C   UNL     1      -3.610  10.262  14.967  0.00  0.00    +0.000 A 
ATOM     32  N   UNL     1      -4.219  10.231  13.715  0.00  0.00    +0.000 N 
ATOM     33  N   UNL     1      -2.514   9.507  15.125  0.00  0.00    +0.000 NA
ATOM     34  C   UNL     1      -1.893   9.562  16.333  0.00  0.00    +0.000 A 
ATOM     35  H   UNL     1      -5.214  10.053  13.775  0.00  0.00    +0.000 HD
ATOM     36  H   UNL     1      -3.734   9.523  13.167  0.00  0.00    +0.000 HD
ENDBRANCH  27  28
ENDBRANCH   6  26
TORSDOF 5
ENDMDL
MODEL 2
REMARK VINA RESULT:      -8.1      1.754      2.840
REMARK  Name = 
REMARK  6 active torsions:
REMARK  status: ('A' for Active; 'I' for Inactive)
REMARK    1  A    between atoms: C_1  and  C_2
REMARK    2  A    between atoms: C_2  and  C_3
REMARK    3  A    between atoms: C_7  and  C_8
REMARK    4  A    between atoms: C_11  and  C_12
REMARK    5  A    between atoms: C_24  and  C_25
REMARK    6  A    between atoms: C_26  and  C_27
REMARK                            x       y       z     vdW  Elec       q    Type
REMARK                         _______ _______ _______ _____ _____    ______ ____
ROOT
ATOM      1  C   UNL     1      -0.278  10.499  21.907  0.00  0.00    +0.000 A 
ATOM      2  N   UNL     1       0.312  10.418  23.123  0.00  0.00    +0.000 NA
ATOM      3  C   UNL     1       1.209   9.443  23.289  0.00  0.00    +0.000 A 
ATOM      4  N   UNL     1       1.578   8.566  22.354  0.00  0.00    +0.000 NA
ATOM      5  C   UNL     1       0.985   8.661  21.132  0.00  0.00    +0.000 A 
ATOM      6  C   UNL     1       0.006   9.615  20.864  0.00  0.00    +0.000 A 
ENDROOT
BRANCH   5   7
ATOM      7  C   UNL     1       1.546   7.687  20.160  0.00  0.00    +0.000 A 
ATOM      8  C   UNL     1       1.507   6.314  20.448  0.00  0.00    +0.000 A 
ATOM      9  C   UNL     1       2.179   5.383  19.656  0.00  0.00    +0.000 A 
ATOM     10  C   UNL     1       2.813   5.764  18.466  0.00  0.00    +0.000 A 
ATOM     11  C   UNL     1       2.830   7.126  18.138  0.00  0.00    +0.000 A 
ATOM     12 CL   UNL     1       3.570   7.773  16.712  0.00  0.00    +0.000 Cl
ATOM     13  C   UNL     1       2.238   8.066  18.998  0.00  0.00    +0.000 A 
BRANCH  10  14
ATOM     14  C   UNL     1       3.622   4.765  17.714  0.00  0.00    +0.000 C 
ATOM     15  O   UNL     1       3.024   3.865  17.127  0.00  0.00    +0.000 OA
ATOM     16  N   UNL     1       5.000   4.902  17.575  0.00  0.00    +0.000 N 
ATOM     17  C   UNL     1       5.653   4.167  16.493  0.00  0.00    +0.000 C 
ATOM     18  C   UNL     1       6.344   5.169  15.571  0.00  0.00    +0.000 C 
ATOM     19  N   UNL     1       7.205   6.085  16.301  0.00  0.00    +0.000 N 
ATOM     20  C   UNL     1       6.919   6.518  17.575  0.00  0.00    +0.000 C 
ATOM     21  O   UNL     1       7.549   7.458  18.057  0.00  0.00    +0.000 OA
ATOM     22  C   UNL     1       5.932   5.675  18.407  0.00  0.00    +0.000 C 
ATOM     23  H   UNL     1       7.844   6.680  15.787  0.00  0.00    +0.000 HD
ENDBRANCH  10  14
ENDBRANCH   5   7
BRANCH   1  25
ATOM     24  C   UNL     1      -2.074  11.832  23.033  0.00  0.00    +0.000 C 
ATOM     25  C   UNL     1      -1.272  11.625  21.761  0.00  0.00    +0.000 C 
ENDBRANCH   1  25
BRANCH   6  26
ATOM     26  C   UNL     1      -0.682   9.709  19.602  0.00  0.00    +0.000 C 
ATOM     27  C   UNL     1      -1.314   9.833  18.586  0.00  0.00    +0.000 C 
BRANCH  27  28
ATOM     28  C   UNL     1      -2.129  10.039  17.429  0.00  0.00    +0.000 A 
ATOM     29  C   UNL     1      -3.288  10.805  17.490  0.00  0.00    +0.000 A 
ATOM     30  C   UNL     1      -4.076  10.951  16.350  0.00  0.00    +0.000 A 
ATOM     31  C   UNL     1      -3.678  10.320  15.175  0.00  0.00    +0.000 A 
ATOM     32  N   UNL     1      -4.421  10.480  14.008  0.00  0.00    +0.000 N 
ATOM     33  N   UNL     1      -2.561   9.586  15.086  0.00  0.00    +0.000 NA
ATOM     34  C   UNL     1      -1.812   9.458  16.212  0.00  0.00    +0.000 A 
ATOM     35  H   UNL     1      -5.401  10.262  14.143  0.00  0.00    +0.000 HD
ATOM     36  H   UNL     1      -3.990   9.889  13.300  0.00  0.00    +0.000 HD
ENDBRANCH  27  28
ENDBRANCH   6  26
TORSDOF 5
ENDMDL
MODEL 3
REMARK VINA RESULT:      -8.1      1.159      1.584
REMARK  Name = 
REMARK  6 active torsions:
REMARK  status: ('A' for Active; 'I' for Inactive)
REMARK    1  A    between atoms: C_1  and  C_2
REMARK    2  A    between atoms: C_2  and  C_3
REMARK    3  A    between atoms: C_7  and  C_8
REMARK    4  A    between atoms: C_11  and  C_12
REMARK    5  A    between atoms: C_24  and  C_25
REMARK    6  A    between atoms: C_26  and  C_27
REMARK                            x       y       z     vdW  Elec       q    Type
REMARK                         _______ _______ _______ _____ _____    ______ ____
ROOT
ATOM      1  C   UNL     1      -1.006  11.021  21.922  0.00  0.00    +0.000 A 
ATOM      2  N   UNL     1      -0.588  11.007  23.209  0.00  0.00    +0.000 NA
ATOM      3  C   UNL     1       0.386  10.146  23.512  0.00  0.00    +0.000 A 
ATOM      4  N   UNL     1       0.985   9.323  22.650  0.00  0.00    +0.000 NA
ATOM      5  C   UNL     1       0.563   9.351  21.355  0.00  0.00    +0.000 A 
ATOM      6  C   UNL     1      -0.475  10.182  20.941  0.00  0.00    +0.000 A 
ENDROOT
BRANCH   5   7
ATOM      7  C   UNL     1       1.367   8.456  20.484  0.00  0.00    +0.000 A 
ATOM      8  C   UNL     1       1.653   8.839  19.165  0.00  0.00    +0.000 A 
ATOM      9  C   UNL     1       2.245   7.956  18.261  0.00  0.00    +0.000 A 
ATOM     10  C   UNL     1       2.698   6.694  18.668  0.00  0.00    +0.000 A 
ATOM     11  C   UNL     1       2.458   6.306  19.992  0.00  0.00    +0.000 A 
ATOM     12 CL   UNL     1       2.943   4.784  20.662  0.00  0.00    +0.000 Cl
ATOM     13  C   UNL     1       1.769   7.164  20.865  0.00  0.00    +0.000 A 
BRANCH  10  14
ATOM     14  C   UNL     1       3.210   5.737  17.649  0.00  0.00    +0.000 C 
ATOM     15  O   UNL     1       4.250   6.026  17.058  0.00  0.00    +0.000 OA
ATOM     16  N   UNL     1       2.609   4.498  17.446  0.00  0.00    +0.000 N 
ATOM     17  C   UNL     1       3.390   3.459  16.779  0.00  0.00    +0.000 C 
ATOM     18  C   UNL     1       3.514   2.262  17.720  0.00  0.00    +0.000 C 
ATOM     19  N   UNL     1       2.224   1.830  18.231  0.00  0.00    +0.000 N 
ATOM     20  C   UNL     1       1.191   2.704  18.481  0.00  0.00    +0.000 C 
ATOM     21  O   UNL     1       0.211   2.326  19.120  0.00  0.00    +0.000 OA
ATOM     22  C   UNL     1       1.241   4.079  17.785  0.00  0.00    +0.000 C 
ATOM     23  H   UNL     1       2.156   0.947  18.723  0.00  0.00    +0.000 HD
ENDBRANCH  10  14
ENDBRANCH   5   7
BRANCH   1  25
ATOM     24  C   UNL     1      -2.977  12.268  22.835  0.00  0.00    +0.000 C 
ATOM     25  C   UNL     1      -2.097  12.021  21.623  0.00  0.00    +0.000 C 
ENDBRANCH   1  25
BRANCH   6  26
ATOM     26  C   UNL     1      -0.985  10.198  19.594  0.00  0.00    +0.000 C 
ATOM     27  C   UNL     1      -1.487  10.203  18.500  0.00  0.00    +0.000 C 
BRANCH  27  28
ATOM     28  C   UNL     1      -2.172  10.204  17.245  0.00  0.00    +0.000 A 
ATOM     29  C   UNL     1      -1.768   9.380  16.201  0.00  0.00    +0.000 A 
ATOM     30  C   UNL     1      -2.438   9.437  14.981  0.00  0.00    +0.000 A 
ATOM     31  C   UNL     1      -3.500  10.324  14.841  0.00  0.00    +0.000 A 
ATOM     32  N   UNL     1      -4.217  10.376  13.648  0.00  0.00    +0.000 N 
ATOM     33  N   UNL     1      -3.918  11.122  15.833  0.00  0.00    +0.000 NA
ATOM     34  C   UNL     1      -3.247  11.047  17.012  0.00  0.00    +0.000 A 
ATOM     35  H   UNL     1      -3.616  10.506  12.842  0.00  0.00    +0.000 HD
ATOM     36  H   UNL     1      -4.898  11.127  13.744  0.00  0.00    +0.000 HD
ENDBRANCH  27  28
ENDBRANCH   6  26
TORSDOF 5
ENDMDL
MODEL 4
REMARK VINA RESULT:      -8.0      4.571      9.441
REMARK  Name = 
REMARK  6 active torsions:
REMARK  status: ('A' for Active; 'I' for Inactive)
REMARK    1  A    between atoms: C_1  and  C_2
REMARK    2  A    between atoms: C_2  and  C_3
REMARK    3  A    between atoms: C_7  and  C_8
REMARK    4  A    between atoms: C_11  and  C_12
REMARK    5  A    between atoms: C_24  and  C_25
REMARK    6  A    between atoms: C_26  and  C_27
REMARK                            x       y       z     vdW  Elec       q    Type
REMARK                         _______ _______ _______ _____ _____    ______ ____
ROOT
ATOM      1  C   UNL     1       5.707   4.710  16.748  0.00  0.00    +0.000 A 
ATOM      2  N   UNL     1       5.012   3.557  16.609  0.00  0.00    +0.000 NA
ATOM      3  C   UNL     1       3.744   3.570  17.024  0.00  0.00    +0.000 A 
ATOM      4  N   UNL     1       3.111   4.624  17.542  0.00  0.00    +0.000 NA
ATOM      5  C   UNL     1       3.816   5.782  17.670  0.00  0.00    +0.000 A 
ATOM      6  C   UNL     1       5.159   5.866  17.306  0.00  0.00    +0.000 A 
ENDROOT
BRANCH   5   7
ATOM      7  C   UNL     1       2.975   6.897  18.175  0.00  0.00    +0.000 A 
ATOM      8  C   UNL     1       2.750   8.021  17.366  0.00  0.00    +0.000 A 
ATOM      9  C   UNL     1       2.122   9.164  17.863  0.00  0.00    +0.000 A 
ATOM     10  C   UNL     1       1.574   9.190  19.152  0.00  0.00    +0.000 A 
ATOM     11  C   UNL     1       1.754   8.063  19.964  0.00  0.00    +0.000 A 
ATOM     12 CL   UNL     1       1.149   7.924  21.581  0.00  0.00    +0.000 Cl
ATOM     13  C   UNL     1       2.478   6.957  19.487  0.00  0.00    +0.000 A 
BRANCH  10  14
ATOM     14  C   UNL     1       1.023  10.465  19.688  0.00  0.00    +0.000 C 
ATOM     15  O   UNL     1       1.725  11.115  20.463  0.00  0.00    +0.000 OA
ATOM     16  N   UNL     1      -0.192  10.976  19.244  0.00  0.00    +0.000 N 
ATOM     17  C   UNL     1      -0.457  12.397  19.463  0.00  0.00    +0.000 C 
ATOM     18  C   UNL     1      -0.683  13.065  18.107  0.00  0.00    +0.000 C 
ATOM     19  N   UNL     1      -1.679  12.368  17.311  0.00  0.00    +0.000 N 
ATOM     20  C   UNL     1      -1.849  11.004  17.359  0.00  0.00    +0.000 C 
ATOM     21  O   UNL     1      -2.538  10.443  16.509  0.00  0.00    +0.000 OA
ATOM     22  C   UNL     1      -1.303  10.263  18.597  0.00  0.00    +0.000 C 
ATOM     23  H   UNL     1      -2.039  12.808  16.472  0.00  0.00    +0.000 HD
ENDBRANCH  10  14
ENDBRANCH   5   7
BRANCH   1  25
ATOM     24  C   UNL     1       7.200   4.771  14.738  0.00  0.00    +0.000 C 
ATOM     25  C   UNL     1       7.131   4.653  16.250  0.00  0.00    +0.000 C 
ENDBRANCH   1  25
BRANCH   6  26
ATOM     26  C   UNL     1       5.951   7.056  17.480  0.00  0.00    +0.000 C 
ATOM     27  C   UNL     1       6.672   8.003  17.657  0.00  0.00    +0.000 C 
BRANCH  27  28
ATOM     28  C   UNL     1       7.598   9.064  17.904  0.00  0.00    +0.000 A 
ATOM     29  C   UNL     1       8.678   8.895  18.763  0.00  0.00    +0.000 A 
ATOM     30  C   UNL     1       9.536   9.964  19.008  0.00  0.00    +0.000 A 
ATOM     31  C   UNL     1       9.285  11.182  18.382  0.00  0.00    +0.000 A 
ATOM     32  N   UNL     1      10.147  12.259  18.573  0.00  0.00    +0.000 N 
ATOM     33  N   UNL     1       8.259  11.370  17.542  0.00  0.00    +0.000 NA
ATOM     34  C   UNL     1       7.436  10.312  17.322  0.00  0.00    +0.000 A 
ATOM     35  H   UNL     1      10.303  12.458  19.554  0.00  0.00    +0.000 HD
ATOM     36  H   UNL     1       9.743  13.052  18.080  0.00  0.00    +0.000 HD
ENDBRANCH  27  28
ENDBRANCH   6  26
TORSDOF 5
ENDMDL
MODEL 5
REMARK VINA RESULT:      -7.9      1.848      2.977
REMARK  Name = 
REMARK  6 active torsions:
REMARK  status: ('A' for Active; 'I' for Inactive)
REMARK    1  A    between atoms: C_1  and  C_2
REMARK    2  A    between atoms: C_2  and  C_3
REMARK    3  A    between atoms: C_7  and  C_8
REMARK    4  A    between atoms: C_11  and  C_12
REMARK    5  A    between atoms: C_24  and  C_25
REMARK    6  A    between atoms: C_26  and  C_27
REMARK                            x       y       z     vdW  Elec       q    Type
REMARK                         _______ _______ _______ _____ _____    ______ ____
ROOT
ATOM      1  C   UNL     1      -0.902  10.959  21.902  0.00  0.00    +0.000 A 
ATOM      2  N   UNL     1      -0.529  10.949  23.204  0.00  0.00    +0.000 NA
ATOM      3  C   UNL     1       0.367  10.028  23.562  0.00  0.00    +0.000 A 
ATOM      4  N   UNL     1       0.932   9.139  22.742  0.00  0.00    +0.000 NA
ATOM      5  C   UNL     1       0.558   9.163  21.433  0.00  0.00    +0.000 A 
ATOM      6  C   UNL     1      -0.402  10.057  20.961  0.00  0.00    +0.000 A 
ENDROOT
BRANCH   5   7
ATOM      7  C   UNL     1       1.321   8.187  20.614  0.00  0.00    +0.000 A 
ATOM      8  C   UNL     1       1.799   8.562  19.349  0.00  0.00    +0.000 A 
ATOM      9  C   UNL     1       2.359   7.630  18.475  0.00  0.00    +0.000 A 
ATOM     10  C   UNL     1       2.588   6.306  18.873  0.00  0.00    +0.000 A 
ATOM     11  C   UNL     1       2.155   5.920  20.147  0.00  0.00    +0.000 A 
ATOM     12 CL   UNL     1       2.351   4.328  20.800  0.00  0.00    +0.000 Cl
ATOM     13  C   UNL     1       1.498   6.843  20.980  0.00  0.00    +0.000 A 
BRANCH  10  14
ATOM     14  C   UNL     1       3.073   5.314  17.874  0.00  0.00    +0.000 C 
ATOM     15  O   UNL     1       2.234   4.631  17.288  0.00  0.00    +0.000 OA
ATOM     16  N   UNL     1       4.416   5.237  17.518  0.00  0.00    +0.000 N 
ATOM     17  C   UNL     1       4.752   4.580  16.257  0.00  0.00    +0.000 C 
ATOM     18  C   UNL     1       5.481   5.583  15.364  0.00  0.00    +0.000 C 
ATOM     19  N   UNL     1       6.598   6.215  16.047  0.00  0.00    +0.000 N 
ATOM     20  C   UNL     1       6.589   6.486  17.395  0.00  0.00    +0.000 C 
ATOM     21  O   UNL     1       7.451   7.218  17.877  0.00  0.00    +0.000 OA
ATOM     22  C   UNL     1       5.590   5.702  18.270  0.00  0.00    +0.000 C 
ATOM     23  H   UNL     1       7.258   6.766  15.511  0.00  0.00    +0.000 HD
ENDBRANCH  10  14
ENDBRANCH   5   7
BRANCH   1  25
ATOM     24  C   UNL     1      -1.234  13.231  20.902  0.00  0.00    +0.000 C 
ATOM     25  C   UNL     1      -1.904  12.028  21.540  0.00  0.00    +0.000 C 
ENDBRANCH   1  25
BRANCH   6  26
ATOM     26  C   UNL     1      -0.864  10.073  19.597  0.00  0.00    +0.000 C 
ATOM     27  C   UNL     1      -1.321  10.115  18.485  0.00  0.00    +0.000 C 
BRANCH  27  28
ATOM     28  C   UNL     1      -1.950  10.201  17.204  0.00  0.00    +0.000 A 
ATOM     29  C   UNL     1      -2.812  11.246  16.891  0.00  0.00    +0.000 A 
ATOM     30  C   UNL     1      -3.436  11.274  15.646  0.00  0.00    +0.000 A 
ATOM     31  C   UNL     1      -3.177  10.247  14.744  0.00  0.00    +0.000 A 
ATOM     32  N   UNL     1      -3.751  10.267  13.475  0.00  0.00    +0.000 N 
ATOM     33  N   UNL     1      -2.343   9.234  15.014  0.00  0.00    +0.000 NA
ATOM     34  C   UNL     1      -1.749   9.230  16.236  0.00  0.00    +0.000 A 
ATOM     35  H   UNL     1      -4.757  10.382  13.510  0.00  0.00    +0.000 HD
ATOM     36  H   UNL     1      -3.480   9.401  13.013  0.00  0.00    +0.000 HD
ENDBRANCH  27  28
ENDBRANCH   6  26
TORSDOF 5
ENDMDL
MODEL 6
REMARK VINA RESULT:      -7.8      4.337      9.257
REMARK  Name = 
REMARK  6 active torsions:
REMARK  status: ('A' for Active; 'I' for Inactive)
REMARK    1  A    between atoms: C_1  and  C_2
REMARK    2  A    between atoms: C_2  and  C_3
REMARK    3  A    between atoms: C_7  and  C_8
REMARK    4  A    between atoms: C_11  and  C_12
REMARK    5  A    between atoms: C_24  and  C_25
REMARK    6  A    between atoms: C_26  and  C_27
REMARK                            x       y       z     vdW  Elec       q    Type
REMARK                         _______ _______ _______ _____ _____    ______ ____
ROOT
ATOM      1  C   UNL     1       5.204   4.531  16.638  0.00  0.00    +0.000 A 
ATOM      2  N   UNL     1       4.336   3.496  16.545  0.00  0.00    +0.000 NA
ATOM      3  C   UNL     1       3.143   3.663  17.118  0.00  0.00    +0.000 A 
ATOM      4  N   UNL     1       2.737   4.765  17.750  0.00  0.00    +0.000 NA
ATOM      5  C   UNL     1       3.613   5.805  17.831  0.00  0.00    +0.000 A 
ATOM      6  C   UNL     1       4.900   5.720  17.303  0.00  0.00    +0.000 A 
ENDROOT
BRANCH   5   7
ATOM      7  C   UNL     1       3.010   6.998  18.478  0.00  0.00    +0.000 A 
ATOM      8  C   UNL     1       2.415   6.877  19.744  0.00  0.00    +0.000 A 
ATOM      9  C   UNL     1       1.681   7.922  20.306  0.00  0.00    +0.000 A 
ATOM     10  C   UNL     1       1.616   9.179  19.692  0.00  0.00    +0.000 A 
ATOM     11  C   UNL     1       2.237   9.333  18.446  0.00  0.00    +0.000 A 
ATOM     12 CL   UNL     1       2.253  10.812  17.544  0.00  0.00    +0.000 Cl
ATOM     13  C   UNL     1       2.886   8.243  17.841  0.00  0.00    +0.000 A 
BRANCH  10  14
ATOM     14  C   UNL     1       0.724  10.227  20.260  0.00  0.00    +0.000 C 
ATOM     15  O   UNL     1       1.104  10.823  21.267  0.00  0.00    +0.000 OA
ATOM     16  N   UNL     1      -0.448  10.612  19.616  0.00  0.00    +0.000 N 
ATOM     17  C   UNL     1      -1.029  11.906  19.970  0.00  0.00    +0.000 C 
ATOM     18  C   UNL     1      -1.093  12.772  18.713  0.00  0.00    +0.000 C 
ATOM     19  N   UNL     1      -1.741  12.088  17.607  0.00  0.00    +0.000 N 
ATOM     20  C   UNL     1      -1.643  10.729  17.412  0.00  0.00    +0.000 C 
ATOM     21  O   UNL     1      -2.014  10.236  16.349  0.00  0.00    +0.000 OA
ATOM     22  C   UNL     1      -1.234   9.866  18.623  0.00  0.00    +0.000 C 
ATOM     23  H   UNL     1      -1.995  12.614  16.779  0.00  0.00    +0.000 HD
ENDBRANCH  10  14
ENDBRANCH   5   7
BRANCH   1  25
ATOM     24  C   UNL     1       6.434   4.474  14.457  0.00  0.00    +0.000 C 
ATOM     25  C   UNL     1       6.534   4.303  15.962  0.00  0.00    +0.000 C 
ENDBRANCH   1  25
BRANCH   6  26
ATOM     26  C   UNL     1       5.872   6.777  17.419  0.00  0.00    +0.000 C 
ATOM     27  C   UNL     1       6.650   7.679  17.587  0.00  0.00    +0.000 C 
BRANCH  27  28
ATOM     28  C   UNL     1       7.529   8.769  17.875  0.00  0.00    +0.000 A 
ATOM     29  C   UNL     1       8.582   8.630  18.773  0.00  0.00    +0.000 A 
ATOM     30  C   UNL     1       9.393   9.726  19.057  0.00  0.00    +0.000 A 
ATOM     31  C   UNL     1       9.125  10.939  18.430  0.00  0.00    +0.000 A 
ATOM     32  N   UNL     1       9.942  12.043  18.660  0.00  0.00    +0.000 N 
ATOM     33  N   UNL     1       8.125  11.099  17.553  0.00  0.00    +0.000 NA
ATOM     34  C   UNL     1       7.348  10.015  17.295  0.00  0.00    +0.000 A 
ATOM     35  H   UNL     1      10.054  12.240  19.647  0.00  0.00    +0.000 HD
ATOM     36  H   UNL     1       9.530  12.826  18.156  0.00  0.00    +0.000 HD
ENDBRANCH  27  28
ENDBRANCH   6  26
TORSDOF 5
ENDMDL
MODEL 7
REMARK VINA RESULT:      -7.2      3.437      8.814
REMARK  Name = 
REMARK  6 active torsions:
REMARK  status: ('A' for Active; 'I' for Inactive)
REMARK    1  A    between atoms: C_1  and  C_2
REMARK    2  A    between atoms: C_2  and  C_3
REMARK    3  A    between atoms: C_7  and  C_8
REMARK    4  A    between atoms: C_11  and  C_12
REMARK    5  A    between atoms: C_24  and  C_25
REMARK    6  A    between atoms: C_26  and  C_27
REMARK                            x       y       z     vdW  Elec       q    Type
REMARK                         _______ _______ _______ _____ _____    ______ ____
ROOT
ATOM      1  C   UNL     1       2.920   2.424  19.775  0.00  0.00    +0.000 A 
ATOM      2  N   UNL     1       2.141   1.968  20.784  0.00  0.00    +0.000 NA
ATOM      3  C   UNL     1       1.450   2.884  21.465  0.00  0.00    +0.000 A 
ATOM      4  N   UNL     1       1.453   4.195  21.219  0.00  0.00    +0.000 NA
ATOM      5  C   UNL     1       2.233   4.643  20.196  0.00  0.00    +0.000 A 
ATOM      6  C   UNL     1       3.027   3.777  19.448  0.00  0.00    +0.000 A 
ENDROOT
BRANCH   5   7
ATOM      7  C   UNL     1       2.078   6.103  19.971  0.00  0.00    +0.000 A 
ATOM      8  C   UNL     1       1.360   6.878  20.895  0.00  0.00    +0.000 A 
ATOM      9  C   UNL     1       1.037   8.210  20.634  0.00  0.00    +0.000 A 
ATOM     10  C   UNL     1       1.527   8.868  19.498  0.00  0.00    +0.000 A 
ATOM     11  C   UNL     1       2.279   8.123  18.582  0.00  0.00    +0.000 A 
ATOM     12 CL   UNL     1       2.957   8.772  17.126  0.00  0.00    +0.000 Cl
ATOM     13  C   UNL     1       2.511   6.755  18.805  0.00  0.00    +0.000 A 
BRANCH  10  14
ATOM     14  C   UNL     1       1.059  10.248  19.192  0.00  0.00    +0.000 C 
ATOM     15  O   UNL     1       1.083  10.618  18.019  0.00  0.00    +0.000 OA
ATOM     16  N   UNL     1       0.499  11.060  20.174  0.00  0.00    +0.000 N 
ATOM     17  C   UNL     1      -0.321  12.190  19.741  0.00  0.00    +0.000 C 
ATOM     18  C   UNL     1      -1.725  12.023  20.318  0.00  0.00    +0.000 C 
ATOM     19  N   UNL     1      -1.705  11.791  21.753  0.00  0.00    +0.000 N 
ATOM     20  C   UNL     1      -0.696  11.098  22.381  0.00  0.00    +0.000 C 
ATOM     21  O   UNL     1      -0.838  10.735  23.547  0.00  0.00    +0.000 OA
ATOM     22  C   UNL     1       0.647  10.966  21.633  0.00  0.00    +0.000 C 
ATOM     23  H   UNL     1      -2.573  11.837  22.275  0.00  0.00    +0.000 HD
ENDBRANCH  10  14
ENDBRANCH   5   7
BRANCH   1  25
ATOM     24  C   UNL     1       4.869   0.851  19.809  0.00  0.00    +0.000 C 
ATOM     25  C   UNL     1       3.671   1.352  19.022  0.00  0.00    +0.000 C 
ENDBRANCH   1  25
BRANCH   6  26
ATOM     26  C   UNL     1       3.906   4.221  18.397  0.00  0.00    +0.000 C 
ATOM     27  C   UNL     1       4.648   4.513  17.496  0.00  0.00    +0.000 C 
BRANCH  27  28
ATOM     28  C   UNL     1       5.530   4.763  16.399  0.00  0.00    +0.000 A 
ATOM     29  C   UNL     1       5.343   4.147  15.166  0.00  0.00    +0.000 A 
ATOM     30  C   UNL     1       6.246   4.386  14.134  0.00  0.00    +0.000 A 
ATOM     31  C   UNL     1       7.319   5.242  14.367  0.00  0.00    +0.000 A 
ATOM     32  N   UNL     1       8.217   5.535  13.343  0.00  0.00    +0.000 N 
ATOM     33  N   UNL     1       7.518   5.857  15.540  0.00  0.00    +0.000 NA
ATOM     34  C   UNL     1       6.623   5.605  16.531  0.00  0.00    +0.000 A 
ATOM     35  H   UNL     1       8.595   4.700  12.911  0.00  0.00    +0.000 HD
ATOM     36  H   UNL     1       8.946   6.120  13.747  0.00  0.00    +0.000 HD
ENDBRANCH  27  28
ENDBRANCH   6  26
TORSDOF 5
ENDMDL
MODEL 8
REMARK VINA RESULT:      -7.0      5.470      8.421
REMARK  Name = 
REMARK  6 active torsions:
REMARK  status: ('A' for Active; 'I' for Inactive)
REMARK    1  A    between atoms: C_1  and  C_2
REMARK    2  A    between atoms: C_2  and  C_3
REMARK    3  A    between atoms: C_7  and  C_8
REMARK    4  A    between atoms: C_11  and  C_12
REMARK    5  A    between atoms: C_24  and  C_25
REMARK    6  A    between atoms: C_26  and  C_27
REMARK                            x       y       z     vdW  Elec       q    Type
REMARK                         _______ _______ _______ _____ _____    ______ ____
ROOT
ATOM      1  C   UNL     1      -1.795  11.063  18.953  0.00  0.00    +0.000 A 
ATOM      2  N   UNL     1      -2.768  11.979  19.170  0.00  0.00    +0.000 NA
ATOM      3  C   UNL     1      -2.368  13.218  19.462  0.00  0.00    +0.000 A 
ATOM      4  N   UNL     1      -1.099  13.623  19.536  0.00  0.00    +0.000 NA
ATOM      5  C   UNL     1      -0.128  12.697  19.307  0.00  0.00    +0.000 A 
ATOM      6  C   UNL     1      -0.435  11.365  19.035  0.00  0.00    +0.000 A 
ENDROOT
BRANCH   5   7
ATOM      7  C   UNL     1       1.233  13.294  19.332  0.00  0.00    +0.000 A 
ATOM      8  C   UNL     1       2.075  13.061  20.429  0.00  0.00    +0.000 A 
ATOM      9  C   UNL     1       3.283  13.743  20.579  0.00  0.00    +0.000 A 
ATOM     10  C   UNL     1       3.767  14.593  19.576  0.00  0.00    +0.000 A 
ATOM     11  C   UNL     1       2.959  14.810  18.453  0.00  0.00    +0.000 A 
ATOM     12 CL   UNL     1       3.397  15.830  17.123  0.00  0.00    +0.000 Cl
ATOM     13  C   UNL     1       1.698  14.196  18.361  0.00  0.00    +0.000 A 
BRANCH  10  14
ATOM     14  C   UNL     1       4.996  15.397  19.827  0.00  0.00    +0.000 C 
ATOM     15  O   UNL     1       4.982  16.191  20.766  0.00  0.00    +0.000 OA
ATOM     16  N   UNL     1       6.166  15.179  19.107  0.00  0.00    +0.000 N 
ATOM     17  C   UNL     1       7.420  15.666  19.678  0.00  0.00    +0.000 C 
ATOM     18  C   UNL     1       8.361  14.478  19.873  0.00  0.00    +0.000 C 
ATOM     19  N   UNL     1       8.502  13.685  18.663  0.00  0.00    +0.000 N 
ATOM     20  C   UNL     1       7.478  13.515  17.761  0.00  0.00    +0.000 C 
ATOM     21  O   UNL     1       7.572  12.661  16.882  0.00  0.00    +0.000 OA
ATOM     22  C   UNL     1       6.327  14.542  17.792  0.00  0.00    +0.000 C 
ATOM     23  H   UNL     1       9.225  12.977  18.616  0.00  0.00    +0.000 HD
ENDBRANCH  10  14
ENDBRANCH   5   7
BRANCH   1  25
ATOM     24  C   UNL     1      -2.968   9.649  17.250  0.00  0.00    +0.000 C 
ATOM     25  C   UNL     1      -2.294   9.680  18.610  0.00  0.00    +0.000 C 
ENDBRANCH   1  25
BRANCH   6  26
ATOM     26  C   UNL     1       0.566  10.347  18.843  0.00  0.00    +0.000 C 
ATOM     27  C   UNL     1       1.349   9.442  18.714  0.00  0.00    +0.000 C 
BRANCH  27  28
ATOM     28  C   UNL     1       2.207   8.305  18.596  0.00  0.00    +0.000 A 
ATOM     29  C   UNL     1       3.051   8.147  17.502  0.00  0.00    +0.000 A 
ATOM     30  C   UNL     1       3.844   7.007  17.404  0.00  0.00    +0.000 A 
ATOM     31  C   UNL     1       3.769   6.050  18.411  0.00  0.00    +0.000 A 
ATOM     32  N   UNL     1       4.579   4.918  18.365  0.00  0.00    +0.000 N 
ATOM     33  N   UNL     1       2.974   6.181  19.481  0.00  0.00    +0.000 NA
ATOM     34  C   UNL     1       2.209   7.301  19.552  0.00  0.00    +0.000 A 
ATOM     35  H   UNL     1       4.502   4.425  17.483  0.00  0.00    +0.000 HD
ATOM     36  H   UNL     1       4.317   4.334  19.156  0.00  0.00    +0.000 HD
ENDBRANCH  27  28
ENDBRANCH   6  26
TORSDOF 5
ENDMDL
MODEL 9
REMARK VINA RESULT:      -7.0      8.959     12.614
REMARK  Name = 
REMARK  6 active torsions:
REMARK  status: ('A' for Active; 'I' for Inactive)
REMARK    1  A    between atoms: C_1  and  C_2
REMARK    2  A    between atoms: C_2  and  C_3
REMARK    3  A    between atoms: C_7  and  C_8
REMARK    4  A    between atoms: C_11  and  C_12
REMARK    5  A    between atoms: C_24  and  C_25
REMARK    6  A    between atoms: C_26  and  C_27
REMARK                            x       y       z     vdW  Elec       q    Type
REMARK                         _______ _______ _______ _____ _____    ______ ____
ROOT
ATOM      1  C   UNL     1      11.348  13.921  18.884  0.00  0.00    +0.000 A 
ATOM      2  N   UNL     1      11.991  14.331  17.766  0.00  0.00    +0.000 NA
ATOM      3  C   UNL     1      11.267  15.014  16.876  0.00  0.00    +0.000 A 
ATOM      4  N   UNL     1       9.980  15.337  17.012  0.00  0.00    +0.000 NA
ATOM      5  C   UNL     1       9.344  14.928  18.145  0.00  0.00    +0.000 A 
ATOM      6  C   UNL     1       9.995  14.174  19.119  0.00  0.00    +0.000 A 
ENDROOT
BRANCH   5   7
ATOM      7  C   UNL     1       7.946  15.426  18.214  0.00  0.00    +0.000 A 
ATOM      8  C   UNL     1       7.698  16.757  18.585  0.00  0.00    +0.000 A 
ATOM      9  C   UNL     1       6.404  17.214  18.837  0.00  0.00    +0.000 A 
ATOM     10  C   UNL     1       5.287  16.400  18.604  0.00  0.00    +0.000 A 
ATOM     11  C   UNL     1       5.510  15.080  18.195  0.00  0.00    +0.000 A 
ATOM     12 CL   UNL     1       4.251  13.938  17.867  0.00  0.00    +0.000 Cl
ATOM     13  C   UNL     1       6.822  14.600  18.044  0.00  0.00    +0.000 A 
BRANCH  10  14
ATOM     14  C   UNL     1       3.935  16.882  19.002  0.00  0.00    +0.000 C 
ATOM     15  O   UNL     1       3.240  17.423  18.143  0.00  0.00    +0.000 OA
ATOM     16  N   UNL     1       3.416  16.628  20.268  0.00  0.00    +0.000 N 
ATOM     17  C   UNL     1       1.969  16.728  20.446  0.00  0.00    +0.000 C 
ATOM     18  C   UNL     1       1.442  15.375  20.921  0.00  0.00    +0.000 C 
ATOM     19  N   UNL     1       2.171  14.876  22.075  0.00  0.00    +0.000 N 
ATOM     20  C   UNL     1       3.512  15.114  22.268  0.00  0.00    +0.000 C 
ATOM     21  O   UNL     1       4.127  14.488  23.128  0.00  0.00    +0.000 OA
ATOM     22  C   UNL     1       4.139  16.299  21.505  0.00  0.00    +0.000 C 
ATOM     23  H   UNL     1       1.808  14.078  22.583  0.00  0.00    +0.000 HD
ENDBRANCH  10  14
ENDBRANCH   5   7
BRANCH   1  25
ATOM     24  C   UNL     1      12.322  11.698  19.501  0.00  0.00    +0.000 C 
ATOM     25  C   UNL     1      12.209  13.167  19.868  0.00  0.00    +0.000 C 
ENDBRANCH   1  25
BRANCH   6  26
ATOM     26  C   UNL     1       9.340  13.676  20.301  0.00  0.00    +0.000 C 
ATOM     27  C   UNL     1       8.837  13.314  21.333  0.00  0.00    +0.000 C 
BRANCH  27  28
ATOM     28  C   UNL     1       8.295  12.953  22.606  0.00  0.00    +0.000 A 
ATOM     29  C   UNL     1       7.855  13.920  23.503  0.00  0.00    +0.000 A 
ATOM     30  C   UNL     1       7.369  13.531  24.749  0.00  0.00    +0.000 A 
ATOM     31  C   UNL     1       7.339  12.176  25.064  0.00  0.00    +0.000 A 
ATOM     32  N   UNL     1       6.821  11.751  26.285  0.00  0.00    +0.000 N 
ATOM     33  N   UNL     1       7.747  11.223  24.215  0.00  0.00    +0.000 NA
ATOM     34  C   UNL     1       8.218  11.629  23.007  0.00  0.00    +0.000 A 
ATOM     35  H   UNL     1       7.247  12.226  27.071  0.00  0.00    +0.000 HD
ATOM     36  H   UNL     1       6.954  10.742  26.328  0.00  0.00    +0.000 HD
ENDBRANCH  27  28
ENDBRANCH   6  26
TORSDOF 5
ENDMDL
