MODEL 1
REMARK VINA RESULT:      -6.6      0.000      0.000
REMARK  Name = 
REMARK  8 active torsions:
REMARK  status: ('A' for Active; 'I' for Inactive)
REMARK    1  A    between atoms: C_1  and  O_2
REMARK    2  A    between atoms: O_2  and  C_3
REMARK    3  A    between atoms: C_3  and  C_5
REMARK    4  A    between atoms: C_8  and  N_9
REMARK    5  A    between atoms: C_10  and  C_12
REMARK    6  A    between atoms: C_12  and  S_13
REMARK    7  A    between atoms: S_13  and  C_14
REMARK    8  A    between atoms: N_18  and  C_19
REMARK                            x       y       z     vdW  Elec       q    Type
REMARK                         _______ _______ _______ _____ _____    ______ ____
ROOT
ATOM      1  N   UNL     1       2.972   5.994  19.465  0.00  0.00    +0.000 N 
ATOM      2  C   UNL     1       2.408   4.728  19.496  0.00  0.00    +0.000 C 
ATOM      3  O   UNL     1       1.207   4.471  19.554  0.00  0.00    +0.000 OA
ATOM      4  H   UNL     1       3.977   6.042  19.301  0.00  0.00    +0.000 HD
ENDROOT
BRANCH   1   8
ATOM      5  C   UNL     1       0.910   9.693  19.354  0.00  0.00    +0.000 A 
ATOM      6  C   UNL     1       0.976   8.973  20.549  0.00  0.00    +0.000 A 
ATOM      7  C   UNL     1       1.665   7.756  20.609  0.00  0.00    +0.000 A 
ATOM      8  C   UNL     1       2.287   7.229  19.477  0.00  0.00    +0.000 A 
ATOM      9  C   UNL     1       2.225   7.954  18.279  0.00  0.00    +0.000 A 
ATOM     10  C   UNL     1       1.543   9.179  18.216  0.00  0.00    +0.000 A 
BRANCH   5  11
ATOM     11  C   UNL     1       0.166  10.982  19.357  0.00  0.00    +0.000 C 
ATOM     12  O   UNL     1      -0.949  11.116  19.844  0.00  0.00    +0.000 OA
BRANCH  11  14
ATOM     13  C   UNL     1       1.660  12.748  19.663  0.00  0.00    +0.000 C 
ATOM     14  O   UNL     1       0.889  11.958  18.757  0.00  0.00    +0.000 OA
ENDBRANCH  11  14
ENDBRANCH   5  11
ENDBRANCH   1   8
BRANCH   2  15
ATOM     15  C   UNL     1       3.422   3.596  19.438  0.00  0.00    +0.000 C 
BRANCH  15  16
ATOM     16  S   UNL     1       4.404   3.718  17.915  0.00  0.00    +0.000 S 
BRANCH  16  17
ATOM     17  C   UNL     1       5.821   4.501  18.507  0.00  0.00    +0.000 A 
ATOM     18  N   UNL     1       6.029   4.914  19.737  0.00  0.00    +0.000 NA
ATOM     19  N   UNL     1       7.286   5.472  19.779  0.00  0.00    +0.000 NA
ATOM     20  C   UNL     1       7.804   5.379  18.574  0.00  0.00    +0.000 A 
ATOM     21  N   UNL     1       6.909   4.785  17.735  0.00  0.00    +0.000 N 
ATOM     22  C   UNL     1       7.093   4.551  16.328  0.00  0.00    +0.000 C 
ENDBRANCH  16  17
ENDBRANCH  15  16
ENDBRANCH   2  15
TORSDOF 6
ENDMDL
MODEL 2
REMARK VINA RESULT:      -6.5      3.726      6.845
REMARK  Name = 
REMARK  8 active torsions:
REMARK  status: ('A' for Active; 'I' for Inactive)
REMARK    1  A    between atoms: C_1  and  O_2
REMARK    2  A    between atoms: O_2  and  C_3
REMARK    3  A    between atoms: C_3  and  C_5
REMARK    4  A    between atoms: C_8  and  N_9
REMARK    5  A    between atoms: C_10  and  C_12
REMARK    6  A    between atoms: C_12  and  S_13
REMARK    7  A    between atoms: S_13  and  C_14
REMARK    8  A    between atoms: N_18  and  C_19
REMARK                            x       y       z     vdW  Elec       q    Type
REMARK                         _______ _______ _______ _____ _____    ______ ____
ROOT
ATOM      1  N   UNL     1       4.086   5.425  18.945  0.00  0.00    +0.000 N 
ATOM      2  C   UNL     1       2.714   5.570  19.088  0.00  0.00    +0.000 C 
ATOM      3  O   UNL     1       1.890   5.601  18.177  0.00  0.00    +0.000 OA
ATOM      4  H   UNL     1       4.624   5.302  19.802  0.00  0.00    +0.000 HD
ENDROOT
BRANCH   1   8
ATOM      5  C   UNL     1       6.326   5.064  15.367  0.00  0.00    +0.000 A 
ATOM      6  C   UNL     1       5.436   4.052  15.732  0.00  0.00    +0.000 A 
ATOM      7  C   UNL     1       4.676   4.160  16.903  0.00  0.00    +0.000 A 
ATOM      8  C   UNL     1       4.802   5.270  17.737  0.00  0.00    +0.000 A 
ATOM      9  C   UNL     1       5.692   6.289  17.369  0.00  0.00    +0.000 A 
ATOM     10  C   UNL     1       6.449   6.189  16.192  0.00  0.00    +0.000 A 
BRANCH   5  11
ATOM     11  C   UNL     1       7.101   4.891  14.109  0.00  0.00    +0.000 C 
ATOM     12  O   UNL     1       8.011   5.636  13.768  0.00  0.00    +0.000 OA
BRANCH  11  14
ATOM     13  C   UNL     1       6.890   3.897  12.009  0.00  0.00    +0.000 C 
ATOM     14  O   UNL     1       6.662   3.813  13.416  0.00  0.00    +0.000 OA
ENDBRANCH  11  14
ENDBRANCH   5  11
ENDBRANCH   1   8
BRANCH   2  15
ATOM     15  C   UNL     1       2.251   5.682  20.532  0.00  0.00    +0.000 C 
BRANCH  15  16
ATOM     16  S   UNL     1       1.599   4.085  21.103  0.00  0.00    +0.000 S 
BRANCH  16  17
ATOM     17  C   UNL     1       2.597   2.994  20.217  0.00  0.00    +0.000 A 
ATOM     18  N   UNL     1       3.871   2.751  20.432  0.00  0.00    +0.000 NA
ATOM     19  N   UNL     1       4.274   1.813  19.510  0.00  0.00    +0.000 NA
ATOM     20  C   UNL     1       3.233   1.514  18.763  0.00  0.00    +0.000 A 
ATOM     21  N   UNL     1       2.155   2.245  19.166  0.00  0.00    +0.000 N 
ATOM     22  C   UNL     1       0.849   2.231  18.565  0.00  0.00    +0.000 C 
ENDBRANCH  16  17
ENDBRANCH  15  16
ENDBRANCH   2  15
TORSDOF 6
ENDMDL
MODEL 3
REMARK VINA RESULT:      -6.5      0.624      1.626
REMARK  Name = 
REMARK  8 active torsions:
REMARK  status: ('A' for Active; 'I' for Inactive)
REMARK    1  A    between atoms: C_1  and  O_2
REMARK    2  A    between atoms: O_2  and  C_3
REMARK    3  A    between atoms: C_3  and  C_5
REMARK    4  A    between atoms: C_8  and  N_9
REMARK    5  A    between atoms: C_10  and  C_12
REMARK    6  A    between atoms: C_12  and  S_13
REMARK    7  A    between atoms: S_13  and  C_14
REMARK    8  A    between atoms: N_18  and  C_19
REMARK                            x       y       z     vdW  Elec       q    Type
REMARK                         _______ _______ _______ _____ _____    ______ ____
ROOT
ATOM      1  N   UNL     1       3.000   6.092  19.732  0.00  0.00    +0.000 N 
ATOM      2  C   UNL     1       2.458   4.815  19.752  0.00  0.00    +0.000 C 
ATOM      3  O   UNL     1       1.271   4.530  19.609  0.00  0.00    +0.000 OA
ATOM      4  H   UNL     1       4.018   6.156  19.750  0.00  0.00    +0.000 HD
ENDROOT
BRANCH   1   8
ATOM      5  C   UNL     1       0.916   9.751  19.272  0.00  0.00    +0.000 A 
ATOM      6  C   UNL     1       1.599   9.202  18.185  0.00  0.00    +0.000 A 
ATOM      7  C   UNL     1       2.281   7.986  18.313  0.00  0.00    +0.000 A 
ATOM      8  C   UNL     1       2.307   7.305  19.530  0.00  0.00    +0.000 A 
ATOM      9  C   UNL     1       1.618   7.854  20.621  0.00  0.00    +0.000 A 
ATOM     10  C   UNL     1       0.925   9.068  20.494  0.00  0.00    +0.000 A 
BRANCH   5  11
ATOM     11  C   UNL     1       0.207  11.043  19.069  0.00  0.00    +0.000 C 
ATOM     12  O   UNL     1       0.764  12.067  18.697  0.00  0.00    +0.000 OA
BRANCH  11  14
ATOM     13  C   UNL     1      -1.909  10.528  18.230  0.00  0.00    +0.000 C 
ATOM     14  O   UNL     1      -1.113  10.919  19.350  0.00  0.00    +0.000 OA
ENDBRANCH  11  14
ENDBRANCH   5  11
ENDBRANCH   1   8
BRANCH   2  15
ATOM     15  C   UNL     1       3.483   3.711  19.960  0.00  0.00    +0.000 C 
BRANCH  15  16
ATOM     16  S   UNL     1       4.343   3.356  18.400  0.00  0.00    +0.000 S 
BRANCH  16  17
ATOM     17  C   UNL     1       5.752   4.333  18.580  0.00  0.00    +0.000 A 
ATOM     18  N   UNL     1       6.173   4.900  19.689  0.00  0.00    +0.000 NA
ATOM     19  N   UNL     1       7.334   5.576  19.392  0.00  0.00    +0.000 NA
ATOM     20  C   UNL     1       7.584   5.399  18.113  0.00  0.00    +0.000 A 
ATOM     21  N   UNL     1       6.604   4.631  17.557  0.00  0.00    +0.000 N 
ATOM     22  C   UNL     1       6.503   4.260  16.172  0.00  0.00    +0.000 C 
ENDBRANCH  16  17
ENDBRANCH  15  16
ENDBRANCH   2  15
TORSDOF 6
ENDMDL
MODEL 4
REMARK VINA RESULT:      -6.5      3.609      6.977
REMARK  Name = 
REMARK  8 active torsions:
REMARK  status: ('A' for Active; 'I' for Inactive)
REMARK    1  A    between atoms: C_1  and  O_2
REMARK    2  A    between atoms: O_2  and  C_3
REMARK    3  A    between atoms: C_3  and  C_5
REMARK    4  A    between atoms: C_8  and  N_9
REMARK    5  A    between atoms: C_10  and  C_12
REMARK    6  A    between atoms: C_12  and  S_13
REMARK    7  A    between atoms: S_13  and  C_14
REMARK    8  A    between atoms: N_18  and  C_19
REMARK                            x       y       z     vdW  Elec       q    Type
REMARK                         _______ _______ _______ _____ _____    ______ ____
ROOT
ATOM      1  N   UNL     1       3.858   5.508  18.979  0.00  0.00    +0.000 N 
ATOM      2  C   UNL     1       2.618   6.125  19.059  0.00  0.00    +0.000 C 
ATOM      3  O   UNL     1       2.018   6.667  18.133  0.00  0.00    +0.000 OA
ATOM      4  H   UNL     1       4.170   5.003  19.808  0.00  0.00    +0.000 HD
ENDROOT
BRANCH   1   8
ATOM      5  C   UNL     1       6.169   5.001  15.466  0.00  0.00    +0.000 A 
ATOM      6  C   UNL     1       6.477   6.034  16.354  0.00  0.00    +0.000 A 
ATOM      7  C   UNL     1       5.734   6.208  17.528  0.00  0.00    +0.000 A 
ATOM      8  C   UNL     1       4.663   5.367  17.828  0.00  0.00    +0.000 A 
ATOM      9  C   UNL     1       4.357   4.327  16.939  0.00  0.00    +0.000 A 
ATOM     10  C   UNL     1       5.105   4.143  15.766  0.00  0.00    +0.000 A 
BRANCH   5  11
ATOM     11  C   UNL     1       7.000   4.867  14.238  0.00  0.00    +0.000 C 
ATOM     12  O   UNL     1       7.954   5.591  13.986  0.00  0.00    +0.000 OA
BRANCH  11  14
ATOM     13  C   UNL     1       6.983   3.928  12.103  0.00  0.00    +0.000 C 
ATOM     14  O   UNL     1       6.554   3.850  13.462  0.00  0.00    +0.000 OA
ENDBRANCH  11  14
ENDBRANCH   5  11
ENDBRANCH   1   8
BRANCH   2  15
ATOM     15  C   UNL     1       1.991   6.079  20.444  0.00  0.00    +0.000 C 
BRANCH  15  16
ATOM     16  S   UNL     1       2.342   4.482  21.234  0.00  0.00    +0.000 S 
BRANCH  16  17
ATOM     17  C   UNL     1       1.736   3.393  20.044  0.00  0.00    +0.000 A 
ATOM     18  N   UNL     1       0.510   3.356  19.570  0.00  0.00    +0.000 NA
ATOM     19  N   UNL     1       0.458   2.347  18.637  0.00  0.00    +0.000 NA
ATOM     20  C   UNL     1       1.653   1.802  18.570  0.00  0.00    +0.000 A 
ATOM     21  N   UNL     1       2.489   2.422  19.451  0.00  0.00    +0.000 N 
ATOM     22  C   UNL     1       3.862   2.077  19.701  0.00  0.00    +0.000 C 
ENDBRANCH  16  17
ENDBRANCH  15  16
ENDBRANCH   2  15
TORSDOF 6
ENDMDL
MODEL 5
REMARK VINA RESULT:      -6.4      1.486      2.389
REMARK  Name = 
REMARK  8 active torsions:
REMARK  status: ('A' for Active; 'I' for Inactive)
REMARK    1  A    between atoms: C_1  and  O_2
REMARK    2  A    between atoms: O_2  and  C_3
REMARK    3  A    between atoms: C_3  and  C_5
REMARK    4  A    between atoms: C_8  and  N_9
REMARK    5  A    between atoms: C_10  and  C_12
REMARK    6  A    between atoms: C_12  and  S_13
REMARK    7  A    between atoms: S_13  and  C_14
REMARK    8  A    between atoms: N_18  and  C_19
REMARK                            x       y       z     vdW  Elec       q    Type
REMARK                         _______ _______ _______ _____ _____    ______ ____
ROOT
ATOM      1  N   UNL     1       2.529   5.582  20.638  0.00  0.00    +0.000 N 
ATOM      2  C   UNL     1       1.787   4.410  20.673  0.00  0.00    +0.000 C 
ATOM      3  O   UNL     1       0.629   4.275  20.287  0.00  0.00    +0.000 OA
ATOM      4  H   UNL     1       3.514   5.506  20.888  0.00  0.00    +0.000 HD
ENDROOT
BRANCH   1   8
ATOM      5  C   UNL     1       1.248   9.389  19.291  0.00  0.00    +0.000 A 
ATOM      6  C   UNL     1       1.990   8.566  18.440  0.00  0.00    +0.000 A 
ATOM      7  C   UNL     1       2.409   7.299  18.862  0.00  0.00    +0.000 A 
ATOM      8  C   UNL     1       2.110   6.836  20.143  0.00  0.00    +0.000 A 
ATOM      9  C   UNL     1       1.362   7.660  20.996  0.00  0.00    +0.000 A 
ATOM     10  C   UNL     1       0.932   8.927  20.575  0.00  0.00    +0.000 A 
BRANCH   5  11
ATOM     11  C   UNL     1       0.830  10.722  18.781  0.00  0.00    +0.000 C 
ATOM     12  O   UNL     1       1.612  11.552  18.339  0.00  0.00    +0.000 OA
BRANCH  11  14
ATOM     13  C   UNL     1      -1.242  10.275  17.804  0.00  0.00    +0.000 C 
ATOM     14  O   UNL     1      -0.513  10.875  18.876  0.00  0.00    +0.000 OA
ENDBRANCH  11  14
ENDBRANCH   5  11
ENDBRANCH   1   8
BRANCH   2  15
ATOM     15  C   UNL     1       2.541   3.217  21.241  0.00  0.00    +0.000 C 
BRANCH  15  16
ATOM     16  S   UNL     1       3.133   2.155  19.891  0.00  0.00    +0.000 S 
BRANCH  16  17
ATOM     17  C   UNL     1       4.258   3.208  19.121  0.00  0.00    +0.000 A 
ATOM     18  N   UNL     1       5.437   3.563  19.581  0.00  0.00    +0.000 NA
ATOM     19  N   UNL     1       6.009   4.402  18.652  0.00  0.00    +0.000 NA
ATOM     20  C   UNL     1       5.160   4.531  17.656  0.00  0.00    +0.000 A 
ATOM     21  N   UNL     1       4.035   3.805  17.915  0.00  0.00    +0.000 N 
ATOM     22  C   UNL     1       2.864   3.733  17.084  0.00  0.00    +0.000 C 
ENDBRANCH  16  17
ENDBRANCH  15  16
ENDBRANCH   2  15
TORSDOF 6
ENDMDL
MODEL 6
REMARK VINA RESULT:      -6.4      2.257      3.698
REMARK  Name = 
REMARK  8 active torsions:
REMARK  status: ('A' for Active; 'I' for Inactive)
REMARK    1  A    between atoms: C_1  and  O_2
REMARK    2  A    between atoms: O_2  and  C_3
REMARK    3  A    between atoms: C_3  and  C_5
REMARK    4  A    between atoms: C_8  and  N_9
REMARK    5  A    between atoms: C_10  and  C_12
REMARK    6  A    between atoms: C_12  and  S_13
REMARK    7  A    between atoms: S_13  and  C_14
REMARK    8  A    between atoms: N_18  and  C_19
REMARK                            x       y       z     vdW  Elec       q    Type
REMARK                         _______ _______ _______ _____ _____    ______ ____
ROOT
ATOM      1  N   UNL     1       3.281   6.021  19.032  0.00  0.00    +0.000 N 
ATOM      2  C   UNL     1       2.983   5.031  18.107  0.00  0.00    +0.000 C 
ATOM      3  O   UNL     1       1.930   4.914  17.486  0.00  0.00    +0.000 OA
ATOM      4  H   UNL     1       4.240   6.050  19.377  0.00  0.00    +0.000 HD
ENDROOT
BRANCH   1   8
ATOM      5  C   UNL     1       0.794   9.183  20.361  0.00  0.00    +0.000 A 
ATOM      6  C   UNL     1       1.379   9.248  19.094  0.00  0.00    +0.000 A 
ATOM      7  C   UNL     1       2.192   8.206  18.632  0.00  0.00    +0.000 A 
ATOM      8  C   UNL     1       2.448   7.090  19.428  0.00  0.00    +0.000 A 
ATOM      9  C   UNL     1       1.857   7.023  20.698  0.00  0.00    +0.000 A 
ATOM     10  C   UNL     1       1.034   8.060  21.162  0.00  0.00    +0.000 A 
BRANCH   5  11
ATOM     11  C   UNL     1      -0.062  10.321  20.792  0.00  0.00    +0.000 C 
ATOM     12  O   UNL     1      -0.931  10.817  20.087  0.00  0.00    +0.000 OA
BRANCH  11  14
ATOM     13  C   UNL     1      -0.859  10.751  22.942  0.00  0.00    +0.000 C 
ATOM     14  O   UNL     1       0.255  10.714  22.049  0.00  0.00    +0.000 OA
ENDBRANCH  11  14
ENDBRANCH   5  11
ENDBRANCH   1   8
BRANCH   2  15
ATOM     15  C   UNL     1       4.113   4.039  17.877  0.00  0.00    +0.000 C 
BRANCH  15  16
ATOM     16  S   UNL     1       3.521   2.345  18.161  0.00  0.00    +0.000 S 
BRANCH  16  17
ATOM     17  C   UNL     1       2.874   2.492  19.752  0.00  0.00    +0.000 A 
ATOM     18  N   UNL     1       3.561   2.574  20.870  0.00  0.00    +0.000 NA
ATOM     19  N   UNL     1       2.659   2.688  21.902  0.00  0.00    +0.000 NA
ATOM     20  C   UNL     1       1.451   2.674  21.380  0.00  0.00    +0.000 A 
ATOM     21  N   UNL     1       1.539   2.538  20.027  0.00  0.00    +0.000 N 
ATOM     22  C   UNL     1       0.434   2.435  19.113  0.00  0.00    +0.000 C 
ENDBRANCH  16  17
ENDBRANCH  15  16
ENDBRANCH   2  15
TORSDOF 6
ENDMDL
MODEL 7
REMARK VINA RESULT:      -6.4      2.055      3.374
REMARK  Name = 
REMARK  8 active torsions:
REMARK  status: ('A' for Active; 'I' for Inactive)
REMARK    1  A    between atoms: C_1  and  O_2
REMARK    2  A    between atoms: O_2  and  C_3
REMARK    3  A    between atoms: C_3  and  C_5
REMARK    4  A    between atoms: C_8  and  N_9
REMARK    5  A    between atoms: C_10  and  C_12
REMARK    6  A    between atoms: C_12  and  S_13
REMARK    7  A    between atoms: S_13  and  C_14
REMARK    8  A    between atoms: N_18  and  C_19
REMARK                            x       y       z     vdW  Elec       q    Type
REMARK                         _______ _______ _______ _____ _____    ______ ____
ROOT
ATOM      1  N   UNL     1       3.593   5.767  18.656  0.00  0.00    +0.000 N 
ATOM      2  C   UNL     1       3.238   4.657  17.904  0.00  0.00    +0.000 C 
ATOM      3  O   UNL     1       2.186   4.507  17.287  0.00  0.00    +0.000 OA
ATOM      4  H   UNL     1       4.547   5.789  19.014  0.00  0.00    +0.000 HD
ENDROOT
BRANCH   1   8
ATOM      5  C   UNL     1       1.313   9.311  19.085  0.00  0.00    +0.000 A 
ATOM      6  C   UNL     1       1.358   8.386  20.131  0.00  0.00    +0.000 A 
ATOM      7  C   UNL     1       2.118   7.217  20.013  0.00  0.00    +0.000 A 
ATOM      8  C   UNL     1       2.832   6.941  18.847  0.00  0.00    +0.000 A 
ATOM      9  C   UNL     1       2.790   7.871  17.799  0.00  0.00    +0.000 A 
ATOM     10  C   UNL     1       2.037   9.049  17.916  0.00  0.00    +0.000 A 
BRANCH   5  11
ATOM     11  C   UNL     1       0.490  10.536  19.274  0.00  0.00    +0.000 C 
ATOM     12  O   UNL     1      -0.731  10.525  19.351  0.00  0.00    +0.000 OA
BRANCH  11  14
ATOM     13  C   UNL     1       1.148  12.360  20.572  0.00  0.00    +0.000 C 
ATOM     14  O   UNL     1       1.275  11.638  19.347  0.00  0.00    +0.000 OA
ENDBRANCH  11  14
ENDBRANCH   5  11
ENDBRANCH   1   8
BRANCH   2  15
ATOM     15  C   UNL     1       4.297   3.566  17.871  0.00  0.00    +0.000 C 
BRANCH  15  16
ATOM     16  S   UNL     1       3.555   1.964  18.298  0.00  0.00    +0.000 S 
BRANCH  16  17
ATOM     17  C   UNL     1       2.862   2.328  19.834  0.00  0.00    +0.000 A 
ATOM     18  N   UNL     1       3.514   2.499  20.963  0.00  0.00    +0.000 NA
ATOM     19  N   UNL     1       2.584   2.781  21.938  0.00  0.00    +0.000 NA
ATOM     20  C   UNL     1       1.397   2.773  21.371  0.00  0.00    +0.000 A 
ATOM     21  N   UNL     1       1.523   2.478  20.047  0.00  0.00    +0.000 N 
ATOM     22  C   UNL     1       0.447   2.332  19.105  0.00  0.00    +0.000 C 
ENDBRANCH  16  17
ENDBRANCH  15  16
ENDBRANCH   2  15
TORSDOF 6
ENDMDL
MODEL 8
REMARK VINA RESULT:      -6.3      3.614      6.946
REMARK  Name = 
REMARK  8 active torsions:
REMARK  status: ('A' for Active; 'I' for Inactive)
REMARK    1  A    between atoms: C_1  and  O_2
REMARK    2  A    between atoms: O_2  and  C_3
REMARK    3  A    between atoms: C_3  and  C_5
REMARK    4  A    between atoms: C_8  and  N_9
REMARK    5  A    between atoms: C_10  and  C_12
REMARK    6  A    between atoms: C_12  and  S_13
REMARK    7  A    between atoms: S_13  and  C_14
REMARK    8  A    between atoms: N_18  and  C_19
REMARK                            x       y       z     vdW  Elec       q    Type
REMARK                         _______ _______ _______ _____ _____    ______ ____
ROOT
ATOM      1  N   UNL     1       3.870   5.618  18.881  0.00  0.00    +0.000 N 
ATOM      2  C   UNL     1       2.506   5.858  18.959  0.00  0.00    +0.000 C 
ATOM      3  O   UNL     1       1.727   5.922  18.011  0.00  0.00    +0.000 OA
ATOM      4  H   UNL     1       4.360   5.479  19.764  0.00  0.00    +0.000 HD
ENDROOT
BRANCH   1   8
ATOM      5  C   UNL     1       6.208   5.047  15.395  0.00  0.00    +0.000 A 
ATOM      6  C   UNL     1       5.515   3.968  15.947  0.00  0.00    +0.000 A 
ATOM      7  C   UNL     1       4.725   4.141  17.090  0.00  0.00    +0.000 A 
ATOM      8  C   UNL     1       4.626   5.386  17.711  0.00  0.00    +0.000 A 
ATOM      9  C   UNL     1       5.318   6.470  17.154  0.00  0.00    +0.000 A 
ATOM     10  C   UNL     1       6.104   6.304  16.003  0.00  0.00    +0.000 A 
BRANCH   5  11
ATOM     11  C   UNL     1       7.027   4.800  14.177  0.00  0.00    +0.000 C 
ATOM     12  O   UNL     1       7.895   5.565  13.780  0.00  0.00    +0.000 OA
BRANCH  11  14
ATOM     13  C   UNL     1       6.498   3.724  12.176  0.00  0.00    +0.000 C 
ATOM     14  O   UNL     1       6.676   3.630  13.590  0.00  0.00    +0.000 OA
ENDBRANCH  11  14
ENDBRANCH   5  11
ENDBRANCH   1   8
BRANCH   2  15
ATOM     15  C   UNL     1       1.989   6.035  20.378  0.00  0.00    +0.000 C 
BRANCH  15  16
ATOM     16  S   UNL     1       2.249   4.511  21.332  0.00  0.00    +0.000 S 
BRANCH  16  17
ATOM     17  C   UNL     1       1.881   3.320  20.142  0.00  0.00    +0.000 A 
ATOM     18  N   UNL     1       0.720   3.134  19.555  0.00  0.00    +0.000 NA
ATOM     19  N   UNL     1       0.866   2.091  18.670  0.00  0.00    +0.000 NA
ATOM     20  C   UNL     1       2.112   1.675  18.744  0.00  0.00    +0.000 A 
ATOM     21  N   UNL     1       2.786   2.414  19.670  0.00  0.00    +0.000 N 
ATOM     22  C   UNL     1       4.155   2.229  20.067  0.00  0.00    +0.000 C 
ENDBRANCH  16  17
ENDBRANCH  15  16
ENDBRANCH   2  15
TORSDOF 6
ENDMDL
MODEL 9
REMARK VINA RESULT:      -6.3      2.293      3.365
REMARK  Name = 
REMARK  8 active torsions:
REMARK  status: ('A' for Active; 'I' for Inactive)
REMARK    1  A    between atoms: C_1  and  O_2
REMARK    2  A    between atoms: O_2  and  C_3
REMARK    3  A    between atoms: C_3  and  C_5
REMARK    4  A    between atoms: C_8  and  N_9
REMARK    5  A    between atoms: C_10  and  C_12
REMARK    6  A    between atoms: C_12  and  S_13
REMARK    7  A    between atoms: S_13  and  C_14
REMARK    8  A    between atoms: N_18  and  C_19
REMARK                            x       y       z     vdW  Elec       q    Type
REMARK                         _______ _______ _______ _____ _____    ______ ____
ROOT
ATOM      1  N   UNL     1       3.133   5.755  18.135  0.00  0.00    +0.000 N 
ATOM      2  C   UNL     1       4.338   5.164  18.485  0.00  0.00    +0.000 C 
ATOM      3  O   UNL     1       5.094   5.535  19.380  0.00  0.00    +0.000 OA
ATOM      4  H   UNL     1       2.566   5.261  17.446  0.00  0.00    +0.000 HD
ENDROOT
BRANCH   1   8
ATOM      5  C   UNL     1       1.299   9.181  19.820  0.00  0.00    +0.000 A 
ATOM      6  C   UNL     1       1.508   8.049  20.610  0.00  0.00    +0.000 A 
ATOM      7  C   UNL     1       2.126   6.912  20.075  0.00  0.00    +0.000 A 
ATOM      8  C   UNL     1       2.532   6.879  18.741  0.00  0.00    +0.000 A 
ATOM      9  C   UNL     1       2.325   8.017  17.949  0.00  0.00    +0.000 A 
ATOM     10  C   UNL     1       1.715   9.162  18.483  0.00  0.00    +0.000 A 
BRANCH   5  11
ATOM     11  C   UNL     1       0.641  10.358  20.449  0.00  0.00    +0.000 C 
ATOM     12  O   UNL     1       0.954  10.800  21.547  0.00  0.00    +0.000 OA
BRANCH  11  14
ATOM     13  C   UNL     1      -1.276  11.682  20.325  0.00  0.00    +0.000 C 
ATOM     14  O   UNL     1      -0.331  10.854  19.646  0.00  0.00    +0.000 OA
ENDBRANCH  11  14
ENDBRANCH   5  11
ENDBRANCH   1   8
BRANCH   2  15
ATOM     15  C   UNL     1       4.693   3.941  17.653  0.00  0.00    +0.000 C 
BRANCH  15  16
ATOM     16  S   UNL     1       3.367   2.704  17.767  0.00  0.00    +0.000 S 
BRANCH  16  17
ATOM     17  C   UNL     1       3.192   2.576  19.478  0.00  0.00    +0.000 A 
ATOM     18  N   UNL     1       4.106   2.164  20.327  0.00  0.00    +0.000 NA
ATOM     19  N   UNL     1       3.558   2.226  21.587  0.00  0.00    +0.000 NA
ATOM     20  C   UNL     1       2.326   2.673  21.465  0.00  0.00    +0.000 A 
ATOM     21  N   UNL     1       2.048   2.895  20.149  0.00  0.00    +0.000 N 
ATOM     22  C   UNL     1       0.791   3.341  19.613  0.00  0.00    +0.000 C 
ENDBRANCH  16  17
ENDBRANCH  15  16
ENDBRANCH   2  15
TORSDOF 6
ENDMDL
