MODEL 1
REMARK VINA RESULT:      -4.8      0.000      0.000
REMARK  Name = 
REMARK  1 active torsions:
REMARK  status: ('A' for Active; 'I' for Inactive)
REMARK    1  A    between atoms: N_2  and  N_4
REMARK                            x       y       z     vdW  Elec       q    Type
REMARK                         _______ _______ _______ _____ _____    ______ ____
ROOT
ATOM      1  N   UNL     1       5.993   4.467  16.338  0.00  0.00    +0.000 NA
ATOM      2  C   UNL     1       5.299   4.040  17.333  0.00  0.00    +0.000 C 
ATOM      3  N   UNL     1       4.028   3.538  17.180  0.00  0.00    +0.000 N 
ATOM      4  C   UNL     1       3.622   2.701  18.296  0.00  0.00    +0.000 C 
ATOM      5  C   UNL     1       4.581   3.152  19.406  0.00  0.00    +0.000 C 
ATOM      6  N   UNL     1       5.578   3.913  18.673  0.00  0.00    +0.000 N 
ATOM      7  H   UNL     1       3.741   3.292  16.241  0.00  0.00    +0.000 HD
ATOM      8  H   UNL     1       6.552   3.891  18.967  0.00  0.00    +0.000 HD
ENDROOT
BRANCH   1  10
ATOM      9  O   UNL     1       8.076   4.211  17.147  0.00  0.00    +0.000 OA
ATOM     10  N   UNL     1       7.225   4.939  16.603  0.00  0.00    +0.000 N 
ATOM     11  O   UNL     1       7.482   6.094  16.240  0.00  0.00    +0.000 OA
ENDBRANCH   1  10
TORSDOF 1
ENDMDL
MODEL 2
REMARK VINA RESULT:      -4.8      2.848      3.465
REMARK  Name = 
REMARK  1 active torsions:
REMARK  status: ('A' for Active; 'I' for Inactive)
REMARK    1  A    between atoms: N_2  and  N_4
REMARK                            x       y       z     vdW  Elec       q    Type
REMARK                         _______ _______ _______ _____ _____    ______ ____
ROOT
ATOM      1  N   UNL     1       6.965   4.096  15.814  0.00  0.00    +0.000 NA
ATOM      2  C   UNL     1       7.132   4.936  16.775  0.00  0.00    +0.000 C 
ATOM      3  N   UNL     1       7.224   4.539  18.088  0.00  0.00    +0.000 N 
ATOM      4  C   UNL     1       7.866   5.536  18.927  0.00  0.00    +0.000 C 
ATOM      5  C   UNL     1       7.703   6.816  18.095  0.00  0.00    +0.000 C 
ATOM      6  N   UNL     1       7.304   6.299  16.796  0.00  0.00    +0.000 N 
ATOM      7  H   UNL     1       7.395   3.557  18.261  0.00  0.00    +0.000 HD
ATOM      8  H   UNL     1       7.615   6.764  15.947  0.00  0.00    +0.000 HD
ENDROOT
BRANCH   1  10
ATOM      9  O   UNL     1       7.722   5.427  14.166  0.00  0.00    +0.000 OA
ATOM     10  N   UNL     1       6.888   4.595  14.567  0.00  0.00    +0.000 N 
ATOM     11  O   UNL     1       5.992   4.156  13.833  0.00  0.00    +0.000 OA
ENDBRANCH   1  10
TORSDOF 1
ENDMDL
MODEL 3
REMARK VINA RESULT:      -4.8      1.802      2.400
REMARK  Name = 
REMARK  1 active torsions:
REMARK  status: ('A' for Active; 'I' for Inactive)
REMARK    1  A    between atoms: N_2  and  N_4
REMARK                            x       y       z     vdW  Elec       q    Type
REMARK                         _______ _______ _______ _____ _____    ______ ____
ROOT
ATOM      1  N   UNL     1       7.460   4.522  16.181  0.00  0.00    +0.000 NA
ATOM      2  C   UNL     1       6.454   4.450  16.980  0.00  0.00    +0.000 C 
ATOM      3  N   UNL     1       6.605   4.276  18.335  0.00  0.00    +0.000 N 
ATOM      4  C   UNL     1       5.430   4.687  19.083  0.00  0.00    +0.000 C 
ATOM      5  C   UNL     1       4.333   4.656  18.010  0.00  0.00    +0.000 C 
ATOM      6  N   UNL     1       5.099   4.561  16.778  0.00  0.00    +0.000 N 
ATOM      7  H   UNL     1       7.526   4.444  18.721  0.00  0.00    +0.000 HD
ATOM      8  H   UNL     1       4.769   5.028  15.937  0.00  0.00    +0.000 HD
ENDROOT
BRANCH   1  10
ATOM      9  O   UNL     1       7.766   5.590  14.225  0.00  0.00    +0.000 OA
ATOM     10  N   UNL     1       7.197   4.693  14.872  0.00  0.00    +0.000 N 
ATOM     11  O   UNL     1       6.412   3.895  14.342  0.00  0.00    +0.000 OA
ENDBRANCH   1  10
TORSDOF 1
ENDMDL
MODEL 4
REMARK VINA RESULT:      -4.7      2.257      3.238
REMARK  Name = 
REMARK  1 active torsions:
REMARK  status: ('A' for Active; 'I' for Inactive)
REMARK    1  A    between atoms: N_2  and  N_4
REMARK                            x       y       z     vdW  Elec       q    Type
REMARK                         _______ _______ _______ _____ _____    ______ ____
ROOT
ATOM      1  N   UNL     1       6.583   4.933  19.002  0.00  0.00    +0.000 NA
ATOM      2  C   UNL     1       6.616   4.603  17.758  0.00  0.00    +0.000 C 
ATOM      3  N   UNL     1       5.604   3.891  17.161  0.00  0.00    +0.000 N 
ATOM      4  C   UNL     1       5.600   4.033  15.715  0.00  0.00    +0.000 C 
ATOM      5  C   UNL     1       7.034   4.500  15.430  0.00  0.00    +0.000 C 
ATOM      6  N   UNL     1       7.516   4.865  16.753  0.00  0.00    +0.000 N 
ATOM      7  H   UNL     1       4.724   3.835  17.658  0.00  0.00    +0.000 HD
ATOM      8  H   UNL     1       8.155   5.649  16.862  0.00  0.00    +0.000 HD
ENDROOT
BRANCH   1  10
ATOM      9  O   UNL     1       8.066   6.619  18.865  0.00  0.00    +0.000 OA
ATOM     10  N   UNL     1       7.629   5.630  19.482  0.00  0.00    +0.000 N 
ATOM     11  O   UNL     1       8.094   5.277  20.574  0.00  0.00    +0.000 OA
ENDBRANCH   1  10
TORSDOF 1
ENDMDL
MODEL 5
REMARK VINA RESULT:      -4.7      1.921      2.387
REMARK  Name = 
REMARK  1 active torsions:
REMARK  status: ('A' for Active; 'I' for Inactive)
REMARK    1  A    between atoms: N_2  and  N_4
REMARK                            x       y       z     vdW  Elec       q    Type
REMARK                         _______ _______ _______ _____ _____    ______ ____
ROOT
ATOM      1  N   UNL     1       7.463   4.450  16.131  0.00  0.00    +0.000 NA
ATOM      2  C   UNL     1       6.500   4.529  16.981  0.00  0.00    +0.000 C 
ATOM      3  N   UNL     1       6.692   4.328  18.328  0.00  0.00    +0.000 N 
ATOM      4  C   UNL     1       5.633   4.911  19.134  0.00  0.00    +0.000 C 
ATOM      5  C   UNL     1       4.491   5.052  18.118  0.00  0.00    +0.000 C 
ATOM      6  N   UNL     1       5.170   4.846  16.849  0.00  0.00    +0.000 N 
ATOM      7  H   UNL     1       7.646   4.352  18.665  0.00  0.00    +0.000 HD
ATOM      8  H   UNL     1       4.871   5.361  16.024  0.00  0.00    +0.000 HD
ENDROOT
BRANCH   1  10
ATOM      9  O   UNL     1       6.284   3.986  14.273  0.00  0.00    +0.000 OA
ATOM     10  N   UNL     1       7.162   4.664  14.837  0.00  0.00    +0.000 N 
ATOM     11  O   UNL     1       7.754   5.585  14.260  0.00  0.00    +0.000 OA
ENDBRANCH   1  10
TORSDOF 1
ENDMDL
MODEL 6
REMARK VINA RESULT:      -4.7      2.855      3.434
REMARK  Name = 
REMARK  1 active torsions:
REMARK  status: ('A' for Active; 'I' for Inactive)
REMARK    1  A    between atoms: N_2  and  N_4
REMARK                            x       y       z     vdW  Elec       q    Type
REMARK                         _______ _______ _______ _____ _____    ______ ____
ROOT
ATOM      1  N   UNL     1       7.017   4.069  15.813  0.00  0.00    +0.000 NA
ATOM      2  C   UNL     1       7.156   4.913  16.774  0.00  0.00    +0.000 C 
ATOM      3  N   UNL     1       7.276   4.519  18.086  0.00  0.00    +0.000 N 
ATOM      4  C   UNL     1       7.882   5.541  18.921  0.00  0.00    +0.000 C 
ATOM      5  C   UNL     1       7.657   6.814  18.093  0.00  0.00    +0.000 C 
ATOM      6  N   UNL     1       7.269   6.283  16.797  0.00  0.00    +0.000 N 
ATOM      7  H   UNL     1       7.490   3.544  18.256  0.00  0.00    +0.000 HD
ATOM      8  H   UNL     1       7.554   6.762  15.946  0.00  0.00    +0.000 HD
ENDROOT
BRANCH   1  10
ATOM      9  O   UNL     1       5.942   4.258  13.847  0.00  0.00    +0.000 OA
ATOM     10  N   UNL     1       6.908   4.566  14.568  0.00  0.00    +0.000 N 
ATOM     11  O   UNL     1       7.775   5.369  14.199  0.00  0.00    +0.000 OA
ENDBRANCH   1  10
TORSDOF 1
ENDMDL
MODEL 7
REMARK VINA RESULT:      -4.7      2.768      3.571
REMARK  Name = 
REMARK  1 active torsions:
REMARK  status: ('A' for Active; 'I' for Inactive)
REMARK    1  A    between atoms: N_2  and  N_4
REMARK                            x       y       z     vdW  Elec       q    Type
REMARK                         _______ _______ _______ _____ _____    ______ ____
ROOT
ATOM      1  N   UNL     1       7.346   6.002  18.230  0.00  0.00    +0.000 NA
ATOM      2  C   UNL     1       6.907   5.395  17.184  0.00  0.00    +0.000 C 
ATOM      3  N   UNL     1       7.263   5.777  15.912  0.00  0.00    +0.000 N 
ATOM      4  C   UNL     1       7.062   4.718  14.937  0.00  0.00    +0.000 C 
ATOM      5  C   UNL     1       6.058   3.803  15.652  0.00  0.00    +0.000 C 
ATOM      6  N   UNL     1       6.102   4.294  17.019  0.00  0.00    +0.000 N 
ATOM      7  H   UNL     1       8.061   6.392  15.822  0.00  0.00    +0.000 HD
ATOM      8  H   UNL     1       6.001   3.644  17.795  0.00  0.00    +0.000 HD
ENDROOT
BRANCH   1  10
ATOM      9  O   UNL     1       5.723   5.343  19.642  0.00  0.00    +0.000 OA
ATOM     10  N   UNL     1       6.932   5.545  19.426  0.00  0.00    +0.000 N 
ATOM     11  O   UNL     1       7.803   5.292  20.270  0.00  0.00    +0.000 OA
ENDBRANCH   1  10
TORSDOF 1
ENDMDL
MODEL 8
REMARK VINA RESULT:      -4.7      1.430      1.843
REMARK  Name = 
REMARK  1 active torsions:
REMARK  status: ('A' for Active; 'I' for Inactive)
REMARK    1  A    between atoms: N_2  and  N_4
REMARK                            x       y       z     vdW  Elec       q    Type
REMARK                         _______ _______ _______ _____ _____    ______ ____
ROOT
ATOM      1  N   UNL     1       6.365   5.468  18.079  0.00  0.00    +0.000 NA
ATOM      2  C   UNL     1       5.528   4.772  18.766  0.00  0.00    +0.000 C 
ATOM      3  N   UNL     1       4.437   5.338  19.382  0.00  0.00    +0.000 N 
ATOM      4  C   UNL     1       3.401   4.364  19.683  0.00  0.00    +0.000 C 
ATOM      5  C   UNL     1       4.179   3.041  19.652  0.00  0.00    +0.000 C 
ATOM      6  N   UNL     1       5.432   3.426  19.024  0.00  0.00    +0.000 N 
ATOM      7  H   UNL     1       4.174   6.270  19.090  0.00  0.00    +0.000 HD
ATOM      8  H   UNL     1       5.911   2.776  18.405  0.00  0.00    +0.000 HD
ENDROOT
BRANCH   1  10
ATOM      9  O   UNL     1       7.515   4.756  16.282  0.00  0.00    +0.000 OA
ATOM     10  N   UNL     1       7.398   4.812  17.520  0.00  0.00    +0.000 N 
ATOM     11  O   UNL     1       8.238   4.318  18.283  0.00  0.00    +0.000 OA
ENDBRANCH   1  10
TORSDOF 1
ENDMDL
MODEL 9
REMARK VINA RESULT:      -4.6      2.708      3.161
REMARK  Name = 
REMARK  1 active torsions:
REMARK  status: ('A' for Active; 'I' for Inactive)
REMARK    1  A    between atoms: N_2  and  N_4
REMARK                            x       y       z     vdW  Elec       q    Type
REMARK                         _______ _______ _______ _____ _____    ______ ____
ROOT
ATOM      1  N   UNL     1       7.765   4.661  18.228  0.00  0.00    +0.000 NA
ATOM      2  C   UNL     1       7.034   4.883  17.193  0.00  0.00    +0.000 C 
ATOM      3  N   UNL     1       6.877   3.952  16.193  0.00  0.00    +0.000 N 
ATOM      4  C   UNL     1       5.687   4.190  15.393  0.00  0.00    +0.000 C 
ATOM      5  C   UNL     1       5.393   5.669  15.678  0.00  0.00    +0.000 C 
ATOM      6  N   UNL     1       6.241   5.944  16.827  0.00  0.00    +0.000 N 
ATOM      7  H   UNL     1       7.156   3.002  16.400  0.00  0.00    +0.000 HD
ATOM      8  H   UNL     1       5.925   6.588  17.548  0.00  0.00    +0.000 HD
ENDROOT
BRANCH   1  10
ATOM      9  O   UNL     1       7.649   5.401  20.349  0.00  0.00    +0.000 OA
ATOM     10  N   UNL     1       7.848   5.643  19.145  0.00  0.00    +0.000 N 
ATOM     11  O   UNL     1       8.176   6.767  18.745  0.00  0.00    +0.000 OA
ENDBRANCH   1  10
TORSDOF 1
ENDMDL
