MODEL 1
REMARK VINA RESULT:      -8.0      0.000      0.000
REMARK  Name = 
REMARK  6 active torsions:
REMARK  status: ('A' for Active; 'I' for Inactive)
REMARK    1  A    between atoms: C_2  and  O_3
REMARK    2  A    between atoms: C_2  and  C_4
REMARK    3  A    between atoms: C_4  and  C_5
REMARK    4  A    between atoms: C_5  and  C_6
REMARK    5  A    between atoms: C_10  and  C_11
REMARK    6  A    between atoms: C_14  and  C_15
REMARK                            x       y       z     vdW  Elec       q    Type
REMARK                         _______ _______ _______ _____ _____    ______ ____
ROOT
ATOM      1  C   UNL     1       0.480  10.025  21.488  0.00  0.00    +0.000 A 
ATOM      2  C   UNL     1       0.818   8.885  22.189  0.00  0.00    +0.000 A 
ATOM      3  N   UNL     1       1.448   8.030  21.330  0.00  0.00    +0.000 N 
ATOM      4  C   UNL     1       1.540   8.582  20.069  0.00  0.00    +0.000 A 
ATOM      5  C   UNL     1       2.129   8.083  18.886  0.00  0.00    +0.000 A 
ATOM      6  C   UNL     1       2.062   8.890  17.744  0.00  0.00    +0.000 A 
ATOM      7  C   UNL     1       1.446  10.138  17.784  0.00  0.00    +0.000 A 
ATOM      8  C   UNL     1       0.877  10.619  18.969  0.00  0.00    +0.000 A 
ATOM      9  C   UNL     1       0.923   9.832  20.138  0.00  0.00    +0.000 A 
ATOM     10  H   UNL     1       1.830   7.120  21.563  0.00  0.00    +0.000 HD
ENDROOT
BRANCH   5  11
ATOM     11  C   UNL     1       2.815   6.802  18.899  0.00  0.00    +0.000 A 
ATOM     12  N   UNL     1       3.944   6.514  18.230  0.00  0.00    +0.000 NA
ATOM     13  O   UNL     1       4.235   5.199  18.615  0.00  0.00    +0.000 OA
ATOM     14  C   UNL     1       3.247   4.829  19.476  0.00  0.00    +0.000 A 
ATOM     15  N   UNL     1       2.350   5.764  19.667  0.00  0.00    +0.000 NA
BRANCH  14  16
ATOM     16  C   UNL     1       3.295   3.466  20.078  0.00  0.00    +0.000 C 
ATOM     17  C   UNL     1       2.015   3.177  20.880  0.00  0.00    +0.000 C 
ATOM     18  C   UNL     1       0.770   3.025  20.002  0.00  0.00    +0.000 C 
ATOM     19  C   UNL     1       0.975   2.030  18.861  0.00  0.00    +0.000 C 
ATOM     20  C   UNL     1       2.267   2.248  18.077  0.00  0.00    +0.000 C 
ATOM     21  C   UNL     1       3.487   2.401  18.988  0.00  0.00    +0.000 C 
ENDBRANCH  14  16
ENDBRANCH   5  11
BRANCH   1  22
ATOM     22  C   UNL     1      -0.202  11.238  22.044  0.00  0.00    +0.000 C 
BRANCH  22  23
ATOM     23  C   UNL     1      -1.246  10.876  23.095  0.00  0.00    +0.000 C 
BRANCH  23  25
ATOM     24  O   UNL     1      -3.386  11.810  23.753  0.00  0.00    +0.000 OA
ATOM     25  C   UNL     1      -2.313  11.936  23.190  0.00  0.00    +0.000 C 
BRANCH  25  26
ATOM     26  O   UNL     1      -1.955  13.086  22.570  0.00  0.00    +0.000 OA
ATOM     27  H   UNL     1      -2.185  13.892  23.068  0.00  0.00    +0.000 HD
ENDBRANCH  25  26
ENDBRANCH  23  25
ENDBRANCH  22  23
ENDBRANCH   1  22
TORSDOF 6
ENDMDL
MODEL 2
REMARK VINA RESULT:      -7.6      2.140      8.207
REMARK  Name = 
REMARK  6 active torsions:
REMARK  status: ('A' for Active; 'I' for Inactive)
REMARK    1  A    between atoms: C_2  and  O_3
REMARK    2  A    between atoms: C_2  and  C_4
REMARK    3  A    between atoms: C_4  and  C_5
REMARK    4  A    between atoms: C_5  and  C_6
REMARK    5  A    between atoms: C_10  and  C_11
REMARK    6  A    between atoms: C_14  and  C_15
REMARK                            x       y       z     vdW  Elec       q    Type
REMARK                         _______ _______ _______ _____ _____    ______ ____
ROOT
ATOM      1  C   UNL     1       2.423   6.017  19.368  0.00  0.00    +0.000 A 
ATOM      2  C   UNL     1       1.993   5.915  20.676  0.00  0.00    +0.000 A 
ATOM      3  N   UNL     1       1.493   7.129  21.054  0.00  0.00    +0.000 N 
ATOM      4  C   UNL     1       1.578   8.038  20.019  0.00  0.00    +0.000 A 
ATOM      5  C   UNL     1       1.162   9.386  19.941  0.00  0.00    +0.000 A 
ATOM      6  C   UNL     1       1.386  10.059  18.734  0.00  0.00    +0.000 A 
ATOM      7  C   UNL     1       1.987   9.415  17.656  0.00  0.00    +0.000 A 
ATOM      8  C   UNL     1       2.382   8.075  17.750  0.00  0.00    +0.000 A 
ATOM      9  C   UNL     1       2.175   7.366  18.950  0.00  0.00    +0.000 A 
ATOM     10  H   UNL     1       1.086   7.355  21.955  0.00  0.00    +0.000 HD
ENDROOT
BRANCH   5  11
ATOM     11  C   UNL     1       0.486  10.005  21.068  0.00  0.00    +0.000 A 
ATOM     12  N   UNL     1       0.897   9.961  22.346  0.00  0.00    +0.000 NA
ATOM     13  O   UNL     1      -0.038  10.751  23.026  0.00  0.00    +0.000 OA
ATOM     14  C   UNL     1      -0.921  11.188  22.086  0.00  0.00    +0.000 A 
ATOM     15  N   UNL     1      -0.654  10.746  20.881  0.00  0.00    +0.000 NA
BRANCH  14  16
ATOM     16  C   UNL     1      -2.038  12.078  22.510  0.00  0.00    +0.000 C 
ATOM     17  C   UNL     1      -1.527  13.193  23.438  0.00  0.00    +0.000 C 
ATOM     18  C   UNL     1      -0.640  14.216  22.725  0.00  0.00    +0.000 C 
ATOM     19  C   UNL     1      -1.287  14.771  21.457  0.00  0.00    +0.000 C 
ATOM     20  C   UNL     1      -1.860  13.697  20.537  0.00  0.00    +0.000 C 
ATOM     21  C   UNL     1      -2.736  12.690  21.286  0.00  0.00    +0.000 C 
ENDBRANCH  14  16
ENDBRANCH   5  11
BRANCH   1  22
ATOM     22  C   UNL     1       3.016   4.917  18.541  0.00  0.00    +0.000 C 
BRANCH  22  23
ATOM     23  C   UNL     1       1.963   4.204  17.700  0.00  0.00    +0.000 C 
BRANCH  23  25
ATOM     24  O   UNL     1       0.745   2.790  19.250  0.00  0.00    +0.000 OA
ATOM     25  C   UNL     1       1.544   2.905  18.337  0.00  0.00    +0.000 C 
BRANCH  25  26
ATOM     26  O   UNL     1       2.159   1.834  17.780  0.00  0.00    +0.000 OA
ATOM     27  H   UNL     1       2.031   1.002  18.274  0.00  0.00    +0.000 HD
ENDBRANCH  25  26
ENDBRANCH  23  25
ENDBRANCH  22  23
ENDBRANCH   1  22
TORSDOF 6
ENDMDL
MODEL 3
REMARK VINA RESULT:      -7.5      2.467      8.409
REMARK  Name = 
REMARK  6 active torsions:
REMARK  status: ('A' for Active; 'I' for Inactive)
REMARK    1  A    between atoms: C_2  and  O_3
REMARK    2  A    between atoms: C_2  and  C_4
REMARK    3  A    between atoms: C_4  and  C_5
REMARK    4  A    between atoms: C_5  and  C_6
REMARK    5  A    between atoms: C_10  and  C_11
REMARK    6  A    between atoms: C_14  and  C_15
REMARK                            x       y       z     vdW  Elec       q    Type
REMARK                         _______ _______ _______ _____ _____    ______ ____
ROOT
ATOM      1  C   UNL     1       3.868   5.957  17.493  0.00  0.00    +0.000 A 
ATOM      2  C   UNL     1       3.891   7.320  17.281  0.00  0.00    +0.000 A 
ATOM      3  N   UNL     1       3.119   7.912  18.240  0.00  0.00    +0.000 N 
ATOM      4  C   UNL     1       2.585   6.966  19.092  0.00  0.00    +0.000 A 
ATOM      5  C   UNL     1       1.764   7.113  20.232  0.00  0.00    +0.000 A 
ATOM      6  C   UNL     1       1.378   5.946  20.902  0.00  0.00    +0.000 A 
ATOM      7  C   UNL     1       1.801   4.694  20.460  0.00  0.00    +0.000 A 
ATOM      8  C   UNL     1       2.623   4.571  19.334  0.00  0.00    +0.000 A 
ATOM      9  C   UNL     1       3.029   5.725  18.633  0.00  0.00    +0.000 A 
ATOM     10  H   UNL     1       2.961   8.907  18.353  0.00  0.00    +0.000 HD
ENDROOT
BRANCH   5  11
ATOM     11  C   UNL     1       1.392   8.439  20.695  0.00  0.00    +0.000 A 
ATOM     12  N   UNL     1       1.235   8.802  21.979  0.00  0.00    +0.000 NA
ATOM     13  O   UNL     1       0.949  10.171  21.908  0.00  0.00    +0.000 OA
ATOM     14  C   UNL     1       0.960  10.492  20.585  0.00  0.00    +0.000 A 
ATOM     15  N   UNL     1       1.208   9.468  19.806  0.00  0.00    +0.000 NA
BRANCH  14  16
ATOM     16  C   UNL     1       0.703  11.905  20.188  0.00  0.00    +0.000 C 
ATOM     17  C   UNL     1       0.079  11.975  18.784  0.00  0.00    +0.000 C 
ATOM     18  C   UNL     1      -1.350  11.430  18.728  0.00  0.00    +0.000 C 
ATOM     19  C   UNL     1      -2.255  12.045  19.794  0.00  0.00    +0.000 C 
ATOM     20  C   UNL     1      -1.645  12.048  21.193  0.00  0.00    +0.000 C 
ATOM     21  C   UNL     1      -0.215  12.594  21.209  0.00  0.00    +0.000 C 
ENDBRANCH  14  16
ENDBRANCH   5  11
BRANCH   1  22
ATOM     22  C   UNL     1       4.600   4.922  16.694  0.00  0.00    +0.000 C 
BRANCH  22  23
ATOM     23  C   UNL     1       5.803   4.364  17.446  0.00  0.00    +0.000 C 
BRANCH  23  25
ATOM     24  O   UNL     1       7.207   5.644  15.937  0.00  0.00    +0.000 OA
ATOM     25  C   UNL     1       7.095   4.787  16.797  0.00  0.00    +0.000 C 
BRANCH  25  26
ATOM     26  O   UNL     1       8.162   4.103  17.276  0.00  0.00    +0.000 OA
ATOM     27  H   UNL     1       9.023   4.470  17.000  0.00  0.00    +0.000 HD
ENDBRANCH  25  26
ENDBRANCH  23  25
ENDBRANCH  22  23
ENDBRANCH   1  22
TORSDOF 6
ENDMDL
MODEL 4
REMARK VINA RESULT:      -7.5      2.160      8.285
REMARK  Name = 
REMARK  6 active torsions:
REMARK  status: ('A' for Active; 'I' for Inactive)
REMARK    1  A    between atoms: C_2  and  O_3
REMARK    2  A    between atoms: C_2  and  C_4
REMARK    3  A    between atoms: C_4  and  C_5
REMARK    4  A    between atoms: C_5  and  C_6
REMARK    5  A    between atoms: C_10  and  C_11
REMARK    6  A    between atoms: C_14  and  C_15
REMARK                            x       y       z     vdW  Elec       q    Type
REMARK                         _______ _______ _______ _____ _____    ______ ____
ROOT
ATOM      1  C   UNL     1       2.617   6.348  19.245  0.00  0.00    +0.000 A 
ATOM      2  C   UNL     1       2.235   6.120  20.551  0.00  0.00    +0.000 A 
ATOM      3  N   UNL     1       1.651   7.260  21.028  0.00  0.00    +0.000 N 
ATOM      4  C   UNL     1       1.634   8.243  20.059  0.00  0.00    +0.000 A 
ATOM      5  C   UNL     1       1.110   9.555  20.088  0.00  0.00    +0.000 A 
ATOM      6  C   UNL     1       1.245  10.327  18.928  0.00  0.00    +0.000 A 
ATOM      7  C   UNL     1       1.863   9.810  17.792  0.00  0.00    +0.000 A 
ATOM      8  C   UNL     1       2.366   8.504  17.780  0.00  0.00    +0.000 A 
ATOM      9  C   UNL     1       2.250   7.698  18.931  0.00  0.00    +0.000 A 
ATOM     10  H   UNL     1       1.254   7.389  21.951  0.00  0.00    +0.000 HD
ENDROOT
BRANCH   5  11
ATOM     11  C   UNL     1       0.420  10.037  21.272  0.00  0.00    +0.000 A 
ATOM     12  N   UNL     1       0.742   9.736  22.541  0.00  0.00    +0.000 NA
ATOM     13  O   UNL     1      -0.162  10.486  23.303  0.00  0.00    +0.000 OA
ATOM     14  C   UNL     1      -0.940  11.161  22.412  0.00  0.00    +0.000 A 
ATOM     15  N   UNL     1      -0.636  10.907  21.163  0.00  0.00    +0.000 NA
BRANCH  14  16
ATOM     16  C   UNL     1      -1.998  12.072  22.932  0.00  0.00    +0.000 C 
ATOM     17  C   UNL     1      -1.380  13.352  23.518  0.00  0.00    +0.000 C 
ATOM     18  C   UNL     1      -0.755  14.264  22.459  0.00  0.00    +0.000 C 
ATOM     19  C   UNL     1      -1.710  14.560  21.303  0.00  0.00    +0.000 C 
ATOM     20  C   UNL     1      -2.390  13.318  20.732  0.00  0.00    +0.000 C 
ATOM     21  C   UNL     1      -2.997  12.430  21.820  0.00  0.00    +0.000 C 
ENDBRANCH  14  16
ENDBRANCH   5  11
BRANCH   1  22
ATOM     22  C   UNL     1       3.271   5.361  18.327  0.00  0.00    +0.000 C 
BRANCH  22  23
ATOM     23  C   UNL     1       4.761   5.637  18.157  0.00  0.00    +0.000 C 
BRANCH  23  25
ATOM     24  O   UNL     1       6.594   5.294  19.710  0.00  0.00    +0.000 OA
ATOM     25  C   UNL     1       5.574   4.887  19.182  0.00  0.00    +0.000 C 
BRANCH  25  26
ATOM     26  O   UNL     1       5.044   3.675  19.475  0.00  0.00    +0.000 OA
ATOM     27  H   UNL     1       4.840   3.133  18.690  0.00  0.00    +0.000 HD
ENDBRANCH  25  26
ENDBRANCH  23  25
ENDBRANCH  22  23
ENDBRANCH   1  22
TORSDOF 6
ENDMDL
MODEL 5
REMARK VINA RESULT:      -7.4      3.460      8.888
REMARK  Name = 
REMARK  6 active torsions:
REMARK  status: ('A' for Active; 'I' for Inactive)
REMARK    1  A    between atoms: C_2  and  O_3
REMARK    2  A    between atoms: C_2  and  C_4
REMARK    3  A    between atoms: C_4  and  C_5
REMARK    4  A    between atoms: C_5  and  C_6
REMARK    5  A    between atoms: C_10  and  C_11
REMARK    6  A    between atoms: C_14  and  C_15
REMARK                            x       y       z     vdW  Elec       q    Type
REMARK                         _______ _______ _______ _____ _____    ______ ____
ROOT
ATOM      1  C   UNL     1       5.735   5.270  16.425  0.00  0.00    +0.000 A 
ATOM      2  C   UNL     1       5.906   6.622  16.640  0.00  0.00    +0.000 A 
ATOM      3  N   UNL     1       4.800   7.093  17.288  0.00  0.00    +0.000 N 
ATOM      4  C   UNL     1       3.894   6.076  17.512  0.00  0.00    +0.000 A 
ATOM      5  C   UNL     1       2.642   6.087  18.167  0.00  0.00    +0.000 A 
ATOM      6  C   UNL     1       1.944   4.875  18.238  0.00  0.00    +0.000 A 
ATOM      7  C   UNL     1       2.475   3.709  17.692  0.00  0.00    +0.000 A 
ATOM      8  C   UNL     1       3.723   3.718  17.057  0.00  0.00    +0.000 A 
ATOM      9  C   UNL     1       4.453   4.920  16.964  0.00  0.00    +0.000 A 
ATOM     10  H   UNL     1       4.646   8.046  17.596  0.00  0.00    +0.000 HD
ENDROOT
BRANCH   5  11
ATOM     11  C   UNL     1       2.149   7.310  18.775  0.00  0.00    +0.000 A 
ATOM     12  N   UNL     1       1.959   7.507  20.090  0.00  0.00    +0.000 NA
ATOM     13  O   UNL     1       1.546   8.843  20.173  0.00  0.00    +0.000 OA
ATOM     14  C   UNL     1       1.526   9.313  18.895  0.00  0.00    +0.000 A 
ATOM     15  N   UNL     1       1.868   8.412  18.007  0.00  0.00    +0.000 NA
BRANCH  14  16
ATOM     16  C   UNL     1       1.138  10.732  18.660  0.00  0.00    +0.000 C 
ATOM     17  C   UNL     1      -0.320  10.829  18.180  0.00  0.00    +0.000 C 
ATOM     18  C   UNL     1      -1.340  10.460  19.260  0.00  0.00    +0.000 C 
ATOM     19  C   UNL     1      -1.110  11.218  20.567  0.00  0.00    +0.000 C 
ATOM     20  C   UNL     1       0.339  11.195  21.046  0.00  0.00    +0.000 C 
ATOM     21  C   UNL     1       1.329  11.563  19.938  0.00  0.00    +0.000 C 
ENDBRANCH  14  16
ENDBRANCH   5  11
BRANCH   1  22
ATOM     22  C   UNL     1       6.715   4.345  15.771  0.00  0.00    +0.000 C 
BRANCH  22  23
ATOM     23  C   UNL     1       6.275   3.946  14.366  0.00  0.00    +0.000 C 
BRANCH  23  25
ATOM     24  O   UNL     1       7.178   4.280  12.139  0.00  0.00    +0.000 OA
ATOM     25  C   UNL     1       7.153   4.582  13.319  0.00  0.00    +0.000 C 
BRANCH  25  26
ATOM     26  O   UNL     1       7.941   5.558  13.830  0.00  0.00    +0.000 OA
ATOM     27  H   UNL     1       7.769   5.754  14.770  0.00  0.00    +0.000 HD
ENDBRANCH  25  26
ENDBRANCH  23  25
ENDBRANCH  22  23
ENDBRANCH   1  22
TORSDOF 6
ENDMDL
MODEL 6
REMARK VINA RESULT:      -7.4      1.932      2.967
REMARK  Name = 
REMARK  6 active torsions:
REMARK  status: ('A' for Active; 'I' for Inactive)
REMARK    1  A    between atoms: C_2  and  O_3
REMARK    2  A    between atoms: C_2  and  C_4
REMARK    3  A    between atoms: C_4  and  C_5
REMARK    4  A    between atoms: C_5  and  C_6
REMARK    5  A    between atoms: C_10  and  C_11
REMARK    6  A    between atoms: C_14  and  C_15
REMARK                            x       y       z     vdW  Elec       q    Type
REMARK                         _______ _______ _______ _____ _____    ______ ____
ROOT
ATOM      1  C   UNL     1       0.453  10.110  21.562  0.00  0.00    +0.000 A 
ATOM      2  C   UNL     1       0.915   9.092  22.371  0.00  0.00    +0.000 A 
ATOM      3  N   UNL     1       1.523   8.161  21.578  0.00  0.00    +0.000 N 
ATOM      4  C   UNL     1       1.478   8.543  20.252  0.00  0.00    +0.000 A 
ATOM      5  C   UNL     1       1.998   7.919  19.096  0.00  0.00    +0.000 A 
ATOM      6  C   UNL     1       1.790   8.562  17.870  0.00  0.00    +0.000 A 
ATOM      7  C   UNL     1       1.105   9.773  17.803  0.00  0.00    +0.000 A 
ATOM      8  C   UNL     1       0.607  10.380  18.962  0.00  0.00    +0.000 A 
ATOM      9  C   UNL     1       0.796   9.761  20.214  0.00  0.00    +0.000 A 
ATOM     10  H   UNL     1       1.975   7.310  21.891  0.00  0.00    +0.000 HD
ENDROOT
BRANCH   5  11
ATOM     11  C   UNL     1       2.757   6.686  19.213  0.00  0.00    +0.000 A 
ATOM     12  N   UNL     1       2.581   5.747  20.158  0.00  0.00    +0.000 NA
ATOM     13  O   UNL     1       3.491   4.743  19.806  0.00  0.00    +0.000 OA
ATOM     14  C   UNL     1       4.126   5.183  18.684  0.00  0.00    +0.000 A 
ATOM     15  N   UNL     1       3.726   6.369  18.295  0.00  0.00    +0.000 NA
BRANCH  14  16
ATOM     16  C   UNL     1       5.155   4.309  18.054  0.00  0.00    +0.000 C 
ATOM     17  C   UNL     1       5.095   4.411  16.520  0.00  0.00    +0.000 C 
ATOM     18  C   UNL     1       5.551   5.771  15.985  0.00  0.00    +0.000 C 
ATOM     19  C   UNL     1       6.911   6.193  16.540  0.00  0.00    +0.000 C 
ATOM     20  C   UNL     1       7.030   6.049  18.055  0.00  0.00    +0.000 C 
ATOM     21  C   UNL     1       6.559   4.680  18.553  0.00  0.00    +0.000 C 
ENDBRANCH  14  16
ENDBRANCH   5  11
BRANCH   1  22
ATOM     22  C   UNL     1      -0.251  11.352  22.014  0.00  0.00    +0.000 C 
BRANCH  22  23
ATOM     23  C   UNL     1      -1.324  11.054  23.057  0.00  0.00    +0.000 C 
BRANCH  23  25
ATOM     24  O   UNL     1      -2.474  13.036  22.259  0.00  0.00    +0.000 OA
ATOM     25  C   UNL     1      -2.441  12.063  22.993  0.00  0.00    +0.000 C 
BRANCH  25  26
ATOM     26  O   UNL     1      -3.444  11.779  23.858  0.00  0.00    +0.000 OA
ATOM     27  H   UNL     1      -3.477  12.369  24.634  0.00  0.00    +0.000 HD
ENDBRANCH  25  26
ENDBRANCH  23  25
ENDBRANCH  22  23
ENDBRANCH   1  22
TORSDOF 6
ENDMDL
MODEL 7
REMARK VINA RESULT:      -7.4      1.896      8.384
REMARK  Name = 
REMARK  6 active torsions:
REMARK  status: ('A' for Active; 'I' for Inactive)
REMARK    1  A    between atoms: C_2  and  O_3
REMARK    2  A    between atoms: C_2  and  C_4
REMARK    3  A    between atoms: C_4  and  C_5
REMARK    4  A    between atoms: C_5  and  C_6
REMARK    5  A    between atoms: C_10  and  C_11
REMARK    6  A    between atoms: C_14  and  C_15
REMARK                            x       y       z     vdW  Elec       q    Type
REMARK                         _______ _______ _______ _____ _____    ______ ____
ROOT
ATOM      1  C   UNL     1       2.568   6.141  19.397  0.00  0.00    +0.000 A 
ATOM      2  C   UNL     1       2.154   6.003  20.707  0.00  0.00    +0.000 A 
ATOM      3  N   UNL     1       1.597   7.186  21.103  0.00  0.00    +0.000 N 
ATOM      4  C   UNL     1       1.628   8.109  20.077  0.00  0.00    +0.000 A 
ATOM      5  C   UNL     1       1.144   9.435  20.018  0.00  0.00    +0.000 A 
ATOM      6  C   UNL     1       1.324  10.132  18.817  0.00  0.00    +0.000 A 
ATOM      7  C   UNL     1       1.948   9.531  17.727  0.00  0.00    +0.000 A 
ATOM      8  C   UNL     1       2.411   8.212  17.803  0.00  0.00    +0.000 A 
ATOM      9  C   UNL     1       2.248   7.481  18.997  0.00  0.00    +0.000 A 
ATOM     10  H   UNL     1       1.186   7.381  22.008  0.00  0.00    +0.000 HD
ENDROOT
BRANCH   5  11
ATOM     11  C   UNL     1       0.446  10.007  21.156  0.00  0.00    +0.000 A 
ATOM     12  N   UNL     1       0.816   9.884  22.442  0.00  0.00    +0.000 NA
ATOM     13  O   UNL     1      -0.123  10.656  23.137  0.00  0.00    +0.000 OA
ATOM     14  C   UNL     1      -0.967  11.164  22.196  0.00  0.00    +0.000 A 
ATOM     15  N   UNL     1      -0.672  10.783  20.977  0.00  0.00    +0.000 NA
BRANCH  14  16
ATOM     16  C   UNL     1      -2.077  12.055  22.636  0.00  0.00    +0.000 C 
ATOM     17  C   UNL     1      -1.550  13.183  23.537  0.00  0.00    +0.000 C 
ATOM     18  C   UNL     1      -0.685  14.201  22.790  0.00  0.00    +0.000 C 
ATOM     19  C   UNL     1      -1.365  14.737  21.532  0.00  0.00    +0.000 C 
ATOM     20  C   UNL     1      -1.955  13.649  20.639  0.00  0.00    +0.000 C 
ATOM     21  C   UNL     1      -2.808  12.647  21.421  0.00  0.00    +0.000 C 
ENDBRANCH  14  16
ENDBRANCH   5  11
BRANCH   1  22
ATOM     22  C   UNL     1       3.209   5.082  18.553  0.00  0.00    +0.000 C 
BRANCH  22  23
ATOM     23  C   UNL     1       3.120   3.704  19.201  0.00  0.00    +0.000 C 
BRANCH  23  25
ATOM     24  O   UNL     1       4.809   2.256  20.170  0.00  0.00    +0.000 OA
ATOM     25  C   UNL     1       4.483   3.073  19.327  0.00  0.00    +0.000 C 
BRANCH  25  26
ATOM     26  O   UNL     1       5.346   3.513  18.380  0.00  0.00    +0.000 OA
ATOM     27  H   UNL     1       5.010   4.267  17.859  0.00  0.00    +0.000 HD
ENDBRANCH  25  26
ENDBRANCH  23  25
ENDBRANCH  22  23
ENDBRANCH   1  22
TORSDOF 6
ENDMDL
MODEL 8
REMARK VINA RESULT:      -7.4      2.149      7.966
REMARK  Name = 
REMARK  6 active torsions:
REMARK  status: ('A' for Active; 'I' for Inactive)
REMARK    1  A    between atoms: C_2  and  O_3
REMARK    2  A    between atoms: C_2  and  C_4
REMARK    3  A    between atoms: C_4  and  C_5
REMARK    4  A    between atoms: C_5  and  C_6
REMARK    5  A    between atoms: C_10  and  C_11
REMARK    6  A    between atoms: C_14  and  C_15
REMARK                            x       y       z     vdW  Elec       q    Type
REMARK                         _______ _______ _______ _____ _____    ______ ____
ROOT
ATOM      1  C   UNL     1       3.136   4.592  19.818  0.00  0.00    +0.000 A 
ATOM      2  C   UNL     1       2.329   4.815  20.915  0.00  0.00    +0.000 A 
ATOM      3  N   UNL     1       1.847   6.090  20.837  0.00  0.00    +0.000 N 
ATOM      4  C   UNL     1       2.315   6.721  19.702  0.00  0.00    +0.000 A 
ATOM      5  C   UNL     1       2.060   8.016  19.197  0.00  0.00    +0.000 A 
ATOM      6  C   UNL     1       2.691   8.376  18.000  0.00  0.00    +0.000 A 
ATOM      7  C   UNL     1       3.528   7.482  17.336  0.00  0.00    +0.000 A 
ATOM      8  C   UNL     1       3.759   6.200  17.847  0.00  0.00    +0.000 A 
ATOM      9  C   UNL     1       3.142   5.804  19.051  0.00  0.00    +0.000 A 
ATOM     10  H   UNL     1       1.211   6.532  21.491  0.00  0.00    +0.000 HD
ENDROOT
BRANCH   5  11
ATOM     11  C   UNL     1       1.135   8.898  19.889  0.00  0.00    +0.000 A 
ATOM     12  N   UNL     1       0.956   8.954  21.219  0.00  0.00    +0.000 NA
ATOM     13  O   UNL     1       0.027   9.988  21.389  0.00  0.00    +0.000 OA
ATOM     14  C   UNL     1      -0.261  10.448  20.140  0.00  0.00    +0.000 A 
ATOM     15  N   UNL     1       0.376   9.804  19.192  0.00  0.00    +0.000 NA
BRANCH  14  16
ATOM     16  C   UNL     1      -1.220  11.579  19.996  0.00  0.00    +0.000 C 
ATOM     17  C   UNL     1      -1.068  12.576  21.157  0.00  0.00    +0.000 C 
ATOM     18  C   UNL     1       0.250  13.352  21.120  0.00  0.00    +0.000 C 
ATOM     19  C   UNL     1       0.511  14.002  19.762  0.00  0.00    +0.000 C 
ATOM     20  C   UNL     1       0.312  13.058  18.579  0.00  0.00    +0.000 C 
ATOM     21  C   UNL     1      -1.013  12.296  18.653  0.00  0.00    +0.000 C 
ENDBRANCH  14  16
ENDBRANCH   5  11
BRANCH   1  22
ATOM     22  C   UNL     1       3.850   3.318  19.486  0.00  0.00    +0.000 C 
BRANCH  22  23
ATOM     23  C   UNL     1       2.884   2.152  19.303  0.00  0.00    +0.000 C 
BRANCH  23  25
ATOM     24  O   UNL     1       2.290   2.888  17.068  0.00  0.00    +0.000 OA
ATOM     25  C   UNL     1       1.967   2.384  18.130  0.00  0.00    +0.000 C 
BRANCH  25  26
ATOM     26  O   UNL     1       0.702   1.963  18.372  0.00  0.00    +0.000 OA
ATOM     27  H   UNL     1       0.147   2.622  18.829  0.00  0.00    +0.000 HD
ENDBRANCH  25  26
ENDBRANCH  23  25
ENDBRANCH  22  23
ENDBRANCH   1  22
TORSDOF 6
ENDMDL
MODEL 9
REMARK VINA RESULT:      -7.3      1.828      2.198
REMARK  Name = 
REMARK  6 active torsions:
REMARK  status: ('A' for Active; 'I' for Inactive)
REMARK    1  A    between atoms: C_2  and  O_3
REMARK    2  A    between atoms: C_2  and  C_4
REMARK    3  A    between atoms: C_4  and  C_5
REMARK    4  A    between atoms: C_5  and  C_6
REMARK    5  A    between atoms: C_10  and  C_11
REMARK    6  A    between atoms: C_14  and  C_15
REMARK                            x       y       z     vdW  Elec       q    Type
REMARK                         _______ _______ _______ _____ _____    ______ ____
ROOT
ATOM      1  C   UNL     1       0.183  10.684  21.332  0.00  0.00    +0.000 A 
ATOM      2  C   UNL     1       0.179   9.669  22.268  0.00  0.00    +0.000 A 
ATOM      3  N   UNL     1       0.782   8.577  21.713  0.00  0.00    +0.000 N 
ATOM      4  C   UNL     1       1.193   8.847  20.424  0.00  0.00    +0.000 A 
ATOM      5  C   UNL     1       1.880   8.040  19.489  0.00  0.00    +0.000 A 
ATOM      6  C   UNL     1       2.164   8.605  18.239  0.00  0.00    +0.000 A 
ATOM      7  C   UNL     1       1.789   9.913  17.942  0.00  0.00    +0.000 A 
ATOM      8  C   UNL     1       1.119  10.699  18.887  0.00  0.00    +0.000 A 
ATOM      9  C   UNL     1       0.814  10.163  20.154  0.00  0.00    +0.000 A 
ATOM     10  H   UNL     1       0.943   7.685  22.168  0.00  0.00    +0.000 HD
ENDROOT
BRANCH   5  11
ATOM     11  C   UNL     1       2.306   6.701  19.857  0.00  0.00    +0.000 A 
ATOM     12  N   UNL     1       1.759   5.945  20.822  0.00  0.00    +0.000 NA
ATOM     13  O   UNL     1       2.464   4.738  20.743  0.00  0.00    +0.000 OA
ATOM     14  C   UNL     1       3.368   4.893  19.737  0.00  0.00    +0.000 A 
ATOM     15  N   UNL     1       3.323   6.077  19.179  0.00  0.00    +0.000 NA
BRANCH  14  16
ATOM     16  C   UNL     1       4.265   3.752  19.398  0.00  0.00    +0.000 C 
ATOM     17  C   UNL     1       3.650   2.418  19.852  0.00  0.00    +0.000 C 
ATOM     18  C   UNL     1       2.410   2.017  19.048  0.00  0.00    +0.000 C 
ATOM     19  C   UNL     1       2.651   2.059  17.540  0.00  0.00    +0.000 C 
ATOM     20  C   UNL     1       3.316   3.345  17.057  0.00  0.00    +0.000 C 
ATOM     21  C   UNL     1       4.547   3.716  17.888  0.00  0.00    +0.000 C 
ENDBRANCH  14  16
ENDBRANCH   5  11
BRANCH   1  22
ATOM     22  C   UNL     1      -0.351  12.070  21.524  0.00  0.00    +0.000 C 
BRANCH  22  23
ATOM     23  C   UNL     1      -1.654  12.291  20.763  0.00  0.00    +0.000 C 
BRANCH  23  25
ATOM     24  O   UNL     1      -0.810  14.161  19.468  0.00  0.00    +0.000 OA
ATOM     25  C   UNL     1      -1.426  13.111  19.519  0.00  0.00    +0.000 C 
BRANCH  25  26
ATOM     26  O   UNL     1      -1.987  12.550  18.421  0.00  0.00    +0.000 OA
ATOM     27  H   UNL     1      -2.761  13.036  18.081  0.00  0.00    +0.000 HD
ENDBRANCH  25  26
ENDBRANCH  23  25
ENDBRANCH  22  23
ENDBRANCH   1  22
TORSDOF 6
ENDMDL
