MODEL 1
REMARK VINA RESULT:      -7.1      0.000      0.000
REMARK  Name = 
REMARK  12 active torsions:
REMARK  status: ('A' for Active; 'I' for Inactive)
REMARK    1  A    between atoms: C_1  and  C_2
REMARK    2  A    between atoms: C_2  and  C_3
REMARK    3  A    between atoms: C_3  and  N_4
REMARK    4  A    between atoms: N_4  and  C_5
REMARK    5  A    between atoms: N_4  and  C_14
REMARK    6  A    between atoms: C_5  and  C_6
REMARK    7  A    between atoms: C_6  and  C_7
REMARK    8  A    between atoms: C_7  and  C_8
REMARK    9  A    between atoms: C_18  and  O_19
REMARK   10  A    between atoms: O_19  and  C_20
REMARK   11  A    between atoms: C_21  and  O_22
REMARK   12  A    between atoms: O_22  and  C_23
REMARK                            x       y       z     vdW  Elec       q    Type
REMARK                         _______ _______ _______ _____ _____    ______ ____
ROOT
ATOM      1  N   UNL     1       5.061   5.439  17.497  0.00  0.00    +0.000 NA
ENDROOT
BRANCH   1   2
ATOM      2  C   UNL     1       3.778   6.014  17.994  0.00  0.00    +0.000 C 
ATOM      3  C   UNL     1       3.253   7.312  17.287  0.00  0.00    +0.000 C 
ATOM      4  C   UNL     1       2.437   7.965  18.364  0.00  0.00    +0.000 A 
ATOM      5  C   UNL     1       1.862   9.218  18.369  0.00  0.00    +0.000 A 
ATOM      6  C   UNL     1       1.138   9.613  19.501  0.00  0.00    +0.000 A 
ATOM      7  C   UNL     1       0.837   8.666  20.509  0.00  0.00    +0.000 A 
ATOM      8  C   UNL     1       1.529   7.453  20.545  0.00  0.00    +0.000 A 
ATOM      9  C   UNL     1       2.421   7.195  19.519  0.00  0.00    +0.000 A 
ATOM     10  C   UNL     1       3.627   6.309  19.511  0.00  0.00    +0.000 C 
BRANCH   6  11
ATOM     11  O   UNL     1       0.710  10.901  19.708  0.00  0.00    +0.000 OA
ATOM     12  C   UNL     1      -0.259  11.379  18.780  0.00  0.00    +0.000 C 
ENDBRANCH   6  11
BRANCH   7  13
ATOM     13  O   UNL     1      -0.047   9.052  21.487  0.00  0.00    +0.000 OA
ATOM     14  C   UNL     1       0.536   9.362  22.750  0.00  0.00    +0.000 C 
ENDBRANCH   7  13
ENDBRANCH   1   2
BRANCH   1  15
ATOM     15  C   UNL     1       6.045   5.164  18.569  0.00  0.00    +0.000 C 
BRANCH  15  17
ATOM     16  C   UNL     1       7.410   7.125  17.639  0.00  0.00    +0.000 C 
ATOM     17  C   UNL     1       7.427   5.830  18.442  0.00  0.00    +0.000 C 
ENDBRANCH  15  17
ENDBRANCH   1  15
BRANCH   1  18
ATOM     18  C   UNL     1       4.867   4.264  16.625  0.00  0.00    +0.000 C 
BRANCH  18  19
ATOM     19  C   UNL     1       4.480   2.938  17.302  0.00  0.00    +0.000 C 
BRANCH  19  20
ATOM     20  C   UNL     1       2.977   2.664  17.345  0.00  0.00    +0.000 C 
BRANCH  20  21
ATOM     21  C   UNL     1       2.469   2.883  18.741  0.00  0.00    +0.000 A 
ATOM     22  C   UNL     1       1.245   3.544  18.961  0.00  0.00    +0.000 A 
ATOM     23  C   UNL     1       0.791   3.792  20.257  0.00  0.00    +0.000 A 
ATOM     24  C   UNL     1       1.554   3.392  21.351  0.00  0.00    +0.000 A 
ATOM     25  C   UNL     1       2.765   2.734  21.144  0.00  0.00    +0.000 A 
ATOM     26  C   UNL     1       3.215   2.482  19.855  0.00  0.00    +0.000 A 
ENDBRANCH  20  21
ENDBRANCH  19  20
ENDBRANCH  18  19
ENDBRANCH   1  18
TORSDOF 9
ENDMDL
MODEL 2
REMARK VINA RESULT:      -7.1      0.476      1.086
REMARK  Name = 
REMARK  12 active torsions:
REMARK  status: ('A' for Active; 'I' for Inactive)
REMARK    1  A    between atoms: C_1  and  C_2
REMARK    2  A    between atoms: C_2  and  C_3
REMARK    3  A    between atoms: C_3  and  N_4
REMARK    4  A    between atoms: N_4  and  C_5
REMARK    5  A    between atoms: N_4  and  C_14
REMARK    6  A    between atoms: C_5  and  C_6
REMARK    7  A    between atoms: C_6  and  C_7
REMARK    8  A    between atoms: C_7  and  C_8
REMARK    9  A    between atoms: C_18  and  O_19
REMARK   10  A    between atoms: O_19  and  C_20
REMARK   11  A    between atoms: C_21  and  O_22
REMARK   12  A    between atoms: O_22  and  C_23
REMARK                            x       y       z     vdW  Elec       q    Type
REMARK                         _______ _______ _______ _____ _____    ______ ____
ROOT
ATOM      1  N   UNL     1       5.068   5.517  17.210  0.00  0.00    +0.000 NA
ENDROOT
BRANCH   1   2
ATOM      2  C   UNL     1       3.794   6.024  17.797  0.00  0.00    +0.000 C 
ATOM      3  C   UNL     1       3.180   7.322  17.166  0.00  0.00    +0.000 C 
ATOM      4  C   UNL     1       2.402   7.906  18.309  0.00  0.00    +0.000 A 
ATOM      5  C   UNL     1       1.780   9.134  18.390  0.00  0.00    +0.000 A 
ATOM      6  C   UNL     1       1.108   9.463  19.573  0.00  0.00    +0.000 A 
ATOM      7  C   UNL     1       0.902   8.471  20.563  0.00  0.00    +0.000 A 
ATOM      8  C   UNL     1       1.640   7.286  20.518  0.00  0.00    +0.000 A 
ATOM      9  C   UNL     1       2.482   7.099  19.435  0.00  0.00    +0.000 A 
ATOM     10  C   UNL     1       3.719   6.263  19.329  0.00  0.00    +0.000 C 
BRANCH   6  11
ATOM     11  O   UNL     1       0.642  10.724  19.848  0.00  0.00    +0.000 OA
ATOM     12  C   UNL     1      -0.223  11.284  18.866  0.00  0.00    +0.000 C 
ENDBRANCH   6  11
BRANCH   7  13
ATOM     13  O   UNL     1       0.060   8.789  21.601  0.00  0.00    +0.000 OA
ATOM     14  C   UNL     1       0.700   9.271  22.780  0.00  0.00    +0.000 C 
ENDBRANCH   7  13
ENDBRANCH   1   2
BRANCH   1  15
ATOM     15  C   UNL     1       6.271   5.880  17.993  0.00  0.00    +0.000 C 
BRANCH  15  17
ATOM     16  C   UNL     1       8.189   7.522  18.432  0.00  0.00    +0.000 C 
ATOM     17  C   UNL     1       7.163   7.001  17.433  0.00  0.00    +0.000 C 
ENDBRANCH  15  17
ENDBRANCH   1  15
BRANCH   1  18
ATOM     18  C   UNL     1       5.031   4.073  16.910  0.00  0.00    +0.000 C 
BRANCH  18  19
ATOM     19  C   UNL     1       3.650   3.396  16.868  0.00  0.00    +0.000 C 
BRANCH  19  20
ATOM     20  C   UNL     1       3.491   2.220  17.832  0.00  0.00    +0.000 C 
BRANCH  20  21
ATOM     21  C   UNL     1       2.759   2.678  19.060  0.00  0.00    +0.000 A 
ATOM     22  C   UNL     1       3.311   2.471  20.340  0.00  0.00    +0.000 A 
ATOM     23  C   UNL     1       2.614   2.851  21.487  0.00  0.00    +0.000 A 
ATOM     24  C   UNL     1       1.353   3.434  21.376  0.00  0.00    +0.000 A 
ATOM     25  C   UNL     1       0.800   3.646  20.114  0.00  0.00    +0.000 A 
ATOM     26  C   UNL     1       1.495   3.273  18.972  0.00  0.00    +0.000 A 
ENDBRANCH  20  21
ENDBRANCH  19  20
ENDBRANCH  18  19
ENDBRANCH   1  18
TORSDOF 9
ENDMDL
MODEL 3
REMARK VINA RESULT:      -6.8      1.035      2.494
REMARK  Name = 
REMARK  12 active torsions:
REMARK  status: ('A' for Active; 'I' for Inactive)
REMARK    1  A    between atoms: C_1  and  C_2
REMARK    2  A    between atoms: C_2  and  C_3
REMARK    3  A    between atoms: C_3  and  N_4
REMARK    4  A    between atoms: N_4  and  C_5
REMARK    5  A    between atoms: N_4  and  C_14
REMARK    6  A    between atoms: C_5  and  C_6
REMARK    7  A    between atoms: C_6  and  C_7
REMARK    8  A    between atoms: C_7  and  C_8
REMARK    9  A    between atoms: C_18  and  O_19
REMARK   10  A    between atoms: O_19  and  C_20
REMARK   11  A    between atoms: C_21  and  O_22
REMARK   12  A    between atoms: O_22  and  C_23
REMARK                            x       y       z     vdW  Elec       q    Type
REMARK                         _______ _______ _______ _____ _____    ______ ____
ROOT
ATOM      1  N   UNL     1       4.253   5.664  16.944  0.00  0.00    +0.000 NA
ENDROOT
BRANCH   1   2
ATOM      2  C   UNL     1       3.739   6.776  17.796  0.00  0.00    +0.000 C 
ATOM      3  C   UNL     1       3.389   6.433  19.286  0.00  0.00    +0.000 C 
ATOM      4  C   UNL     1       2.342   7.456  19.620  0.00  0.00    +0.000 A 
ATOM      5  C   UNL     1       1.550   7.542  20.745  0.00  0.00    +0.000 A 
ATOM      6  C   UNL     1       0.634   8.597  20.834  0.00  0.00    +0.000 A 
ATOM      7  C   UNL     1       0.681   9.651  19.890  0.00  0.00    +0.000 A 
ATOM      8  C   UNL     1       1.396   9.482  18.701  0.00  0.00    +0.000 A 
ATOM      9  C   UNL     1       2.112   8.307  18.549  0.00  0.00    +0.000 A 
ATOM     10  C   UNL     1       2.530   7.608  17.292  0.00  0.00    +0.000 C 
BRANCH   6  11
ATOM     11  O   UNL     1      -0.347   8.663  21.793  0.00  0.00    +0.000 OA
ATOM     12  C   UNL     1       0.036   9.282  23.016  0.00  0.00    +0.000 C 
ENDBRANCH   6  11
BRANCH   7  13
ATOM     13  O   UNL     1      -0.095  10.755  20.144  0.00  0.00    +0.000 OA
ATOM     14  C   UNL     1      -0.811  11.271  19.024  0.00  0.00    +0.000 C 
ENDBRANCH   7  13
ENDBRANCH   1   2
BRANCH   1  15
ATOM     15  C   UNL     1       5.177   6.110  15.877  0.00  0.00    +0.000 C 
BRANCH  15  17
ATOM     16  C   UNL     1       5.967   4.325  14.214  0.00  0.00    +0.000 C 
ATOM     17  C   UNL     1       6.294   5.136  15.463  0.00  0.00    +0.000 C 
ENDBRANCH  15  17
ENDBRANCH   1  15
BRANCH   1  18
ATOM     18  C   UNL     1       4.825   4.553  17.728  0.00  0.00    +0.000 C 
BRANCH  18  19
ATOM     19  C   UNL     1       4.385   3.126  17.355  0.00  0.00    +0.000 C 
BRANCH  19  20
ATOM     20  C   UNL     1       2.876   2.891  17.418  0.00  0.00    +0.000 C 
BRANCH  20  21
ATOM     21  C   UNL     1       2.400   3.080  18.830  0.00  0.00    +0.000 A 
ATOM     22  C   UNL     1       3.095   2.491  19.904  0.00  0.00    +0.000 A 
ATOM     23  C   UNL     1       2.631   2.623  21.213  0.00  0.00    +0.000 A 
ATOM     24  C   UNL     1       1.462   3.338  21.469  0.00  0.00    +0.000 A 
ATOM     25  C   UNL     1       0.769   3.928  20.414  0.00  0.00    +0.000 A 
ATOM     26  C   UNL     1       1.233   3.800  19.112  0.00  0.00    +0.000 A 
ENDBRANCH  20  21
ENDBRANCH  19  20
ENDBRANCH  18  19
ENDBRANCH   1  18
TORSDOF 9
ENDMDL
MODEL 4
REMARK VINA RESULT:      -6.8      0.841      2.051
REMARK  Name = 
REMARK  12 active torsions:
REMARK  status: ('A' for Active; 'I' for Inactive)
REMARK    1  A    between atoms: C_1  and  C_2
REMARK    2  A    between atoms: C_2  and  C_3
REMARK    3  A    between atoms: C_3  and  N_4
REMARK    4  A    between atoms: N_4  and  C_5
REMARK    5  A    between atoms: N_4  and  C_14
REMARK    6  A    between atoms: C_5  and  C_6
REMARK    7  A    between atoms: C_6  and  C_7
REMARK    8  A    between atoms: C_7  and  C_8
REMARK    9  A    between atoms: C_18  and  O_19
REMARK   10  A    between atoms: O_19  and  C_20
REMARK   11  A    between atoms: C_21  and  O_22
REMARK   12  A    between atoms: O_22  and  C_23
REMARK                            x       y       z     vdW  Elec       q    Type
REMARK                         _______ _______ _______ _____ _____    ______ ____
ROOT
ATOM      1  N   UNL     1       4.206   5.587  17.053  0.00  0.00    +0.000 NA
ENDROOT
BRANCH   1   2
ATOM      2  C   UNL     1       3.718   6.686  17.937  0.00  0.00    +0.000 C 
ATOM      3  C   UNL     1       3.273   6.293  19.388  0.00  0.00    +0.000 C 
ATOM      4  C   UNL     1       2.275   7.363  19.725  0.00  0.00    +0.000 A 
ATOM      5  C   UNL     1       1.434   7.445  20.814  0.00  0.00    +0.000 A 
ATOM      6  C   UNL     1       0.580   8.549  20.914  0.00  0.00    +0.000 A 
ATOM      7  C   UNL     1       0.739   9.643  20.029  0.00  0.00    +0.000 A 
ATOM      8  C   UNL     1       1.501   9.487  18.869  0.00  0.00    +0.000 A 
ATOM      9  C   UNL     1       2.151   8.279  18.689  0.00  0.00    +0.000 A 
ATOM     10  C   UNL     1       2.589   7.616  17.419  0.00  0.00    +0.000 C 
BRANCH   6  11
ATOM     11  O   UNL     1      -0.442   8.631  21.828  0.00  0.00    +0.000 OA
ATOM     12  C   UNL     1      -0.113   9.270  23.057  0.00  0.00    +0.000 C 
ENDBRANCH   6  11
BRANCH   7  13
ATOM     13  O   UNL     1       0.019  10.780  20.303  0.00  0.00    +0.000 OA
ATOM     14  C   UNL     1       0.366  11.925  19.528  0.00  0.00    +0.000 C 
ENDBRANCH   7  13
ENDBRANCH   1   2
BRANCH   1  15
ATOM     15  C   UNL     1       5.357   5.970  16.205  0.00  0.00    +0.000 C 
BRANCH  15  17
ATOM     16  C   UNL     1       7.346   7.025  17.431  0.00  0.00    +0.000 C 
ATOM     17  C   UNL     1       6.763   5.768  16.796  0.00  0.00    +0.000 C 
ENDBRANCH  15  17
ENDBRANCH   1  15
BRANCH   1  18
ATOM     18  C   UNL     1       4.464   4.331  17.783  0.00  0.00    +0.000 C 
BRANCH  18  19
ATOM     19  C   UNL     1       4.046   3.018  17.100  0.00  0.00    +0.000 C 
BRANCH  19  20
ATOM     20  C   UNL     1       3.663   1.895  18.064  0.00  0.00    +0.000 C 
BRANCH  20  21
ATOM     21  C   UNL     1       2.809   2.454  19.167  0.00  0.00    +0.000 A 
ATOM     22  C   UNL     1       1.530   2.972  18.888  0.00  0.00    +0.000 A 
ATOM     23  C   UNL     1       0.752   3.535  19.900  0.00  0.00    +0.000 A 
ATOM     24  C   UNL     1       1.241   3.597  21.203  0.00  0.00    +0.000 A 
ATOM     25  C   UNL     1       2.505   3.083  21.490  0.00  0.00    +0.000 A 
ATOM     26  C   UNL     1       3.277   2.519  20.484  0.00  0.00    +0.000 A 
ENDBRANCH  20  21
ENDBRANCH  19  20
ENDBRANCH  18  19
ENDBRANCH   1  18
TORSDOF 9
ENDMDL
MODEL 5
REMARK VINA RESULT:      -6.7      1.078      2.236
REMARK  Name = 
REMARK  12 active torsions:
REMARK  status: ('A' for Active; 'I' for Inactive)
REMARK    1  A    between atoms: C_1  and  C_2
REMARK    2  A    between atoms: C_2  and  C_3
REMARK    3  A    between atoms: C_3  and  N_4
REMARK    4  A    between atoms: N_4  and  C_5
REMARK    5  A    between atoms: N_4  and  C_14
REMARK    6  A    between atoms: C_5  and  C_6
REMARK    7  A    between atoms: C_6  and  C_7
REMARK    8  A    between atoms: C_7  and  C_8
REMARK    9  A    between atoms: C_18  and  O_19
REMARK   10  A    between atoms: O_19  and  C_20
REMARK   11  A    between atoms: C_21  and  O_22
REMARK   12  A    between atoms: O_22  and  C_23
REMARK                            x       y       z     vdW  Elec       q    Type
REMARK                         _______ _______ _______ _____ _____    ______ ____
ROOT
ATOM      1  N   UNL     1       4.336   5.453  17.026  0.00  0.00    +0.000 NA
ENDROOT
BRANCH   1   2
ATOM      2  C   UNL     1       3.849   6.605  17.839  0.00  0.00    +0.000 C 
ATOM      3  C   UNL     1       3.403   6.304  19.312  0.00  0.00    +0.000 C 
ATOM      4  C   UNL     1       2.405   7.393  19.582  0.00  0.00    +0.000 A 
ATOM      5  C   UNL     1       1.563   7.543  20.663  0.00  0.00    +0.000 A 
ATOM      6  C   UNL     1       0.710   8.652  20.694  0.00  0.00    +0.000 A 
ATOM      7  C   UNL     1       0.869   9.688  19.742  0.00  0.00    +0.000 A 
ATOM      8  C   UNL     1       1.632   9.459  18.594  0.00  0.00    +0.000 A 
ATOM      9  C   UNL     1       2.282   8.242  18.490  0.00  0.00    +0.000 A 
ATOM     10  C   UNL     1       2.719   7.501  17.265  0.00  0.00    +0.000 C 
BRANCH   6  11
ATOM     11  O   UNL     1      -0.312   8.790  21.600  0.00  0.00    +0.000 OA
ATOM     12  C   UNL     1       0.074   9.255  22.889  0.00  0.00    +0.000 C 
ENDBRANCH   6  11
BRANCH   7  13
ATOM     13  O   UNL     1       0.150  10.840  19.944  0.00  0.00    +0.000 OA
ATOM     14  C   UNL     1       0.898  11.950  20.434  0.00  0.00    +0.000 C 
ENDBRANCH   7  13
ENDBRANCH   1   2
BRANCH   1  15
ATOM     15  C   UNL     1       5.388   5.815  16.050  0.00  0.00    +0.000 C 
BRANCH  15  17
ATOM     16  C   UNL     1       6.933   4.743  14.308  0.00  0.00    +0.000 C 
ATOM     17  C   UNL     1       5.500   4.950  14.782  0.00  0.00    +0.000 C 
ENDBRANCH  15  17
ENDBRANCH   1  15
BRANCH   1  18
ATOM     18  C   UNL     1       4.734   4.294  17.848  0.00  0.00    +0.000 C 
BRANCH  18  19
ATOM     19  C   UNL     1       4.315   2.899  17.353  0.00  0.00    +0.000 C 
BRANCH  19  20
ATOM     20  C   UNL     1       2.813   2.625  17.430  0.00  0.00    +0.000 C 
BRANCH  20  21
ATOM     21  C   UNL     1       2.332   2.864  18.832  0.00  0.00    +0.000 A 
ATOM     22  C   UNL     1       1.188   3.651  19.072  0.00  0.00    +0.000 A 
ATOM     23  C   UNL     1       0.764   3.916  20.374  0.00  0.00    +0.000 A 
ATOM     24  C   UNL     1       1.479   3.407  21.457  0.00  0.00    +0.000 A 
ATOM     25  C   UNL     1       2.609   2.624  21.230  0.00  0.00    +0.000 A 
ATOM     26  C   UNL     1       3.029   2.357  19.934  0.00  0.00    +0.000 A 
ENDBRANCH  20  21
ENDBRANCH  19  20
ENDBRANCH  18  19
ENDBRANCH   1  18
TORSDOF 9
ENDMDL
MODEL 6
REMARK VINA RESULT:      -6.7      1.297      1.734
REMARK  Name = 
REMARK  12 active torsions:
REMARK  status: ('A' for Active; 'I' for Inactive)
REMARK    1  A    between atoms: C_1  and  C_2
REMARK    2  A    between atoms: C_2  and  C_3
REMARK    3  A    between atoms: C_3  and  N_4
REMARK    4  A    between atoms: N_4  and  C_5
REMARK    5  A    between atoms: N_4  and  C_14
REMARK    6  A    between atoms: C_5  and  C_6
REMARK    7  A    between atoms: C_6  and  C_7
REMARK    8  A    between atoms: C_7  and  C_8
REMARK    9  A    between atoms: C_18  and  O_19
REMARK   10  A    between atoms: O_19  and  C_20
REMARK   11  A    between atoms: C_21  and  O_22
REMARK   12  A    between atoms: O_22  and  C_23
REMARK                            x       y       z     vdW  Elec       q    Type
REMARK                         _______ _______ _______ _____ _____    ______ ____
ROOT
ATOM      1  N   UNL     1       3.987   6.106  17.785  0.00  0.00    +0.000 NA
ENDROOT
BRANCH   1   2
ATOM      2  C   UNL     1       2.787   6.847  18.273  0.00  0.00    +0.000 C 
ATOM      3  C   UNL     1       2.495   8.244  17.623  0.00  0.00    +0.000 C 
ATOM      4  C   UNL     1       1.745   8.960  18.709  0.00  0.00    +0.000 A 
ATOM      5  C   UNL     1       1.368  10.284  18.766  0.00  0.00    +0.000 A 
ATOM      6  C   UNL     1       0.668  10.728  19.895  0.00  0.00    +0.000 A 
ATOM      7  C   UNL     1       0.186   9.789  20.838  0.00  0.00    +0.000 A 
ATOM      8  C   UNL     1       0.683   8.483  20.828  0.00  0.00    +0.000 A 
ATOM      9  C   UNL     1       1.566   8.144  19.817  0.00  0.00    +0.000 A 
ATOM     10  C   UNL     1       2.623   7.083  19.798  0.00  0.00    +0.000 C 
BRANCH   6  11
ATOM     11  O   UNL     1       0.433  12.055  20.160  0.00  0.00    +0.000 OA
ATOM     12  C   UNL     1       1.559  12.795  20.620  0.00  0.00    +0.000 C 
ENDBRANCH   6  11
BRANCH   7  13
ATOM     13  O   UNL     1      -0.667  10.256  21.807  0.00  0.00    +0.000 OA
ATOM     14  C   UNL     1      -0.370   9.837  23.137  0.00  0.00    +0.000 C 
ENDBRANCH   7  13
ENDBRANCH   1   2
BRANCH   1  15
ATOM     15  C   UNL     1       4.883   6.919  16.932  0.00  0.00    +0.000 C 
BRANCH  15  17
ATOM     16  C   UNL     1       5.929   5.278  15.264  0.00  0.00    +0.000 C 
ATOM     17  C   UNL     1       5.031   6.493  15.461  0.00  0.00    +0.000 C 
ENDBRANCH  15  17
ENDBRANCH   1  15
BRANCH   1  18
ATOM     18  C   UNL     1       4.731   5.435  18.869  0.00  0.00    +0.000 C 
BRANCH  18  19
ATOM     19  C   UNL     1       5.214   3.998  18.610  0.00  0.00    +0.000 C 
BRANCH  19  20
ATOM     20  C   UNL     1       4.111   3.022  18.204  0.00  0.00    +0.000 C 
BRANCH  20  21
ATOM     21  C   UNL     1       3.073   2.963  19.288  0.00  0.00    +0.000 A 
ATOM     22  C   UNL     1       1.737   3.318  19.019  0.00  0.00    +0.000 A 
ATOM     23  C   UNL     1       0.778   3.311  20.033  0.00  0.00    +0.000 A 
ATOM     24  C   UNL     1       1.140   2.956  21.331  0.00  0.00    +0.000 A 
ATOM     25  C   UNL     1       2.458   2.599  21.607  0.00  0.00    +0.000 A 
ATOM     26  C   UNL     1       3.411   2.602  20.597  0.00  0.00    +0.000 A 
ENDBRANCH  20  21
ENDBRANCH  19  20
ENDBRANCH  18  19
ENDBRANCH   1  18
TORSDOF 9
ENDMDL
MODEL 7
REMARK VINA RESULT:      -6.6      0.850      2.275
REMARK  Name = 
REMARK  12 active torsions:
REMARK  status: ('A' for Active; 'I' for Inactive)
REMARK    1  A    between atoms: C_1  and  C_2
REMARK    2  A    between atoms: C_2  and  C_3
REMARK    3  A    between atoms: C_3  and  N_4
REMARK    4  A    between atoms: N_4  and  C_5
REMARK    5  A    between atoms: N_4  and  C_14
REMARK    6  A    between atoms: C_5  and  C_6
REMARK    7  A    between atoms: C_6  and  C_7
REMARK    8  A    between atoms: C_7  and  C_8
REMARK    9  A    between atoms: C_18  and  O_19
REMARK   10  A    between atoms: O_19  and  C_20
REMARK   11  A    between atoms: C_21  and  O_22
REMARK   12  A    between atoms: O_22  and  C_23
REMARK                            x       y       z     vdW  Elec       q    Type
REMARK                         _______ _______ _______ _____ _____    ______ ____
ROOT
ATOM      1  N   UNL     1       4.209   5.976  17.135  0.00  0.00    +0.000 NA
ENDROOT
BRANCH   1   2
ATOM      2  C   UNL     1       3.630   7.063  17.977  0.00  0.00    +0.000 C 
ATOM      3  C   UNL     1       3.288   6.711  19.466  0.00  0.00    +0.000 C 
ATOM      4  C   UNL     1       2.185   7.678  19.787  0.00  0.00    +0.000 A 
ATOM      5  C   UNL     1       1.382   7.728  20.905  0.00  0.00    +0.000 A 
ATOM      6  C   UNL     1       0.409   8.732  20.981  0.00  0.00    +0.000 A 
ATOM      7  C   UNL     1       0.406   9.781  20.030  0.00  0.00    +0.000 A 
ATOM      8  C   UNL     1       1.137   9.644  18.848  0.00  0.00    +0.000 A 
ATOM      9  C   UNL     1       1.917   8.509  18.708  0.00  0.00    +0.000 A 
ATOM     10  C   UNL     1       2.381   7.825  17.459  0.00  0.00    +0.000 C 
BRANCH   6  11
ATOM     11  O   UNL     1      -0.580   8.751  21.933  0.00  0.00    +0.000 OA
ATOM     12  C   UNL     1      -0.231   9.376  23.164  0.00  0.00    +0.000 C 
ENDBRANCH   6  11
BRANCH   7  13
ATOM     13  O   UNL     1      -0.431  10.843  20.273  0.00  0.00    +0.000 OA
ATOM     14  C   UNL     1      -1.105  11.364  19.129  0.00  0.00    +0.000 C 
ENDBRANCH   7  13
ENDBRANCH   1   2
BRANCH   1  15
ATOM     15  C   UNL     1       5.563   6.278  16.619  0.00  0.00    +0.000 C 
BRANCH  15  17
ATOM     16  C   UNL     1       7.562   7.643  17.464  0.00  0.00    +0.000 C 
ATOM     17  C   UNL     1       6.698   6.402  17.651  0.00  0.00    +0.000 C 
ENDBRANCH  15  17
ENDBRANCH   1  15
BRANCH   1  18
ATOM     18  C   UNL     1       4.161   4.653  17.787  0.00  0.00    +0.000 C 
BRANCH  18  19
ATOM     19  C   UNL     1       3.828   3.440  16.901  0.00  0.00    +0.000 C 
BRANCH  19  20
ATOM     20  C   UNL     1       2.631   2.617  17.377  0.00  0.00    +0.000 C 
BRANCH  20  21
ATOM     21  C   UNL     1       2.324   2.961  18.806  0.00  0.00    +0.000 A 
ATOM     22  C   UNL     1       3.116   2.446  19.851  0.00  0.00    +0.000 A 
ATOM     23  C   UNL     1       2.807   2.723  21.184  0.00  0.00    +0.000 A 
ATOM     24  C   UNL     1       1.701   3.512  21.493  0.00  0.00    +0.000 A 
ATOM     25  C   UNL     1       0.915   4.031  20.466  0.00  0.00    +0.000 A 
ATOM     26  C   UNL     1       1.223   3.758  19.140  0.00  0.00    +0.000 A 
ENDBRANCH  20  21
ENDBRANCH  19  20
ENDBRANCH  18  19
ENDBRANCH   1  18
TORSDOF 9
ENDMDL
MODEL 8
REMARK VINA RESULT:      -6.6      1.167      4.578
REMARK  Name = 
REMARK  12 active torsions:
REMARK  status: ('A' for Active; 'I' for Inactive)
REMARK    1  A    between atoms: C_1  and  C_2
REMARK    2  A    between atoms: C_2  and  C_3
REMARK    3  A    between atoms: C_3  and  N_4
REMARK    4  A    between atoms: N_4  and  C_5
REMARK    5  A    between atoms: N_4  and  C_14
REMARK    6  A    between atoms: C_5  and  C_6
REMARK    7  A    between atoms: C_6  and  C_7
REMARK    8  A    between atoms: C_7  and  C_8
REMARK    9  A    between atoms: C_18  and  O_19
REMARK   10  A    between atoms: O_19  and  C_20
REMARK   11  A    between atoms: C_21  and  O_22
REMARK   12  A    between atoms: O_22  and  C_23
REMARK                            x       y       z     vdW  Elec       q    Type
REMARK                         _______ _______ _______ _____ _____    ______ ____
ROOT
ATOM      1  N   UNL     1       3.858   4.044  18.312  0.00  0.00    +0.000 NA
ENDROOT
BRANCH   1   2
ATOM      2  C   UNL     1       3.570   5.415  18.824  0.00  0.00    +0.000 C 
ATOM      3  C   UNL     1       2.919   5.526  20.246  0.00  0.00    +0.000 C 
ATOM      4  C   UNL     1       2.177   6.829  20.166  0.00  0.00    +0.000 A 
ATOM      5  C   UNL     1       1.287   7.371  21.069  0.00  0.00    +0.000 A 
ATOM      6  C   UNL     1       0.714   8.613  20.774  0.00  0.00    +0.000 A 
ATOM      7  C   UNL     1       1.203   9.373  19.684  0.00  0.00    +0.000 A 
ATOM      8  C   UNL     1       2.005   8.758  18.719  0.00  0.00    +0.000 A 
ATOM      9  C   UNL     1       2.364   7.439  18.933  0.00  0.00    +0.000 A 
ATOM     10  C   UNL     1       2.742   6.385  17.938  0.00  0.00    +0.000 C 
BRANCH   6  11
ATOM     11  O   UNL     1      -0.335   9.145  21.482  0.00  0.00    +0.000 OA
ATOM     12  C   UNL     1      -0.043   9.508  22.827  0.00  0.00    +0.000 C 
ENDBRANCH   6  11
BRANCH   7  13
ATOM     13  O   UNL     1       0.752  10.665  19.568  0.00  0.00    +0.000 OA
ATOM     14  C   UNL     1       1.359  11.434  18.532  0.00  0.00    +0.000 C 
ENDBRANCH   7  13
ENDBRANCH   1   2
BRANCH   1  15
ATOM     15  C   UNL     1       3.005   2.992  18.910  0.00  0.00    +0.000 C 
BRANCH  15  17
ATOM     16  C   UNL     1       0.488   2.858  19.376  0.00  0.00    +0.000 C 
ATOM     17  C   UNL     1       1.592   2.817  18.326  0.00  0.00    +0.000 C 
ENDBRANCH  15  17
ENDBRANCH   1  15
BRANCH   1  18
ATOM     18  C   UNL     1       3.861   3.967  16.838  0.00  0.00    +0.000 C 
BRANCH  18  19
ATOM     19  C   UNL     1       5.228   3.984  16.133  0.00  0.00    +0.000 C 
BRANCH  19  20
ATOM     20  C   UNL     1       5.721   5.376  15.740  0.00  0.00    +0.000 C 
BRANCH  20  21
ATOM     21  C   UNL     1       6.630   5.905  16.813  0.00  0.00    +0.000 A 
ATOM     22  C   UNL     1       7.140   5.046  17.805  0.00  0.00    +0.000 A 
ATOM     23  C   UNL     1       7.947   5.540  18.831  0.00  0.00    +0.000 A 
ATOM     24  C   UNL     1       8.248   6.899  18.887  0.00  0.00    +0.000 A 
ATOM     25  C   UNL     1       7.751   7.757  17.907  0.00  0.00    +0.000 A 
ATOM     26  C   UNL     1       6.952   7.265  16.884  0.00  0.00    +0.000 A 
ENDBRANCH  20  21
ENDBRANCH  19  20
ENDBRANCH  18  19
ENDBRANCH   1  18
TORSDOF 9
ENDMDL
MODEL 9
REMARK VINA RESULT:      -6.6      1.684      4.767
REMARK  Name = 
REMARK  12 active torsions:
REMARK  status: ('A' for Active; 'I' for Inactive)
REMARK    1  A    between atoms: C_1  and  C_2
REMARK    2  A    between atoms: C_2  and  C_3
REMARK    3  A    between atoms: C_3  and  N_4
REMARK    4  A    between atoms: N_4  and  C_5
REMARK    5  A    between atoms: N_4  and  C_14
REMARK    6  A    between atoms: C_5  and  C_6
REMARK    7  A    between atoms: C_6  and  C_7
REMARK    8  A    between atoms: C_7  and  C_8
REMARK    9  A    between atoms: C_18  and  O_19
REMARK   10  A    between atoms: O_19  and  C_20
REMARK   11  A    between atoms: C_21  and  O_22
REMARK   12  A    between atoms: O_22  and  C_23
REMARK                            x       y       z     vdW  Elec       q    Type
REMARK                         _______ _______ _______ _____ _____    ______ ____
ROOT
ATOM      1  N   UNL     1       2.531   5.899  19.722  0.00  0.00    +0.000 NA
ENDROOT
BRANCH   1   2
ATOM      2  C   UNL     1       2.307   7.372  19.795  0.00  0.00    +0.000 C 
ATOM      3  C   UNL     1       1.277   7.888  20.859  0.00  0.00    +0.000 C 
ATOM      4  C   UNL     1       0.797   9.175  20.253  0.00  0.00    +0.000 A 
ATOM      5  C   UNL     1      -0.235   9.989  20.666  0.00  0.00    +0.000 A 
ATOM      6  C   UNL     1      -0.500  11.152  19.933  0.00  0.00    +0.000 A 
ATOM      7  C   UNL     1       0.407  11.572  18.930  0.00  0.00    +0.000 A 
ATOM      8  C   UNL     1       1.365  10.677  18.446  0.00  0.00    +0.000 A 
ATOM      9  C   UNL     1       1.441   9.435  19.051  0.00  0.00    +0.000 A 
ATOM     10  C   UNL     1       1.944   8.138  18.495  0.00  0.00    +0.000 C 
BRANCH   6  11
ATOM     11  O   UNL     1      -1.624  11.919  20.116  0.00  0.00    +0.000 OA
ATOM     12  C   UNL     1      -1.803  12.435  21.432  0.00  0.00    +0.000 C 
ENDBRANCH   6  11
BRANCH   7  13
ATOM     13  O   UNL     1       0.210  12.820  18.390  0.00  0.00    +0.000 OA
ATOM     14  C   UNL     1       1.260  13.757  18.619  0.00  0.00    +0.000 C 
ENDBRANCH   7  13
ENDBRANCH   1   2
BRANCH   1  15
ATOM     15  C   UNL     1       1.840   5.137  20.786  0.00  0.00    +0.000 C 
BRANCH  15  17
ATOM     16  C   UNL     1       1.422   2.642  21.201  0.00  0.00    +0.000 C 
ATOM     17  C   UNL     1       1.080   3.868  20.362  0.00  0.00    +0.000 C 
ENDBRANCH  15  17
ENDBRANCH   1  15
BRANCH   1  18
ATOM     18  C   UNL     1       2.252   5.338  18.386  0.00  0.00    +0.000 C 
BRANCH  18  19
ATOM     19  C   UNL     1       3.426   4.686  17.634  0.00  0.00    +0.000 C 
BRANCH  19  20
ATOM     20  C   UNL     1       4.622   4.329  18.516  0.00  0.00    +0.000 C 
BRANCH  20  21
ATOM     21  C   UNL     1       5.725   5.322  18.287  0.00  0.00    +0.000 A 
ATOM     22  C   UNL     1       6.892   5.290  19.076  0.00  0.00    +0.000 A 
ATOM     23  C   UNL     1       7.899   6.240  18.900  0.00  0.00    +0.000 A 
ATOM     24  C   UNL     1       7.754   7.239  17.940  0.00  0.00    +0.000 A 
ATOM     25  C   UNL     1       6.605   7.277  17.151  0.00  0.00    +0.000 A 
ATOM     26  C   UNL     1       5.605   6.330  17.323  0.00  0.00    +0.000 A 
ENDBRANCH  20  21
ENDBRANCH  19  20
ENDBRANCH  18  19
ENDBRANCH   1  18
TORSDOF 9
ENDMDL
