MODEL 1
REMARK VINA RESULT:      -8.1      0.000      0.000
REMARK  Name = 
REMARK  7 active torsions:
REMARK  status: ('A' for Active; 'I' for Inactive)
REMARK    1  A    between atoms: C_1  and  C_2
REMARK    2  A    between atoms: C_6  and  C_7
REMARK    3  A    between atoms: C_7  and  O_8
REMARK    4  A    between atoms: O_8  and  C_9
REMARK    5  A    between atoms: C_14  and  C_15
REMARK    6  A    between atoms: N_17  and  C_18
REMARK    7  A    between atoms: C_21  and  O_22
REMARK                            x       y       z     vdW  Elec       q    Type
REMARK                         _______ _______ _______ _____ _____    ______ ____
ROOT
ATOM      1  C   UNL     1       1.996   7.710  19.815  0.00  0.00    +0.000 A 
ATOM      2  C   UNL     1       1.096   8.685  20.288  0.00  0.00    +0.000 A 
ATOM      3  C   UNL     1       0.737   9.779  19.498  0.00  0.00    +0.000 A 
ATOM      4  C   UNL     1       1.261   9.913  18.221  0.00  0.00    +0.000 A 
ATOM      5  C   UNL     1       2.114   8.928  17.722  0.00  0.00    +0.000 A 
ATOM      6  C   UNL     1       2.474   7.807  18.495  0.00  0.00    +0.000 A 
ENDROOT
BRANCH   6   7
ATOM      7  C   UNL     1       3.327   6.786  17.796  0.00  0.00    +0.000 C 
ATOM      8  O   UNL     1       2.814   5.712  17.499  0.00  0.00    +0.000 OA
ATOM      9  N   UNL     1       4.645   7.093  17.556  0.00  0.00    +0.000 N 
ATOM     10  H   UNL     1       4.956   8.001  17.896  0.00  0.00    +0.000 HD
BRANCH   9  11
ATOM     11  C   UNL     1       5.695   6.211  17.041  0.00  0.00    +0.000 C 
ATOM     12  C   UNL     1       5.719   4.799  17.635  0.00  0.00    +0.000 C 
ATOM     13  C   UNL     1       6.426   4.676  18.979  0.00  0.00    +0.000 C 
ATOM     14  C   UNL     1       7.749   5.440  19.067  0.00  0.00    +0.000 C 
ATOM     15  C   UNL     1       7.778   6.813  18.398  0.00  0.00    +0.000 C 
ATOM     16  C   UNL     1       7.090   6.844  17.042  0.00  0.00    +0.000 C 
BRANCH  14  17
ATOM     17  O   UNL     1       8.089   5.601  20.445  0.00  0.00    +0.000 OA
ATOM     18  H   UNL     1       7.923   4.733  20.864  0.00  0.00    +0.000 HD
ENDBRANCH  14  17
ENDBRANCH   9  11
ENDBRANCH   6   7
BRANCH   1  19
ATOM     19  O   UNL     1       2.411   6.655  20.595  0.00  0.00    +0.000 OA
BRANCH  19  20
ATOM     20  C   UNL     1       1.397   5.711  20.959  0.00  0.00    +0.000 C 
BRANCH  20  26
ATOM     21  C   UNL     1       4.559   1.908  20.041  0.00  0.00    +0.000 C 
ATOM     22  C   UNL     1       3.208   2.533  19.866  0.00  0.00    +0.000 A 
ATOM     23  C   UNL     1       2.200   1.886  19.144  0.00  0.00    +0.000 A 
ATOM     24  C   UNL     1       0.944   2.476  18.999  0.00  0.00    +0.000 A 
ATOM     25  C   UNL     1       0.686   3.721  19.572  0.00  0.00    +0.000 A 
ATOM     26  C   UNL     1       1.683   4.389  20.294  0.00  0.00    +0.000 A 
ATOM     27  C   UNL     1       2.939   3.781  20.444  0.00  0.00    +0.000 A 
ENDBRANCH  20  26
ENDBRANCH  19  20
ENDBRANCH   1  19
TORSDOF 6
ENDMDL
MODEL 2
REMARK VINA RESULT:      -7.9      1.476      5.000
REMARK  Name = 
REMARK  7 active torsions:
REMARK  status: ('A' for Active; 'I' for Inactive)
REMARK    1  A    between atoms: C_1  and  C_2
REMARK    2  A    between atoms: C_6  and  C_7
REMARK    3  A    between atoms: C_7  and  O_8
REMARK    4  A    between atoms: O_8  and  C_9
REMARK    5  A    between atoms: C_14  and  C_15
REMARK    6  A    between atoms: N_17  and  C_18
REMARK    7  A    between atoms: C_21  and  O_22
REMARK                            x       y       z     vdW  Elec       q    Type
REMARK                         _______ _______ _______ _____ _____    ______ ____
ROOT
ATOM      1  C   UNL     1       2.256   4.486  19.981  0.00  0.00    +0.000 A 
ATOM      2  C   UNL     1       1.706   3.998  21.182  0.00  0.00    +0.000 A 
ATOM      3  C   UNL     1       1.138   2.724  21.251  0.00  0.00    +0.000 A 
ATOM      4  C   UNL     1       1.119   1.913  20.127  0.00  0.00    +0.000 A 
ATOM      5  C   UNL     1       1.705   2.364  18.945  0.00  0.00    +0.000 A 
ATOM      6  C   UNL     1       2.301   3.638  18.858  0.00  0.00    +0.000 A 
ENDROOT
BRANCH   6   7
ATOM      7  C   UNL     1       2.970   3.952  17.550  0.00  0.00    +0.000 C 
ATOM      8  O   UNL     1       2.535   3.413  16.537  0.00  0.00    +0.000 OA
ATOM      9  N   UNL     1       4.054   4.796  17.558  0.00  0.00    +0.000 N 
ATOM     10  H   UNL     1       4.340   5.137  18.474  0.00  0.00    +0.000 HD
BRANCH   9  11
ATOM     11  C   UNL     1       4.953   5.118  16.447  0.00  0.00    +0.000 C 
ATOM     12  C   UNL     1       6.304   4.395  16.463  0.00  0.00    +0.000 C 
ATOM     13  C   UNL     1       7.362   5.025  17.359  0.00  0.00    +0.000 C 
ATOM     14  C   UNL     1       7.443   6.550  17.264  0.00  0.00    +0.000 C 
ATOM     15  C   UNL     1       6.110   7.288  17.152  0.00  0.00    +0.000 C 
ATOM     16  C   UNL     1       5.123   6.621  16.205  0.00  0.00    +0.000 C 
BRANCH  14  17
ATOM     17  O   UNL     1       8.136   7.041  18.413  0.00  0.00    +0.000 OA
ATOM     18  H   UNL     1       7.468   7.088  19.126  0.00  0.00    +0.000 HD
ENDBRANCH  14  17
ENDBRANCH   9  11
ENDBRANCH   6   7
BRANCH   1  19
ATOM     19  O   UNL     1       2.768   5.758  19.871  0.00  0.00    +0.000 OA
BRANCH  19  20
ATOM     20  C   UNL     1       2.127   6.760  20.671  0.00  0.00    +0.000 C 
BRANCH  20  26
ATOM     21  C   UNL     1      -0.110  11.232  20.129  0.00  0.00    +0.000 C 
ATOM     22  C   UNL     1       0.722  10.127  19.551  0.00  0.00    +0.000 A 
ATOM     23  C   UNL     1       1.228  10.208  18.249  0.00  0.00    +0.000 A 
ATOM     24  C   UNL     1       2.009   9.176  17.729  0.00  0.00    +0.000 A 
ATOM     25  C   UNL     1       2.289   8.052  18.505  0.00  0.00    +0.000 A 
ATOM     26  C   UNL     1       1.788   7.948  19.808  0.00  0.00    +0.000 A 
ATOM     27  C   UNL     1       1.013   8.997  20.326  0.00  0.00    +0.000 A 
ENDBRANCH  20  26
ENDBRANCH  19  20
ENDBRANCH   1  19
TORSDOF 6
ENDMDL
MODEL 3
REMARK VINA RESULT:      -7.9      1.562      4.891
REMARK  Name = 
REMARK  7 active torsions:
REMARK  status: ('A' for Active; 'I' for Inactive)
REMARK    1  A    between atoms: C_1  and  C_2
REMARK    2  A    between atoms: C_6  and  C_7
REMARK    3  A    between atoms: C_7  and  O_8
REMARK    4  A    between atoms: O_8  and  C_9
REMARK    5  A    between atoms: C_14  and  C_15
REMARK    6  A    between atoms: N_17  and  C_18
REMARK    7  A    between atoms: C_21  and  O_22
REMARK                            x       y       z     vdW  Elec       q    Type
REMARK                         _______ _______ _______ _____ _____    ______ ____
ROOT
ATOM      1  C   UNL     1       2.596   4.659  19.353  0.00  0.00    +0.000 A 
ATOM      2  C   UNL     1       1.452   4.339  20.109  0.00  0.00    +0.000 A 
ATOM      3  C   UNL     1       0.807   3.109  19.956  0.00  0.00    +0.000 A 
ATOM      4  C   UNL     1       1.298   2.177  19.055  0.00  0.00    +0.000 A 
ATOM      5  C   UNL     1       2.459   2.462  18.336  0.00  0.00    +0.000 A 
ATOM      6  C   UNL     1       3.136   3.689  18.489  0.00  0.00    +0.000 A 
ENDROOT
BRANCH   6   7
ATOM      7  C   UNL     1       4.419   3.819  17.717  0.00  0.00    +0.000 C 
ATOM      8  O   UNL     1       4.449   3.383  16.571  0.00  0.00    +0.000 OA
ATOM      9  N   UNL     1       5.502   4.387  18.344  0.00  0.00    +0.000 N 
ATOM     10  H   UNL     1       5.355   4.664  19.313  0.00  0.00    +0.000 HD
BRANCH   9  11
ATOM     11  C   UNL     1       6.881   4.474  17.857  0.00  0.00    +0.000 C 
ATOM     12  C   UNL     1       7.871   5.162  18.803  0.00  0.00    +0.000 C 
ATOM     13  C   UNL     1       7.868   6.684  18.744  0.00  0.00    +0.000 C 
ATOM     14  C   UNL     1       7.816   7.260  17.328  0.00  0.00    +0.000 C 
ATOM     15  C   UNL     1       6.906   6.533  16.339  0.00  0.00    +0.000 C 
ATOM     16  C   UNL     1       6.998   5.017  16.429  0.00  0.00    +0.000 C 
BRANCH  14  17
ATOM     17  O   UNL     1       7.398   8.624  17.407  0.00  0.00    +0.000 OA
ATOM     18  H   UNL     1       6.961   8.718  18.277  0.00  0.00    +0.000 HD
ENDBRANCH  14  17
ENDBRANCH   9  11
ENDBRANCH   6   7
BRANCH   1  19
ATOM     19  O   UNL     1       3.215   5.885  19.441  0.00  0.00    +0.000 OA
BRANCH  19  20
ATOM     20  C   UNL     1       2.957   6.794  18.364  0.00  0.00    +0.000 C 
BRANCH  20  26
ATOM     21  C   UNL     1       0.613   9.125  22.156  0.00  0.00    +0.000 C 
ATOM     22  C   UNL     1       0.972   9.067  20.701  0.00  0.00    +0.000 A 
ATOM     23  C   UNL     1       0.563  10.069  19.815  0.00  0.00    +0.000 A 
ATOM     24  C   UNL     1       0.914  10.006  18.467  0.00  0.00    +0.000 A 
ATOM     25  C   UNL     1       1.676   8.940  17.991  0.00  0.00    +0.000 A 
ATOM     26  C   UNL     1       2.091   7.924  18.859  0.00  0.00    +0.000 A 
ATOM     27  C   UNL     1       1.742   8.002  20.216  0.00  0.00    +0.000 A 
ENDBRANCH  20  26
ENDBRANCH  19  20
ENDBRANCH   1  19
TORSDOF 6
ENDMDL
MODEL 4
REMARK VINA RESULT:      -7.9      1.771      5.846
REMARK  Name = 
REMARK  7 active torsions:
REMARK  status: ('A' for Active; 'I' for Inactive)
REMARK    1  A    between atoms: C_1  and  C_2
REMARK    2  A    between atoms: C_6  and  C_7
REMARK    3  A    between atoms: C_7  and  O_8
REMARK    4  A    between atoms: O_8  and  C_9
REMARK    5  A    between atoms: C_14  and  C_15
REMARK    6  A    between atoms: N_17  and  C_18
REMARK    7  A    between atoms: C_21  and  O_22
REMARK                            x       y       z     vdW  Elec       q    Type
REMARK                         _______ _______ _______ _____ _____    ______ ____
ROOT
ATOM      1  C   UNL     1       5.322   6.431  17.494  0.00  0.00    +0.000 A 
ATOM      2  C   UNL     1       6.139   7.569  17.348  0.00  0.00    +0.000 A 
ATOM      3  C   UNL     1       7.485   7.543  17.718  0.00  0.00    +0.000 A 
ATOM      4  C   UNL     1       8.041   6.380  18.229  0.00  0.00    +0.000 A 
ATOM      5  C   UNL     1       7.255   5.232  18.332  0.00  0.00    +0.000 A 
ATOM      6  C   UNL     1       5.900   5.231  17.947  0.00  0.00    +0.000 A 
ENDROOT
BRANCH   6   7
ATOM      7  C   UNL     1       5.205   3.901  18.031  0.00  0.00    +0.000 C 
ATOM      8  O   UNL     1       4.863   3.362  16.983  0.00  0.00    +0.000 OA
ATOM      9  N   UNL     1       4.956   3.373  19.275  0.00  0.00    +0.000 N 
ATOM     10  H   UNL     1       5.251   3.945  20.064  0.00  0.00    +0.000 HD
BRANCH   9  11
ATOM     11  C   UNL     1       4.164   2.186  19.607  0.00  0.00    +0.000 C 
ATOM     12  C   UNL     1       3.064   1.827  18.603  0.00  0.00    +0.000 C 
ATOM     13  C   UNL     1       1.765   2.606  18.764  0.00  0.00    +0.000 C 
ATOM     14  C   UNL     1       1.297   2.760  20.213  0.00  0.00    +0.000 C 
ATOM     15  C   UNL     1       2.390   3.025  21.248  0.00  0.00    +0.000 C 
ATOM     16  C   UNL     1       3.637   2.178  21.046  0.00  0.00    +0.000 C 
BRANCH  14  17
ATOM     17  O   UNL     1       0.349   3.827  20.274  0.00  0.00    +0.000 OA
ATOM     18  H   UNL     1       0.736   4.493  20.877  0.00  0.00    +0.000 HD
ENDBRANCH  14  17
ENDBRANCH   9  11
ENDBRANCH   6   7
BRANCH   1  19
ATOM     19  O   UNL     1       3.980   6.448  17.193  0.00  0.00    +0.000 OA
BRANCH  19  20
ATOM     20  C   UNL     1       3.092   6.174  18.285  0.00  0.00    +0.000 C 
BRANCH  20  26
ATOM     21  C   UNL     1       0.731   8.934  21.765  0.00  0.00    +0.000 C 
ATOM     22  C   UNL     1       1.243   8.787  20.363  0.00  0.00    +0.000 A 
ATOM     23  C   UNL     1       1.106   9.822  19.432  0.00  0.00    +0.000 A 
ATOM     24  C   UNL     1       1.596   9.673  18.134  0.00  0.00    +0.000 A 
ATOM     25  C   UNL     1       2.226   8.488  17.755  0.00  0.00    +0.000 A 
ATOM     26  C   UNL     1       2.368   7.439  18.670  0.00  0.00    +0.000 A 
ATOM     27  C   UNL     1       1.882   7.602  19.977  0.00  0.00    +0.000 A 
ENDBRANCH  20  26
ENDBRANCH  19  20
ENDBRANCH   1  19
TORSDOF 6
ENDMDL
MODEL 5
REMARK VINA RESULT:      -7.8      1.636      4.996
REMARK  Name = 
REMARK  7 active torsions:
REMARK  status: ('A' for Active; 'I' for Inactive)
REMARK    1  A    between atoms: C_1  and  C_2
REMARK    2  A    between atoms: C_6  and  C_7
REMARK    3  A    between atoms: C_7  and  O_8
REMARK    4  A    between atoms: O_8  and  C_9
REMARK    5  A    between atoms: C_14  and  C_15
REMARK    6  A    between atoms: N_17  and  C_18
REMARK    7  A    between atoms: C_21  and  O_22
REMARK                            x       y       z     vdW  Elec       q    Type
REMARK                         _______ _______ _______ _____ _____    ______ ____
ROOT
ATOM      1  C   UNL     1       2.374   4.491  19.278  0.00  0.00    +0.000 A 
ATOM      2  C   UNL     1       1.252   4.333  20.114  0.00  0.00    +0.000 A 
ATOM      3  C   UNL     1       1.209   3.326  21.081  0.00  0.00    +0.000 A 
ATOM      4  C   UNL     1       2.287   2.468  21.237  0.00  0.00    +0.000 A 
ATOM      5  C   UNL     1       3.424   2.645  20.449  0.00  0.00    +0.000 A 
ATOM      6  C   UNL     1       3.497   3.666  19.480  0.00  0.00    +0.000 A 
ENDROOT
BRANCH   6   7
ATOM      7  C   UNL     1       4.815   3.791  18.771  0.00  0.00    +0.000 C 
ATOM      8  O   UNL     1       5.828   3.909  19.453  0.00  0.00    +0.000 OA
ATOM      9  N   UNL     1       4.817   3.804  17.396  0.00  0.00    +0.000 N 
ATOM     10  H   UNL     1       3.902   3.745  16.954  0.00  0.00    +0.000 HD
BRANCH   9  11
ATOM     11  C   UNL     1       5.944   4.072  16.500  0.00  0.00    +0.000 C 
ATOM     12  C   UNL     1       7.272   4.400  17.192  0.00  0.00    +0.000 C 
ATOM     13  C   UNL     1       7.425   5.847  17.641  0.00  0.00    +0.000 C 
ATOM     14  C   UNL     1       6.956   6.879  16.614  0.00  0.00    +0.000 C 
ATOM     15  C   UNL     1       5.684   6.531  15.843  0.00  0.00    +0.000 C 
ATOM     16  C   UNL     1       5.625   5.079  15.391  0.00  0.00    +0.000 C 
BRANCH  14  17
ATOM     17  O   UNL     1       6.752   8.125  17.283  0.00  0.00    +0.000 OA
ATOM     18  H   UNL     1       5.945   8.008  17.823  0.00  0.00    +0.000 HD
ENDBRANCH  14  17
ENDBRANCH   9  11
ENDBRANCH   6   7
BRANCH   1  19
ATOM     19  O   UNL     1       2.419   5.435  18.279  0.00  0.00    +0.000 OA
BRANCH  19  20
ATOM     20  C   UNL     1       3.172   6.619  18.572  0.00  0.00    +0.000 C 
BRANCH  20  26
ATOM     21  C   UNL     1       0.505   9.260  21.920  0.00  0.00    +0.000 C 
ATOM     22  C   UNL     1       0.950   9.047  20.504  0.00  0.00    +0.000 A 
ATOM     23  C   UNL     1       0.545   9.910  19.481  0.00  0.00    +0.000 A 
ATOM     24  C   UNL     1       0.975   9.704  18.171  0.00  0.00    +0.000 A 
ATOM     25  C   UNL     1       1.814   8.630  17.870  0.00  0.00    +0.000 A 
ATOM     26  C   UNL     1       2.227   7.752  18.878  0.00  0.00    +0.000 A 
ATOM     27  C   UNL     1       1.797   7.974  20.196  0.00  0.00    +0.000 A 
ENDBRANCH  20  26
ENDBRANCH  19  20
ENDBRANCH   1  19
TORSDOF 6
ENDMDL
MODEL 6
REMARK VINA RESULT:      -7.8      1.117      1.342
REMARK  Name = 
REMARK  7 active torsions:
REMARK  status: ('A' for Active; 'I' for Inactive)
REMARK    1  A    between atoms: C_1  and  C_2
REMARK    2  A    between atoms: C_6  and  C_7
REMARK    3  A    between atoms: C_7  and  O_8
REMARK    4  A    between atoms: O_8  and  C_9
REMARK    5  A    between atoms: C_14  and  C_15
REMARK    6  A    between atoms: N_17  and  C_18
REMARK    7  A    between atoms: C_21  and  O_22
REMARK                            x       y       z     vdW  Elec       q    Type
REMARK                         _______ _______ _______ _____ _____    ______ ____
ROOT
ATOM      1  C   UNL     1       1.644   7.484  20.368  0.00  0.00    +0.000 A 
ATOM      2  C   UNL     1       0.774   7.951  21.373  0.00  0.00    +0.000 A 
ATOM      3  C   UNL     1       0.248   9.244  21.329  0.00  0.00    +0.000 A 
ATOM      4  C   UNL     1       0.572  10.088  20.278  0.00  0.00    +0.000 A 
ATOM      5  C   UNL     1       1.393   9.621  19.251  0.00  0.00    +0.000 A 
ATOM      6  C   UNL     1       1.919   8.314  19.266  0.00  0.00    +0.000 A 
ENDROOT
BRANCH   6   7
ATOM      7  C   UNL     1       2.712   7.923  18.051  0.00  0.00    +0.000 C 
ATOM      8  O   UNL     1       2.456   8.482  16.990  0.00  0.00    +0.000 OA
ATOM      9  N   UNL     1       3.658   6.934  18.181  0.00  0.00    +0.000 N 
ATOM     10  H   UNL     1       3.738   6.519  19.107  0.00  0.00    +0.000 HD
BRANCH   9  11
ATOM     11  C   UNL     1       4.430   6.282  17.120  0.00  0.00    +0.000 C 
ATOM     12  C   UNL     1       4.710   4.791  17.331  0.00  0.00    +0.000 C 
ATOM     13  C   UNL     1       5.894   4.477  18.237  0.00  0.00    +0.000 C 
ATOM     14  C   UNL     1       7.131   5.339  17.978  0.00  0.00    +0.000 C 
ATOM     15  C   UNL     1       6.871   6.813  17.672  0.00  0.00    +0.000 C 
ATOM     16  C   UNL     1       5.701   7.042  16.726  0.00  0.00    +0.000 C 
BRANCH  14  17
ATOM     17  O   UNL     1       7.988   5.259  19.119  0.00  0.00    +0.000 OA
ATOM     18  H   UNL     1       8.890   5.437  18.787  0.00  0.00    +0.000 HD
ENDBRANCH  14  17
ENDBRANCH   9  11
ENDBRANCH   6   7
BRANCH   1  19
ATOM     19  O   UNL     1       2.222   6.237  20.419  0.00  0.00    +0.000 OA
BRANCH  19  20
ATOM     20  C   UNL     1       1.315   5.127  20.404  0.00  0.00    +0.000 C 
BRANCH  20  26
ATOM     21  C   UNL     1       4.842   1.542  20.502  0.00  0.00    +0.000 C 
ATOM     22  C   UNL     1       3.680   2.190  19.811  0.00  0.00    +0.000 A 
ATOM     23  C   UNL     1       3.179   1.682  18.608  0.00  0.00    +0.000 A 
ATOM     24  C   UNL     1       2.091   2.291  17.983  0.00  0.00    +0.000 A 
ATOM     25  C   UNL     1       1.495   3.416  18.554  0.00  0.00    +0.000 A 
ATOM     26  C   UNL     1       1.984   3.943  19.754  0.00  0.00    +0.000 A 
ATOM     27  C   UNL     1       3.072   3.317  20.381  0.00  0.00    +0.000 A 
ENDBRANCH  20  26
ENDBRANCH  19  20
ENDBRANCH   1  19
TORSDOF 6
ENDMDL
MODEL 7
REMARK VINA RESULT:      -7.7      1.576      5.094
REMARK  Name = 
REMARK  7 active torsions:
REMARK  status: ('A' for Active; 'I' for Inactive)
REMARK    1  A    between atoms: C_1  and  C_2
REMARK    2  A    between atoms: C_6  and  C_7
REMARK    3  A    between atoms: C_7  and  O_8
REMARK    4  A    between atoms: O_8  and  C_9
REMARK    5  A    between atoms: C_14  and  C_15
REMARK    6  A    between atoms: N_17  and  C_18
REMARK    7  A    between atoms: C_21  and  O_22
REMARK                            x       y       z     vdW  Elec       q    Type
REMARK                         _______ _______ _______ _____ _____    ______ ____
ROOT
ATOM      1  C   UNL     1       2.190   4.676  20.135  0.00  0.00    +0.000 A 
ATOM      2  C   UNL     1       1.756   4.080  21.335  0.00  0.00    +0.000 A 
ATOM      3  C   UNL     1       1.335   2.749  21.368  0.00  0.00    +0.000 A 
ATOM      4  C   UNL     1       1.349   1.989  20.208  0.00  0.00    +0.000 A 
ATOM      5  C   UNL     1       1.823   2.553  19.024  0.00  0.00    +0.000 A 
ATOM      6  C   UNL     1       2.271   3.888  18.972  0.00  0.00    +0.000 A 
ENDROOT
BRANCH   6   7
ATOM      7  C   UNL     1       2.837   4.330  17.652  0.00  0.00    +0.000 C 
ATOM      8  O   UNL     1       2.421   3.785  16.635  0.00  0.00    +0.000 OA
ATOM      9  N   UNL     1       3.815   5.295  17.652  0.00  0.00    +0.000 N 
ATOM     10  H   UNL     1       4.102   5.631  18.569  0.00  0.00    +0.000 HD
BRANCH   9  11
ATOM     11  C   UNL     1       4.617   5.765  16.520  0.00  0.00    +0.000 C 
ATOM     12  C   UNL     1       5.112   4.672  15.567  0.00  0.00    +0.000 C 
ATOM     13  C   UNL     1       6.372   3.945  16.017  0.00  0.00    +0.000 C 
ATOM     14  C   UNL     1       7.462   4.861  16.578  0.00  0.00    +0.000 C 
ATOM     15  C   UNL     1       6.984   6.015  17.456  0.00  0.00    +0.000 C 
ATOM     16  C   UNL     1       5.748   6.719  16.917  0.00  0.00    +0.000 C 
BRANCH  14  17
ATOM     17  O   UNL     1       8.378   4.066  17.334  0.00  0.00    +0.000 OA
ATOM     18  H   UNL     1       8.072   3.143  17.238  0.00  0.00    +0.000 HD
ENDBRANCH  14  17
ENDBRANCH   9  11
ENDBRANCH   6   7
BRANCH   1  19
ATOM     19  O   UNL     1       2.555   6.001  20.064  0.00  0.00    +0.000 OA
BRANCH  19  20
ATOM     20  C   UNL     1       1.682   6.925  20.727  0.00  0.00    +0.000 C 
BRANCH  20  26
ATOM     21  C   UNL     1       0.236  11.724  20.303  0.00  0.00    +0.000 C 
ATOM     22  C   UNL     1       0.872  10.509  19.696  0.00  0.00    +0.000 A 
ATOM     23  C   UNL     1       1.390  10.537  18.397  0.00  0.00    +0.000 A 
ATOM     24  C   UNL     1       1.987   9.402  17.850  0.00  0.00    +0.000 A 
ATOM     25  C   UNL     1       2.069   8.227  18.596  0.00  0.00    +0.000 A 
ATOM     26  C   UNL     1       1.552   8.175  19.896  0.00  0.00    +0.000 A 
ATOM     27  C   UNL     1       0.963   9.326  20.441  0.00  0.00    +0.000 A 
ENDBRANCH  20  26
ENDBRANCH  19  20
ENDBRANCH   1  19
TORSDOF 6
ENDMDL
MODEL 8
REMARK VINA RESULT:      -7.7      1.536      5.062
REMARK  Name = 
REMARK  7 active torsions:
REMARK  status: ('A' for Active; 'I' for Inactive)
REMARK    1  A    between atoms: C_1  and  C_2
REMARK    2  A    between atoms: C_6  and  C_7
REMARK    3  A    between atoms: C_7  and  O_8
REMARK    4  A    between atoms: O_8  and  C_9
REMARK    5  A    between atoms: C_14  and  C_15
REMARK    6  A    between atoms: N_17  and  C_18
REMARK    7  A    between atoms: C_21  and  O_22
REMARK                            x       y       z     vdW  Elec       q    Type
REMARK                         _______ _______ _______ _____ _____    ______ ____
ROOT
ATOM      1  C   UNL     1       2.600   4.841  19.744  0.00  0.00    +0.000 A 
ATOM      2  C   UNL     1       1.608   4.512  20.689  0.00  0.00    +0.000 A 
ATOM      3  C   UNL     1       1.035   3.239  20.720  0.00  0.00    +0.000 A 
ATOM      4  C   UNL     1       1.449   2.271  19.818  0.00  0.00    +0.000 A 
ATOM      5  C   UNL     1       2.465   2.568  18.910  0.00  0.00    +0.000 A 
ATOM      6  C   UNL     1       3.070   3.840  18.874  0.00  0.00    +0.000 A 
ENDROOT
BRANCH   6   7
ATOM      7  C   UNL     1       4.210   3.986  17.906  0.00  0.00    +0.000 C 
ATOM      8  O   UNL     1       4.061   3.550  16.769  0.00  0.00    +0.000 OA
ATOM      9  N   UNL     1       5.373   4.568  18.351  0.00  0.00    +0.000 N 
ATOM     10  H   UNL     1       5.380   4.845  19.330  0.00  0.00    +0.000 HD
BRANCH   9  11
ATOM     11  C   UNL     1       6.654   4.673  17.648  0.00  0.00    +0.000 C 
ATOM     12  C   UNL     1       7.843   5.109  18.509  0.00  0.00    +0.000 C 
ATOM     13  C   UNL     1       7.965   6.612  18.729  0.00  0.00    +0.000 C 
ATOM     14  C   UNL     1       7.729   7.454  17.473  0.00  0.00    +0.000 C 
ATOM     15  C   UNL     1       6.607   6.983  16.549  0.00  0.00    +0.000 C 
ATOM     16  C   UNL     1       6.579   5.476  16.345  0.00  0.00    +0.000 C 
BRANCH  14  17
ATOM     17  O   UNL     1       7.451   8.797  17.873  0.00  0.00    +0.000 OA
ATOM     18  H   UNL     1       8.322   9.226  17.987  0.00  0.00    +0.000 HD
ENDBRANCH  14  17
ENDBRANCH   9  11
ENDBRANCH   6   7
BRANCH   1  19
ATOM     19  O   UNL     1       3.137   6.104  19.654  0.00  0.00    +0.000 OA
BRANCH  19  20
ATOM     20  C   UNL     1       2.492   6.992  18.732  0.00  0.00    +0.000 C 
BRANCH  20  26
ATOM     21  C   UNL     1       0.302  11.520  18.775  0.00  0.00    +0.000 C 
ATOM     22  C   UNL     1       0.740  10.292  19.515  0.00  0.00    +0.000 A 
ATOM     23  C   UNL     1       0.490  10.144  20.883  0.00  0.00    +0.000 A 
ATOM     24  C   UNL     1       0.895   8.990  21.554  0.00  0.00    +0.000 A 
ATOM     25  C   UNL     1       1.557   7.975  20.864  0.00  0.00    +0.000 A 
ATOM     26  C   UNL     1       1.822   8.105  19.496  0.00  0.00    +0.000 A 
ATOM     27  C   UNL     1       1.401   9.265  18.827  0.00  0.00    +0.000 A 
ENDBRANCH  20  26
ENDBRANCH  19  20
ENDBRANCH   1  19
TORSDOF 6
ENDMDL
MODEL 9
REMARK VINA RESULT:      -7.6      1.541      5.732
REMARK  Name = 
REMARK  7 active torsions:
REMARK  status: ('A' for Active; 'I' for Inactive)
REMARK    1  A    between atoms: C_1  and  C_2
REMARK    2  A    between atoms: C_6  and  C_7
REMARK    3  A    between atoms: C_7  and  O_8
REMARK    4  A    between atoms: O_8  and  C_9
REMARK    5  A    between atoms: C_14  and  C_15
REMARK    6  A    between atoms: N_17  and  C_18
REMARK    7  A    between atoms: C_21  and  O_22
REMARK                            x       y       z     vdW  Elec       q    Type
REMARK                         _______ _______ _______ _____ _____    ______ ____
ROOT
ATOM      1  C   UNL     1       5.484   6.520  17.558  0.00  0.00    +0.000 A 
ATOM      2  C   UNL     1       6.284   7.559  17.044  0.00  0.00    +0.000 A 
ATOM      3  C   UNL     1       7.592   7.753  17.494  0.00  0.00    +0.000 A 
ATOM      4  C   UNL     1       8.125   6.909  18.456  0.00  0.00    +0.000 A 
ATOM      5  C   UNL     1       7.361   5.846  18.937  0.00  0.00    +0.000 A 
ATOM      6  C   UNL     1       6.046   5.620  18.483  0.00  0.00    +0.000 A 
ENDROOT
BRANCH   6   7
ATOM      7  C   UNL     1       5.378   4.388  19.023  0.00  0.00    +0.000 C 
ATOM      8  O   UNL     1       5.714   3.990  20.134  0.00  0.00    +0.000 OA
ATOM      9  N   UNL     1       4.452   3.749  18.234  0.00  0.00    +0.000 N 
ATOM     10  H   UNL     1       4.299   4.158  17.314  0.00  0.00    +0.000 HD
BRANCH   9  11
ATOM     11  C   UNL     1       3.797   2.462  18.476  0.00  0.00    +0.000 C 
ATOM     12  C   UNL     1       2.483   2.238  17.719  0.00  0.00    +0.000 C 
ATOM     13  C   UNL     1       1.253   2.863  18.364  0.00  0.00    +0.000 C 
ATOM     14  C   UNL     1       1.169   2.671  19.880  0.00  0.00    +0.000 C 
ATOM     15  C   UNL     1       2.484   2.797  20.647  0.00  0.00    +0.000 C 
ATOM     16  C   UNL     1       3.656   2.110  19.961  0.00  0.00    +0.000 C 
BRANCH  14  17
ATOM     17  O   UNL     1       0.246   3.626  20.408  0.00  0.00    +0.000 OA
ATOM     18  H   UNL     1      -0.537   3.590  19.823  0.00  0.00    +0.000 HD
ENDBRANCH  14  17
ENDBRANCH   9  11
ENDBRANCH   6   7
BRANCH   1  19
ATOM     19  O   UNL     1       4.174   6.344  17.175  0.00  0.00    +0.000 OA
BRANCH  19  20
ATOM     20  C   UNL     1       3.358   7.522  17.180  0.00  0.00    +0.000 C 
BRANCH  20  26
ATOM     21  C   UNL     1       0.459  10.136  20.352  0.00  0.00    +0.000 C 
ATOM     22  C   UNL     1       1.198   8.874  20.022  0.00  0.00    +0.000 A 
ATOM     23  C   UNL     1       1.169   7.773  20.883  0.00  0.00    +0.000 A 
ATOM     24  C   UNL     1       1.854   6.602  20.556  0.00  0.00    +0.000 A 
ATOM     25  C   UNL     1       2.576   6.524  19.366  0.00  0.00    +0.000 A 
ATOM     26  C   UNL     1       2.622   7.616  18.492  0.00  0.00    +0.000 A 
ATOM     27  C   UNL     1       1.921   8.785  18.825  0.00  0.00    +0.000 A 
ENDBRANCH  20  26
ENDBRANCH  19  20
ENDBRANCH   1  19
TORSDOF 6
ENDMDL
