MODEL 1
REMARK VINA RESULT:      -7.9      0.000      0.000
REMARK  Name = 
REMARK  9 active torsions:
REMARK  status: ('A' for Active; 'I' for Inactive)
REMARK    1  A    between atoms: C_1  and  O_2
REMARK    2  A    between atoms: O_2  and  C_3
REMARK    3  A    between atoms: N_7  and  C_8
REMARK    4  A    between atoms: C_11  and  C_12
REMARK    5  A    between atoms: C_21  and  O_22
REMARK    6  A    between atoms: O_22  and  C_23
REMARK    7  A    between atoms: C_23  and  C_24
REMARK    8  A    between atoms: C_24  and  C_25
REMARK    9  A    between atoms: C_25  and  N_26
REMARK                            x       y       z     vdW  Elec       q    Type
REMARK                         _______ _______ _______ _____ _____    ______ ____
ROOT
ATOM      1  C   UNL     1       2.408   5.604  20.299  0.00  0.00    +0.000 A 
ATOM      2  C   UNL     1       1.733   6.795  20.564  0.00  0.00    +0.000 A 
ATOM      3  C   UNL     1       1.808   7.907  19.719  0.00  0.00    +0.000 A 
ATOM      4  C   UNL     1       1.246   9.156  20.041  0.00  0.00    +0.000 A 
ATOM      5  N   UNL     1       0.670   9.371  21.336  0.00  0.00    +0.000 N 
ATOM      6  N   UNL     1       1.242  10.157  19.149  0.00  0.00    +0.000 NA
ATOM      7  C   UNL     1       1.825   9.917  17.969  0.00  0.00    +0.000 A 
ATOM      8  N   UNL     1       2.437   8.792  17.601  0.00  0.00    +0.000 NA
ATOM      9  C   UNL     1       2.437   7.774  18.473  0.00  0.00    +0.000 A 
ATOM     10  C   UNL     1       3.005   6.542  18.147  0.00  0.00    +0.000 A 
ATOM     11  C   UNL     1       2.982   5.451  19.028  0.00  0.00    +0.000 A 
ATOM     12  H   UNL     1       1.372   9.246  22.062  0.00  0.00    +0.000 HD
ENDROOT
BRANCH   5  13
ATOM     13  C   UNL     1      -0.249  10.411  21.617  0.00  0.00    +0.000 A 
ATOM     14  C   UNL     1      -0.738  10.555  22.923  0.00  0.00    +0.000 A 
ATOM     15  C   UNL     1      -1.811  11.397  23.204  0.00  0.00    +0.000 A 
ATOM     16  C   UNL     1      -2.396  12.137  22.179  0.00  0.00    +0.000 A 
ATOM     17  C   UNL     1      -1.842  12.102  20.895  0.00  0.00    +0.000 A 
ATOM     18  C   UNL     1      -0.762  11.248  20.616  0.00  0.00    +0.000 A 
BRANCH  16  19
ATOM     19  C   UNL     1      -3.601  12.862  22.426  0.00  0.00    +0.000 C 
ATOM     20  N   UNL     1      -4.598  13.449  22.602  0.00  0.00    +0.000 NA
ENDBRANCH  16  19
ENDBRANCH   5  13
BRANCH   1  22
ATOM     21  C   UNL     1       1.488   3.553  21.133  0.00  0.00    +0.000 C 
ATOM     22  O   UNL     1       2.438   4.625  21.251  0.00  0.00    +0.000 OA
ENDBRANCH   1  22
BRANCH  11  23
ATOM     23  O   UNL     1       3.503   4.291  18.490  0.00  0.00    +0.000 OA
BRANCH  23  24
ATOM     24  C   UNL     1       3.611   4.314  17.065  0.00  0.00    +0.000 C 
BRANCH  24  25
ATOM     25  C   UNL     1       5.038   4.111  16.578  0.00  0.00    +0.000 C 
BRANCH  25  26
ATOM     26  C   UNL     1       5.678   5.444  16.198  0.00  0.00    +0.000 C 
BRANCH  26  27
ATOM     27  N   UNL     1       7.115   5.471  16.508  0.00  0.00    +0.000 NA
ATOM     28  C   UNL     1       7.417   4.605  17.662  0.00  0.00    +0.000 C 
ATOM     29  C   UNL     1       7.207   5.490  18.875  0.00  0.00    +0.000 C 
ATOM     30  C   UNL     1       7.736   6.831  18.411  0.00  0.00    +0.000 C 
ATOM     31  C   UNL     1       7.573   6.817  16.899  0.00  0.00    +0.000 C 
ENDBRANCH  26  27
ENDBRANCH  25  26
ENDBRANCH  24  25
ENDBRANCH  23  24
ENDBRANCH  11  23
TORSDOF 8
ENDMDL
MODEL 2
REMARK VINA RESULT:      -7.6      3.085      4.799
REMARK  Name = 
REMARK  9 active torsions:
REMARK  status: ('A' for Active; 'I' for Inactive)
REMARK    1  A    between atoms: C_1  and  O_2
REMARK    2  A    between atoms: O_2  and  C_3
REMARK    3  A    between atoms: N_7  and  C_8
REMARK    4  A    between atoms: C_11  and  C_12
REMARK    5  A    between atoms: C_21  and  O_22
REMARK    6  A    between atoms: O_22  and  C_23
REMARK    7  A    between atoms: C_23  and  C_24
REMARK    8  A    between atoms: C_24  and  C_25
REMARK    9  A    between atoms: C_25  and  N_26
REMARK                            x       y       z     vdW  Elec       q    Type
REMARK                         _______ _______ _______ _____ _____    ______ ____
ROOT
ATOM      1  C   UNL     1       5.762   6.542  17.286  0.00  0.00    +0.000 A 
ATOM      2  C   UNL     1       4.665   7.010  18.008  0.00  0.00    +0.000 A 
ATOM      3  C   UNL     1       3.643   6.167  18.458  0.00  0.00    +0.000 A 
ATOM      4  C   UNL     1       2.467   6.642  19.066  0.00  0.00    +0.000 A 
ATOM      5  N   UNL     1       2.214   8.052  19.135  0.00  0.00    +0.000 N 
ATOM      6  N   UNL     1       1.570   5.791  19.584  0.00  0.00    +0.000 NA
ATOM      7  C   UNL     1       1.836   4.486  19.461  0.00  0.00    +0.000 A 
ATOM      8  N   UNL     1       2.888   3.944  18.847  0.00  0.00    +0.000 NA
ATOM      9  C   UNL     1       3.803   4.779  18.336  0.00  0.00    +0.000 A 
ATOM     10  C   UNL     1       4.962   4.298  17.727  0.00  0.00    +0.000 A 
ATOM     11  C   UNL     1       5.952   5.153  17.221  0.00  0.00    +0.000 A 
ATOM     12  H   UNL     1       2.160   8.449  18.199  0.00  0.00    +0.000 HD
ENDROOT
BRANCH   5  13
ATOM     13  C   UNL     1       1.300   8.635  20.046  0.00  0.00    +0.000 A 
ATOM     14  C   UNL     1       0.371   9.572  19.573  0.00  0.00    +0.000 A 
ATOM     15  C   UNL     1      -0.384  10.347  20.451  0.00  0.00    +0.000 A 
ATOM     16  C   UNL     1      -0.241  10.173  21.826  0.00  0.00    +0.000 A 
ATOM     17  C   UNL     1       0.588   9.157  22.313  0.00  0.00    +0.000 A 
ATOM     18  C   UNL     1       1.350   8.381  21.424  0.00  0.00    +0.000 A 
BRANCH  16  19
ATOM     19  C   UNL     1      -0.877  11.080  22.726  0.00  0.00    +0.000 C 
ATOM     20  N   UNL     1      -1.423  11.810  23.458  0.00  0.00    +0.000 NA
ENDBRANCH  16  19
ENDBRANCH   5  13
BRANCH   1  22
ATOM     21  C   UNL     1       7.704   7.923  17.542  0.00  0.00    +0.000 C 
ATOM     22  O   UNL     1       6.627   7.438  16.725  0.00  0.00    +0.000 OA
ENDBRANCH   1  22
BRANCH  11  23
ATOM     23  O   UNL     1       7.069   4.493  16.748  0.00  0.00    +0.000 OA
BRANCH  23  24
ATOM     24  C   UNL     1       7.280   4.652  15.343  0.00  0.00    +0.000 C 
BRANCH  24  25
ATOM     25  C   UNL     1       5.983   4.650  14.547  0.00  0.00    +0.000 C 
BRANCH  25  26
ATOM     26  C   UNL     1       5.839   3.359  13.746  0.00  0.00    +0.000 C 
BRANCH  26  27
ATOM     27  N   UNL     1       5.925   3.598  12.298  0.00  0.00    +0.000 NA
ATOM     28  C   UNL     1       5.021   2.694  11.564  0.00  0.00    +0.000 C 
ATOM     29  C   UNL     1       5.835   1.435  11.337  0.00  0.00    +0.000 C 
ATOM     30  C   UNL     1       7.222   1.974  11.058  0.00  0.00    +0.000 C 
ATOM     31  C   UNL     1       7.273   3.318  11.768  0.00  0.00    +0.000 C 
ENDBRANCH  26  27
ENDBRANCH  25  26
ENDBRANCH  24  25
ENDBRANCH  23  24
ENDBRANCH  11  23
TORSDOF 8
ENDMDL
MODEL 3
REMARK VINA RESULT:      -7.5      0.774      1.401
REMARK  Name = 
REMARK  9 active torsions:
REMARK  status: ('A' for Active; 'I' for Inactive)
REMARK    1  A    between atoms: C_1  and  O_2
REMARK    2  A    between atoms: O_2  and  C_3
REMARK    3  A    between atoms: N_7  and  C_8
REMARK    4  A    between atoms: C_11  and  C_12
REMARK    5  A    between atoms: C_21  and  O_22
REMARK    6  A    between atoms: O_22  and  C_23
REMARK    7  A    between atoms: C_23  and  C_24
REMARK    8  A    between atoms: C_24  and  C_25
REMARK    9  A    between atoms: C_25  and  N_26
REMARK                            x       y       z     vdW  Elec       q    Type
REMARK                         _______ _______ _______ _____ _____    ______ ____
ROOT
ATOM      1  C   UNL     1       2.601   5.249  19.952  0.00  0.00    +0.000 A 
ATOM      2  C   UNL     1       1.883   6.391  20.302  0.00  0.00    +0.000 A 
ATOM      3  C   UNL     1       1.909   7.562  19.538  0.00  0.00    +0.000 A 
ATOM      4  C   UNL     1       1.301   8.762  19.950  0.00  0.00    +0.000 A 
ATOM      5  N   UNL     1       0.726   8.862  21.259  0.00  0.00    +0.000 N 
ATOM      6  N   UNL     1       1.253   9.822  19.131  0.00  0.00    +0.000 NA
ATOM      7  C   UNL     1       1.836   9.689  17.934  0.00  0.00    +0.000 A 
ATOM      8  N   UNL     1       2.489   8.617  17.485  0.00  0.00    +0.000 NA
ATOM      9  C   UNL     1       2.535   7.541  18.283  0.00  0.00    +0.000 A 
ATOM     10  C   UNL     1       3.147   6.359  17.869  0.00  0.00    +0.000 A 
ATOM     11  C   UNL     1       3.173   5.208  18.671  0.00  0.00    +0.000 A 
ATOM     12  H   UNL     1       1.438   8.714  21.971  0.00  0.00    +0.000 HD
ENDROOT
BRANCH   5  13
ATOM     13  C   UNL     1      -0.231   9.844  21.616  0.00  0.00    +0.000 A 
ATOM     14  C   UNL     1      -0.687  10.739  20.638  0.00  0.00    +0.000 A 
ATOM     15  C   UNL     1      -1.436  11.862  20.980  0.00  0.00    +0.000 A 
ATOM     16  C   UNL     1      -1.769  12.092  22.313  0.00  0.00    +0.000 A 
ATOM     17  C   UNL     1      -1.430  11.144  23.285  0.00  0.00    +0.000 A 
ATOM     18  C   UNL     1      -0.671  10.015  22.936  0.00  0.00    +0.000 A 
BRANCH  16  19
ATOM     19  C   UNL     1      -2.382  13.325  22.689  0.00  0.00    +0.000 C 
ATOM     20  N   UNL     1      -2.907  14.329  22.980  0.00  0.00    +0.000 NA
ENDBRANCH  16  19
ENDBRANCH   5  13
BRANCH   1  22
ATOM     21  C   UNL     1       1.466   3.484  21.110  0.00  0.00    +0.000 C 
ATOM     22  O   UNL     1       2.676   4.207  20.832  0.00  0.00    +0.000 OA
ENDBRANCH   1  22
BRANCH  11  23
ATOM     23  O   UNL     1       3.734   4.110  18.050  0.00  0.00    +0.000 OA
BRANCH  23  24
ATOM     24  C   UNL     1       4.299   4.398  16.769  0.00  0.00    +0.000 C 
BRANCH  24  25
ATOM     25  C   UNL     1       5.677   3.784  16.579  0.00  0.00    +0.000 C 
BRANCH  25  26
ATOM     26  C   UNL     1       6.771   4.833  16.769  0.00  0.00    +0.000 C 
BRANCH  26  27
ATOM     27  N   UNL     1       6.431   5.795  17.827  0.00  0.00    +0.000 NA
ATOM     28  C   UNL     1       6.359   7.164  17.285  0.00  0.00    +0.000 C 
ATOM     29  C   UNL     1       7.781   7.685  17.360  0.00  0.00    +0.000 C 
ATOM     30  C   UNL     1       8.284   7.106  18.666  0.00  0.00    +0.000 C 
ATOM     31  C   UNL     1       7.460   5.846  18.882  0.00  0.00    +0.000 C 
ENDBRANCH  26  27
ENDBRANCH  25  26
ENDBRANCH  24  25
ENDBRANCH  23  24
ENDBRANCH  11  23
TORSDOF 8
ENDMDL
MODEL 4
REMARK VINA RESULT:      -7.5      1.077      1.251
REMARK  Name = 
REMARK  9 active torsions:
REMARK  status: ('A' for Active; 'I' for Inactive)
REMARK    1  A    between atoms: C_1  and  O_2
REMARK    2  A    between atoms: O_2  and  C_3
REMARK    3  A    between atoms: N_7  and  C_8
REMARK    4  A    between atoms: C_11  and  C_12
REMARK    5  A    between atoms: C_21  and  O_22
REMARK    6  A    between atoms: O_22  and  C_23
REMARK    7  A    between atoms: C_23  and  C_24
REMARK    8  A    between atoms: C_24  and  C_25
REMARK    9  A    between atoms: C_25  and  N_26
REMARK                            x       y       z     vdW  Elec       q    Type
REMARK                         _______ _______ _______ _____ _____    ______ ____
ROOT
ATOM      1  C   UNL     1       2.170   5.061  20.268  0.00  0.00    +0.000 A 
ATOM      2  C   UNL     1       1.707   6.326  20.628  0.00  0.00    +0.000 A 
ATOM      3  C   UNL     1       1.767   7.424  19.764  0.00  0.00    +0.000 A 
ATOM      4  C   UNL     1       1.432   8.732  20.159  0.00  0.00    +0.000 A 
ATOM      5  N   UNL     1       1.128   9.011  21.532  0.00  0.00    +0.000 N 
ATOM      6  N   UNL     1       1.394   9.730  19.265  0.00  0.00    +0.000 NA
ATOM      7  C   UNL     1       1.721   9.425  18.005  0.00  0.00    +0.000 A 
ATOM      8  N   UNL     1       2.113   8.233  17.552  0.00  0.00    +0.000 NA
ATOM      9  C   UNL     1       2.142   7.219  18.428  0.00  0.00    +0.000 A 
ATOM     10  C   UNL     1       2.484   5.928  18.028  0.00  0.00    +0.000 A 
ATOM     11  C   UNL     1       2.484   4.843  18.918  0.00  0.00    +0.000 A 
ATOM     12  H   UNL     1       1.928   8.794  22.124  0.00  0.00    +0.000 HD
ENDROOT
BRANCH   5  13
ATOM     13  C   UNL     1       0.412  10.156  21.954  0.00  0.00    +0.000 A 
ATOM     14  C   UNL     1      -0.575  10.019  22.940  0.00  0.00    +0.000 A 
ATOM     15  C   UNL     1      -1.466  11.052  23.220  0.00  0.00    +0.000 A 
ATOM     16  C   UNL     1      -1.363  12.260  22.533  0.00  0.00    +0.000 A 
ATOM     17  C   UNL     1      -0.308  12.459  21.636  0.00  0.00    +0.000 A 
ATOM     18  C   UNL     1       0.586  11.412  21.355  0.00  0.00    +0.000 A 
BRANCH  16  19
ATOM     19  C   UNL     1      -2.376  13.253  22.688  0.00  0.00    +0.000 C 
ATOM     20  N   UNL     1      -3.204  14.074  22.787  0.00  0.00    +0.000 NA
ENDBRANCH  16  19
ENDBRANCH   5  13
BRANCH   1  22
ATOM     21  C   UNL     1       1.276   3.023  21.160  0.00  0.00    +0.000 C 
ATOM     22  O   UNL     1       2.248   4.080  21.216  0.00  0.00    +0.000 OA
ENDBRANCH   1  22
BRANCH  11  23
ATOM     23  O   UNL     1       2.752   3.630  18.316  0.00  0.00    +0.000 OA
BRANCH  23  24
ATOM     24  C   UNL     1       4.137   3.419  18.034  0.00  0.00    +0.000 C 
BRANCH  24  25
ATOM     25  C   UNL     1       5.024   3.619  19.254  0.00  0.00    +0.000 C 
BRANCH  25  26
ATOM     26  C   UNL     1       5.712   4.981  19.209  0.00  0.00    +0.000 C 
BRANCH  26  27
ATOM     27  N   UNL     1       6.552   5.133  18.012  0.00  0.00    +0.000 NA
ATOM     28  C   UNL     1       7.959   5.366  18.387  0.00  0.00    +0.000 C 
ATOM     29  C   UNL     1       8.065   6.867  18.571  0.00  0.00    +0.000 C 
ATOM     30  C   UNL     1       7.177   7.407  17.469  0.00  0.00    +0.000 C 
ATOM     31  C   UNL     1       6.164   6.304  17.205  0.00  0.00    +0.000 C 
ENDBRANCH  26  27
ENDBRANCH  25  26
ENDBRANCH  24  25
ENDBRANCH  23  24
ENDBRANCH  11  23
TORSDOF 8
ENDMDL
MODEL 5
REMARK VINA RESULT:      -7.5      2.872      4.701
REMARK  Name = 
REMARK  9 active torsions:
REMARK  status: ('A' for Active; 'I' for Inactive)
REMARK    1  A    between atoms: C_1  and  O_2
REMARK    2  A    between atoms: O_2  and  C_3
REMARK    3  A    between atoms: N_7  and  C_8
REMARK    4  A    between atoms: C_11  and  C_12
REMARK    5  A    between atoms: C_21  and  O_22
REMARK    6  A    between atoms: O_22  and  C_23
REMARK    7  A    between atoms: C_23  and  C_24
REMARK    8  A    between atoms: C_24  and  C_25
REMARK    9  A    between atoms: C_25  and  N_26
REMARK                            x       y       z     vdW  Elec       q    Type
REMARK                         _______ _______ _______ _____ _____    ______ ____
ROOT
ATOM      1  C   UNL     1       3.778   6.906  17.388  0.00  0.00    +0.000 A 
ATOM      2  C   UNL     1       3.123   8.084  17.743  0.00  0.00    +0.000 A 
ATOM      3  C   UNL     1       2.280   8.173  18.855  0.00  0.00    +0.000 A 
ATOM      4  C   UNL     1       1.508   9.313  19.145  0.00  0.00    +0.000 A 
ATOM      5  N   UNL     1       1.464  10.405  18.217  0.00  0.00    +0.000 N 
ATOM      6  N   UNL     1       0.805   9.394  20.284  0.00  0.00    +0.000 NA
ATOM      7  C   UNL     1       0.850   8.334  21.099  0.00  0.00    +0.000 A 
ATOM      8  N   UNL     1       1.500   7.190  20.877  0.00  0.00    +0.000 NA
ATOM      9  C   UNL     1       2.220   7.096  19.751  0.00  0.00    +0.000 A 
ATOM     10  C   UNL     1       2.975   5.959  19.469  0.00  0.00    +0.000 A 
ATOM     11  C   UNL     1       3.768   5.853  18.316  0.00  0.00    +0.000 A 
ATOM     12  H   UNL     1       1.084  10.097  17.324  0.00  0.00    +0.000 HD
ENDROOT
BRANCH   5  13
ATOM     13  C   UNL     1       1.064  11.715  18.575  0.00  0.00    +0.000 A 
ATOM     14  C   UNL     1      -0.300  12.039  18.566  0.00  0.00    +0.000 A 
ATOM     15  C   UNL     1      -0.730  13.359  18.674  0.00  0.00    +0.000 A 
ATOM     16  C   UNL     1       0.205  14.381  18.826  0.00  0.00    +0.000 A 
ATOM     17  C   UNL     1       1.561  14.065  18.964  0.00  0.00    +0.000 A 
ATOM     18  C   UNL     1       1.990  12.733  18.850  0.00  0.00    +0.000 A 
BRANCH  16  19
ATOM     19  C   UNL     1      -0.217  15.744  18.761  0.00  0.00    +0.000 C 
ATOM     20  N   UNL     1      -0.588  16.851  18.697  0.00  0.00    +0.000 NA
ENDBRANCH  16  19
ENDBRANCH   5  13
BRANCH   1  22
ATOM     21  C   UNL     1       5.860   6.628  16.234  0.00  0.00    +0.000 C 
ATOM     22  O   UNL     1       4.439   6.839  16.195  0.00  0.00    +0.000 OA
ENDBRANCH   1  22
BRANCH  11  23
ATOM     23  O   UNL     1       4.519   4.696  18.261  0.00  0.00    +0.000 OA
BRANCH  23  24
ATOM     24  C   UNL     1       4.849   4.161  19.546  0.00  0.00    +0.000 C 
BRANCH  24  25
ATOM     25  C   UNL     1       4.475   2.694  19.687  0.00  0.00    +0.000 C 
BRANCH  25  26
ATOM     26  C   UNL     1       3.371   2.316  18.703  0.00  0.00    +0.000 C 
BRANCH  26  27
ATOM     27  N   UNL     1       2.190   1.766  19.386  0.00  0.00    +0.000 NA
ATOM     28  C   UNL     1       0.949   2.289  18.787  0.00  0.00    +0.000 C 
ATOM     29  C   UNL     1       0.685   3.589  19.521  0.00  0.00    +0.000 C 
ATOM     30  C   UNL     1       1.103   3.267  20.941  0.00  0.00    +0.000 C 
ATOM     31  C   UNL     1       2.137   2.160  20.806  0.00  0.00    +0.000 C 
ENDBRANCH  26  27
ENDBRANCH  25  26
ENDBRANCH  24  25
ENDBRANCH  23  24
ENDBRANCH  11  23
TORSDOF 8
ENDMDL
MODEL 6
REMARK VINA RESULT:      -7.5      1.017      1.321
REMARK  Name = 
REMARK  9 active torsions:
REMARK  status: ('A' for Active; 'I' for Inactive)
REMARK    1  A    between atoms: C_1  and  O_2
REMARK    2  A    between atoms: O_2  and  C_3
REMARK    3  A    between atoms: N_7  and  C_8
REMARK    4  A    between atoms: C_11  and  C_12
REMARK    5  A    between atoms: C_21  and  O_22
REMARK    6  A    between atoms: O_22  and  C_23
REMARK    7  A    between atoms: C_23  and  C_24
REMARK    8  A    between atoms: C_24  and  C_25
REMARK    9  A    between atoms: C_25  and  N_26
REMARK                            x       y       z     vdW  Elec       q    Type
REMARK                         _______ _______ _______ _____ _____    ______ ____
ROOT
ATOM      1  C   UNL     1       2.468   5.312  20.300  0.00  0.00    +0.000 A 
ATOM      2  C   UNL     1       1.882   6.540  20.602  0.00  0.00    +0.000 A 
ATOM      3  C   UNL     1       1.901   7.623  19.718  0.00  0.00    +0.000 A 
ATOM      4  C   UNL     1       1.435   8.905  20.062  0.00  0.00    +0.000 A 
ATOM      5  N   UNL     1       1.029   9.183  21.409  0.00  0.00    +0.000 N 
ATOM      6  N   UNL     1       1.367   9.880  19.144  0.00  0.00    +0.000 NA
ATOM      7  C   UNL     1       1.792   9.580  17.912  0.00  0.00    +0.000 A 
ATOM      8  N   UNL     1       2.307   8.417  17.511  0.00  0.00    +0.000 NA
ATOM      9  C   UNL     1       2.369   7.426  18.411  0.00  0.00    +0.000 A 
ATOM     10  C   UNL     1       2.840   6.161  18.061  0.00  0.00    +0.000 A 
ATOM     11  C   UNL     1       2.878   5.097  18.975  0.00  0.00    +0.000 A 
ATOM     12  H   UNL     1       1.808   9.046  22.050  0.00  0.00    +0.000 HD
ENDROOT
BRANCH   5  13
ATOM     13  C   UNL     1       0.196  10.272  21.762  0.00  0.00    +0.000 A 
ATOM     14  C   UNL     1       0.507  11.552  21.282  0.00  0.00    +0.000 A 
ATOM     15  C   UNL     1      -0.128  12.686  21.784  0.00  0.00    +0.000 A 
ATOM     16  C   UNL     1      -1.114  12.552  22.759  0.00  0.00    +0.000 A 
ATOM     17  C   UNL     1      -1.525  11.276  23.158  0.00  0.00    +0.000 A 
ATOM     18  C   UNL     1      -0.879  10.136  22.652  0.00  0.00    +0.000 A 
BRANCH  16  19
ATOM     19  C   UNL     1      -1.640  13.714  23.400  0.00  0.00    +0.000 C 
ATOM     20  N   UNL     1      -2.058  14.683  23.905  0.00  0.00    +0.000 NA
ENDBRANCH  16  19
ENDBRANCH   5  13
BRANCH   1  22
ATOM     21  C   UNL     1       1.660   3.251  21.218  0.00  0.00    +0.000 C 
ATOM     22  O   UNL     1       2.572   4.360  21.273  0.00  0.00    +0.000 OA
ENDBRANCH   1  22
BRANCH  11  23
ATOM     23  O   UNL     1       3.281   3.899  18.418  0.00  0.00    +0.000 OA
BRANCH  23  24
ATOM     24  C   UNL     1       3.278   3.899  16.988  0.00  0.00    +0.000 C 
BRANCH  24  25
ATOM     25  C   UNL     1       4.624   4.286  16.396  0.00  0.00    +0.000 C 
BRANCH  25  26
ATOM     26  C   UNL     1       5.766   3.860  17.315  0.00  0.00    +0.000 C 
BRANCH  26  27
ATOM     27  N   UNL     1       7.040   4.489  16.937  0.00  0.00    +0.000 NA
ATOM     28  C   UNL     1       7.859   4.769  18.130  0.00  0.00    +0.000 C 
ATOM     29  C   UNL     1       7.400   6.135  18.600  0.00  0.00    +0.000 C 
ATOM     30  C   UNL     1       7.162   6.878  17.302  0.00  0.00    +0.000 C 
ATOM     31  C   UNL     1       6.841   5.795  16.283  0.00  0.00    +0.000 C 
ENDBRANCH  26  27
ENDBRANCH  25  26
ENDBRANCH  24  25
ENDBRANCH  23  24
ENDBRANCH  11  23
TORSDOF 8
ENDMDL
MODEL 7
REMARK VINA RESULT:      -7.5      1.330      1.961
REMARK  Name = 
REMARK  9 active torsions:
REMARK  status: ('A' for Active; 'I' for Inactive)
REMARK    1  A    between atoms: C_1  and  O_2
REMARK    2  A    between atoms: O_2  and  C_3
REMARK    3  A    between atoms: N_7  and  C_8
REMARK    4  A    between atoms: C_11  and  C_12
REMARK    5  A    between atoms: C_21  and  O_22
REMARK    6  A    between atoms: O_22  and  C_23
REMARK    7  A    between atoms: C_23  and  C_24
REMARK    8  A    between atoms: C_24  and  C_25
REMARK    9  A    between atoms: C_25  and  N_26
REMARK                            x       y       z     vdW  Elec       q    Type
REMARK                         _______ _______ _______ _____ _____    ______ ____
ROOT
ATOM      1  C   UNL     1       2.242   5.050  20.579  0.00  0.00    +0.000 A 
ATOM      2  C   UNL     1       1.701   6.309  20.838  0.00  0.00    +0.000 A 
ATOM      3  C   UNL     1       1.777   7.364  19.925  0.00  0.00    +0.000 A 
ATOM      4  C   UNL     1       1.359   8.673  20.227  0.00  0.00    +0.000 A 
ATOM      5  N   UNL     1       0.944   9.005  21.558  0.00  0.00    +0.000 N 
ATOM      6  N   UNL     1       1.343   9.624  19.281  0.00  0.00    +0.000 NA
ATOM      7  C   UNL     1       1.774   9.273  18.064  0.00  0.00    +0.000 A 
ATOM      8  N   UNL     1       2.248   8.079  17.704  0.00  0.00    +0.000 NA
ATOM      9  C   UNL     1       2.257   7.112  18.632  0.00  0.00    +0.000 A 
ATOM     10  C   UNL     1       2.681   5.820  18.325  0.00  0.00    +0.000 A 
ATOM     11  C   UNL     1       2.662   4.781  19.268  0.00  0.00    +0.000 A 
ATOM     12  H   UNL     1       1.708   8.856  22.215  0.00  0.00    +0.000 HD
ENDROOT
BRANCH   5  13
ATOM     13  C   UNL     1       0.151  10.136  21.868  0.00  0.00    +0.000 A 
ATOM     14  C   UNL     1       0.451  11.365  21.264  0.00  0.00    +0.000 A 
ATOM     15  C   UNL     1      -0.135  12.549  21.706  0.00  0.00    +0.000 A 
ATOM     16  C   UNL     1      -1.062  12.517  22.746  0.00  0.00    +0.000 A 
ATOM     17  C   UNL     1      -1.466  11.286  23.275  0.00  0.00    +0.000 A 
ATOM     18  C   UNL     1      -0.869  10.096  22.829  0.00  0.00    +0.000 A 
BRANCH  16  19
ATOM     19  C   UNL     1      -1.530  13.738  23.318  0.00  0.00    +0.000 C 
ATOM     20  N   UNL     1      -1.933  14.742  23.763  0.00  0.00    +0.000 NA
ENDBRANCH  16  19
ENDBRANCH   5  13
BRANCH   1  22
ATOM     21  C   UNL     1       1.370   3.022  21.514  0.00  0.00    +0.000 C 
ATOM     22  O   UNL     1       2.292   4.122  21.580  0.00  0.00    +0.000 OA
ENDBRANCH   1  22
BRANCH  11  23
ATOM     23  O   UNL     1       3.024   3.553  18.751  0.00  0.00    +0.000 OA
BRANCH  23  24
ATOM     24  C   UNL     1       4.364   3.167  19.066  0.00  0.00    +0.000 C 
BRANCH  24  25
ATOM     25  C   UNL     1       5.318   4.350  19.133  0.00  0.00    +0.000 C 
BRANCH  25  26
ATOM     26  C   UNL     1       6.303   4.321  17.967  0.00  0.00    +0.000 C 
BRANCH  26  27
ATOM     27  N   UNL     1       5.881   5.204  16.869  0.00  0.00    +0.000 NA
ATOM     28  C   UNL     1       5.052   4.468  15.897  0.00  0.00    +0.000 C 
ATOM     29  C   UNL     1       6.045   3.853  14.931  0.00  0.00    +0.000 C 
ATOM     30  C   UNL     1       7.100   4.931  14.797  0.00  0.00    +0.000 C 
ATOM     31  C   UNL     1       7.027   5.717  16.097  0.00  0.00    +0.000 C 
ENDBRANCH  26  27
ENDBRANCH  25  26
ENDBRANCH  24  25
ENDBRANCH  23  24
ENDBRANCH  11  23
TORSDOF 8
ENDMDL
MODEL 8
REMARK VINA RESULT:      -7.5      0.639      1.193
REMARK  Name = 
REMARK  9 active torsions:
REMARK  status: ('A' for Active; 'I' for Inactive)
REMARK    1  A    between atoms: C_1  and  O_2
REMARK    2  A    between atoms: O_2  and  C_3
REMARK    3  A    between atoms: N_7  and  C_8
REMARK    4  A    between atoms: C_11  and  C_12
REMARK    5  A    between atoms: C_21  and  O_22
REMARK    6  A    between atoms: O_22  and  C_23
REMARK    7  A    between atoms: C_23  and  C_24
REMARK    8  A    between atoms: C_24  and  C_25
REMARK    9  A    between atoms: C_25  and  N_26
REMARK                            x       y       z     vdW  Elec       q    Type
REMARK                         _______ _______ _______ _____ _____    ______ ____
ROOT
ATOM      1  C   UNL     1       2.258   5.562  20.382  0.00  0.00    +0.000 A 
ATOM      2  C   UNL     1       1.609   6.774  20.617  0.00  0.00    +0.000 A 
ATOM      3  C   UNL     1       1.706   7.862  19.744  0.00  0.00    +0.000 A 
ATOM      4  C   UNL     1       1.171   9.130  20.035  0.00  0.00    +0.000 A 
ATOM      5  N   UNL     1       0.603   9.391  21.325  0.00  0.00    +0.000 N 
ATOM      6  N   UNL     1       1.187  10.108  19.118  0.00  0.00    +0.000 NA
ATOM      7  C   UNL     1       1.762   9.826  17.943  0.00  0.00    +0.000 A 
ATOM      8  N   UNL     1       2.349   8.679  17.602  0.00  0.00    +0.000 NA
ATOM      9  C   UNL     1       2.329   7.683  18.500  0.00  0.00    +0.000 A 
ATOM     10  C   UNL     1       2.869   6.432  18.205  0.00  0.00    +0.000 A 
ATOM     11  C   UNL     1       2.825   5.364  19.114  0.00  0.00    +0.000 A 
ATOM     12  H   UNL     1       1.304   9.269  22.053  0.00  0.00    +0.000 HD
ENDROOT
BRANCH   5  13
ATOM     13  C   UNL     1      -0.293  10.457  21.580  0.00  0.00    +0.000 A 
ATOM     14  C   UNL     1      -0.737  10.675  22.892  0.00  0.00    +0.000 A 
ATOM     15  C   UNL     1      -1.790  11.546  23.163  0.00  0.00    +0.000 A 
ATOM     16  C   UNL     1      -2.398  12.241  22.120  0.00  0.00    +0.000 A 
ATOM     17  C   UNL     1      -1.886  12.132  20.823  0.00  0.00    +0.000 A 
ATOM     18  C   UNL     1      -0.827  11.250  20.555  0.00  0.00    +0.000 A 
BRANCH  16  19
ATOM     19  C   UNL     1      -3.585  12.996  22.368  0.00  0.00    +0.000 C 
ATOM     20  N   UNL     1      -4.543  13.629  22.592  0.00  0.00    +0.000 NA
ENDBRANCH  16  19
ENDBRANCH   5  13
BRANCH   1  22
ATOM     21  C   UNL     1       1.442   3.448  21.164  0.00  0.00    +0.000 C 
ATOM     22  O   UNL     1       2.269   4.607  21.358  0.00  0.00    +0.000 OA
ENDBRANCH   1  22
BRANCH  11  23
ATOM     23  O   UNL     1       3.320   4.180  18.605  0.00  0.00    +0.000 OA
BRANCH  23  24
ATOM     24  C   UNL     1       4.707   3.968  18.883  0.00  0.00    +0.000 C 
BRANCH  24  25
ATOM     25  C   UNL     1       5.546   3.825  17.622  0.00  0.00    +0.000 C 
BRANCH  25  26
ATOM     26  C   UNL     1       6.920   4.465  17.809  0.00  0.00    +0.000 C 
BRANCH  26  27
ATOM     27  N   UNL     1       7.264   5.361  16.695  0.00  0.00    +0.000 NA
ATOM     28  C   UNL     1       7.336   6.760  17.155  0.00  0.00    +0.000 C 
ATOM     29  C   UNL     1       5.916   7.277  17.044  0.00  0.00    +0.000 C 
ATOM     30  C   UNL     1       5.415   6.621  15.774  0.00  0.00    +0.000 C 
ATOM     31  C   UNL     1       6.239   5.350  15.636  0.00  0.00    +0.000 C 
ENDBRANCH  26  27
ENDBRANCH  25  26
ENDBRANCH  24  25
ENDBRANCH  23  24
ENDBRANCH  11  23
TORSDOF 8
ENDMDL
MODEL 9
REMARK VINA RESULT:      -7.3      0.899      1.179
REMARK  Name = 
REMARK  9 active torsions:
REMARK  status: ('A' for Active; 'I' for Inactive)
REMARK    1  A    between atoms: C_1  and  O_2
REMARK    2  A    between atoms: O_2  and  C_3
REMARK    3  A    between atoms: N_7  and  C_8
REMARK    4  A    between atoms: C_11  and  C_12
REMARK    5  A    between atoms: C_21  and  O_22
REMARK    6  A    between atoms: O_22  and  C_23
REMARK    7  A    between atoms: C_23  and  C_24
REMARK    8  A    between atoms: C_24  and  C_25
REMARK    9  A    between atoms: C_25  and  N_26
REMARK                            x       y       z     vdW  Elec       q    Type
REMARK                         _______ _______ _______ _____ _____    ______ ____
ROOT
ATOM      1  C   UNL     1       2.157   4.966  19.494  0.00  0.00    +0.000 A 
ATOM      2  C   UNL     1       1.635   6.170  19.964  0.00  0.00    +0.000 A 
ATOM      3  C   UNL     1       1.854   7.390  19.317  0.00  0.00    +0.000 A 
ATOM      4  C   UNL     1       1.450   8.627  19.852  0.00  0.00    +0.000 A 
ATOM      5  N   UNL     1       0.895   8.691  21.172  0.00  0.00    +0.000 N 
ATOM      6  N   UNL     1       1.578   9.757  19.141  0.00  0.00    +0.000 NA
ATOM      7  C   UNL     1       2.135   9.649  17.930  0.00  0.00    +0.000 A 
ATOM      8  N   UNL     1       2.605   8.534  17.369  0.00  0.00    +0.000 NA
ATOM      9  C   UNL     1       2.472   7.391  18.058  0.00  0.00    +0.000 A 
ATOM     10  C   UNL     1       2.884   6.172  17.522  0.00  0.00    +0.000 A 
ATOM     11  C   UNL     1       2.718   4.959  18.208  0.00  0.00    +0.000 A 
ATOM     12  H   UNL     1       1.570   8.359  21.857  0.00  0.00    +0.000 HD
ENDROOT
BRANCH   5  13
ATOM     13  C   UNL     1       0.111   9.775  21.636  0.00  0.00    +0.000 A 
ATOM     14  C   UNL     1      -0.290   9.801  22.979  0.00  0.00    +0.000 A 
ATOM     15  C   UNL     1      -1.249  10.706  23.429  0.00  0.00    +0.000 A 
ATOM     16  C   UNL     1      -1.803  11.625  22.541  0.00  0.00    +0.000 A 
ATOM     17  C   UNL     1      -1.325  11.696  21.229  0.00  0.00    +0.000 A 
ATOM     18  C   UNL     1      -0.361  10.780  20.779  0.00  0.00    +0.000 A 
BRANCH  16  19
ATOM     19  C   UNL     1      -2.907  12.432  22.953  0.00  0.00    +0.000 C 
ATOM     20  N   UNL     1      -3.809  13.108  23.265  0.00  0.00    +0.000 NA
ENDBRANCH  16  19
ENDBRANCH   5  13
BRANCH   1  22
ATOM     21  C   UNL     1       2.351   3.974  21.668  0.00  0.00    +0.000 C 
ATOM     22  O   UNL     1       2.057   3.844  20.267  0.00  0.00    +0.000 OA
ENDBRANCH   1  22
BRANCH  11  23
ATOM     23  O   UNL     1       3.094   3.850  17.476  0.00  0.00    +0.000 OA
BRANCH  23  24
ATOM     24  C   UNL     1       4.469   3.492  17.638  0.00  0.00    +0.000 C 
BRANCH  24  25
ATOM     25  C   UNL     1       5.318   3.846  16.427  0.00  0.00    +0.000 C 
BRANCH  25  26
ATOM     26  C   UNL     1       6.561   4.628  16.845  0.00  0.00    +0.000 C 
BRANCH  26  27
ATOM     27  N   UNL     1       6.260   5.623  17.885  0.00  0.00    +0.000 NA
ATOM     28  C   UNL     1       6.236   6.982  17.315  0.00  0.00    +0.000 C 
ATOM     29  C   UNL     1       7.676   7.452  17.376  0.00  0.00    +0.000 C 
ATOM     30  C   UNL     1       8.163   6.882  18.691  0.00  0.00    +0.000 C 
ATOM     31  C   UNL     1       7.294   5.658  18.936  0.00  0.00    +0.000 C 
ENDBRANCH  26  27
ENDBRANCH  25  26
ENDBRANCH  24  25
ENDBRANCH  23  24
ENDBRANCH  11  23
TORSDOF 8
ENDMDL
