MODEL 1
REMARK VINA RESULT:      -7.6      0.000      0.000
REMARK  Name = 
REMARK  4 active torsions:
REMARK  status: ('A' for Active; 'I' for Inactive)
REMARK    1  A    between atoms: C_1  and  C_2
REMARK    2  A    between atoms: C_4  and  N_5
REMARK    3  A    between atoms: N_5  and  C_6
REMARK    4  A    between atoms: C_6  and  C_7
REMARK                            x       y       z     vdW  Elec       q    Type
REMARK                         _______ _______ _______ _____ _____    ______ ____
ROOT
ATOM      1  C   UNL     1       2.280   1.981  17.844  0.00  0.00    +0.000 C 
ATOM      2  C   UNL     1       3.121   3.165  18.215  0.00  0.00    +0.000 A 
ATOM      3  C   UNL     1       4.390   3.345  17.634  0.00  0.00    +0.000 A 
ATOM      4  C   UNL     1       5.232   4.401  18.012  0.00  0.00    +0.000 A 
ATOM      5  N   UNL     1       4.880   5.339  18.918  0.00  0.00    +0.000 NA
ATOM      6  C   UNL     1       3.644   5.156  19.426  0.00  0.00    +0.000 A 
ATOM      7  N   UNL     1       3.031   5.958  20.350  0.00  0.00    +0.000 N 
ATOM      8  N   UNL     1       1.805   5.529  20.718  0.00  0.00    +0.000 NA
ATOM      9  C   UNL     1       1.635   4.421  20.007  0.00  0.00    +0.000 A 
ATOM     10  N   UNL     1       0.533   3.669  20.106  0.00  0.00    +0.000 N 
ATOM     11  C   UNL     1       2.744   4.139  19.155  0.00  0.00    +0.000 A 
ATOM     12  H   UNL     1       3.403   6.796  20.767  0.00  0.00    +0.000 HD
ATOM     13  H   UNL     1      -0.218   3.976  20.712  0.00  0.00    +0.000 HD
ATOM     14  H   UNL     1       0.351   2.843  19.554  0.00  0.00    +0.000 HD
ENDROOT
BRANCH   4  15
ATOM     15  N   UNL     1       6.521   4.361  17.483  0.00  0.00    +0.000 N 
ATOM     16  H   UNL     1       6.831   3.430  17.232  0.00  0.00    +0.000 HD
BRANCH  15  17
ATOM     17  C   UNL     1       6.945   5.385  16.545  0.00  0.00    +0.000 C 
BRANCH  17  18
ATOM     18  C   UNL     1       6.905   4.872  15.139  0.00  0.00    +0.000 A 
ATOM     19  C   UNL     1       6.144   3.911  14.504  0.00  0.00    +0.000 A 
ATOM     20  C   UNL     1       6.532   3.926  13.143  0.00  0.00    +0.000 A 
ATOM     21  C   UNL     1       7.499   4.896  13.030  0.00  0.00    +0.000 A 
ATOM     22  O   UNL     1       7.733   5.479  14.235  0.00  0.00    +0.000 OA
ENDBRANCH  17  18
ENDBRANCH  15  17
ENDBRANCH   4  15
TORSDOF 3
ENDMDL
MODEL 2
REMARK VINA RESULT:      -7.6      2.071      3.426
REMARK  Name = 
REMARK  4 active torsions:
REMARK  status: ('A' for Active; 'I' for Inactive)
REMARK    1  A    between atoms: C_1  and  C_2
REMARK    2  A    between atoms: C_4  and  N_5
REMARK    3  A    between atoms: N_5  and  C_6
REMARK    4  A    between atoms: C_6  and  C_7
REMARK                            x       y       z     vdW  Elec       q    Type
REMARK                         _______ _______ _______ _____ _____    ______ ____
ROOT
ATOM      1  C   UNL     1       2.312   6.470  19.171  0.00  0.00    +0.000 C 
ATOM      2  C   UNL     1       2.877   5.272  18.471  0.00  0.00    +0.000 A 
ATOM      3  C   UNL     1       3.912   5.423  17.528  0.00  0.00    +0.000 A 
ATOM      4  C   UNL     1       4.414   4.333  16.802  0.00  0.00    +0.000 A 
ATOM      5  N   UNL     1       3.980   3.065  16.977  0.00  0.00    +0.000 NA
ATOM      6  C   UNL     1       3.016   2.954  17.914  0.00  0.00    +0.000 A 
ATOM      7  N   UNL     1       2.407   1.791  18.301  0.00  0.00    +0.000 N 
ATOM      8  N   UNL     1       1.447   1.963  19.234  0.00  0.00    +0.000 NA
ATOM      9  C   UNL     1       1.445   3.273  19.445  0.00  0.00    +0.000 A 
ATOM     10  N   UNL     1       0.601   3.860  20.301  0.00  0.00    +0.000 N 
ATOM     11  C   UNL     1       2.424   3.956  18.663  0.00  0.00    +0.000 A 
ATOM     12  H   UNL     1       2.598   0.864  17.959  0.00  0.00    +0.000 HD
ATOM     13  H   UNL     1      -0.033   3.282  20.839  0.00  0.00    +0.000 HD
ATOM     14  H   UNL     1       0.597   4.847  20.516  0.00  0.00    +0.000 HD
ENDROOT
BRANCH   4  15
ATOM     15  N   UNL     1       5.313   4.651  15.785  0.00  0.00    +0.000 N 
ATOM     16  H   UNL     1       5.099   5.518  15.307  0.00  0.00    +0.000 HD
BRANCH  15  17
ATOM     17  C   UNL     1       6.734   4.436  15.990  0.00  0.00    +0.000 C 
BRANCH  17  18
ATOM     18  C   UNL     1       7.249   5.291  17.107  0.00  0.00    +0.000 A 
ATOM     19  C   UNL     1       7.437   6.652  17.245  0.00  0.00    +0.000 A 
ATOM     20  C   UNL     1       7.898   6.860  18.568  0.00  0.00    +0.000 A 
ATOM     21  C   UNL     1       7.955   5.618  19.154  0.00  0.00    +0.000 A 
ATOM     22  O   UNL     1       7.562   4.657  18.277  0.00  0.00    +0.000 OA
ENDBRANCH  17  18
ENDBRANCH  15  17
ENDBRANCH   4  15
TORSDOF 3
ENDMDL
MODEL 3
REMARK VINA RESULT:      -7.5      2.962      6.323
REMARK  Name = 
REMARK  4 active torsions:
REMARK  status: ('A' for Active; 'I' for Inactive)
REMARK    1  A    between atoms: C_1  and  C_2
REMARK    2  A    between atoms: C_4  and  N_5
REMARK    3  A    between atoms: N_5  and  C_6
REMARK    4  A    between atoms: C_6  and  C_7
REMARK                            x       y       z     vdW  Elec       q    Type
REMARK                         _______ _______ _______ _____ _____    ______ ____
ROOT
ATOM      1  C   UNL     1       4.712   6.958  15.409  0.00  0.00    +0.000 C 
ATOM      2  C   UNL     1       4.951   6.271  16.719  0.00  0.00    +0.000 A 
ATOM      3  C   UNL     1       4.036   6.423  17.778  0.00  0.00    +0.000 A 
ATOM      4  C   UNL     1       4.265   5.854  19.039  0.00  0.00    +0.000 A 
ATOM      5  N   UNL     1       5.345   5.092  19.321  0.00  0.00    +0.000 NA
ATOM      6  C   UNL     1       6.180   4.938  18.273  0.00  0.00    +0.000 A 
ATOM      7  N   UNL     1       7.339   4.211  18.274  0.00  0.00    +0.000 N 
ATOM      8  N   UNL     1       8.009   4.250  17.102  0.00  0.00    +0.000 NA
ATOM      9  C   UNL     1       7.253   5.026  16.335  0.00  0.00    +0.000 A 
ATOM     10  N   UNL     1       7.591   5.339  15.079  0.00  0.00    +0.000 N 
ATOM     11  C   UNL     1       6.074   5.476  17.002  0.00  0.00    +0.000 A 
ATOM     12  H   UNL     1       7.723   3.682  19.040  0.00  0.00    +0.000 HD
ATOM     13  H   UNL     1       8.431   4.937  14.683  0.00  0.00    +0.000 HD
ATOM     14  H   UNL     1       7.023   5.892  14.454  0.00  0.00    +0.000 HD
ENDROOT
BRANCH   4  15
ATOM     15  N   UNL     1       3.366   6.224  20.038  0.00  0.00    +0.000 N 
ATOM     16  H   UNL     1       3.558   7.132  20.445  0.00  0.00    +0.000 HD
BRANCH  15  17
ATOM     17  C   UNL     1       1.950   5.954  19.866  0.00  0.00    +0.000 C 
BRANCH  17  18
ATOM     18  C   UNL     1       1.658   4.496  20.047  0.00  0.00    +0.000 A 
ATOM     19  C   UNL     1       1.323   3.483  19.171  0.00  0.00    +0.000 A 
ATOM     20  C   UNL     1       1.234   2.299  19.942  0.00  0.00    +0.000 A 
ATOM     21  C   UNL     1       1.525   2.661  21.235  0.00  0.00    +0.000 A 
ATOM     22  O   UNL     1       1.785   3.992  21.312  0.00  0.00    +0.000 OA
ENDBRANCH  17  18
ENDBRANCH  15  17
ENDBRANCH   4  15
TORSDOF 3
ENDMDL
MODEL 4
REMARK VINA RESULT:      -7.5      1.492      1.609
REMARK  Name = 
REMARK  4 active torsions:
REMARK  status: ('A' for Active; 'I' for Inactive)
REMARK    1  A    between atoms: C_1  and  C_2
REMARK    2  A    between atoms: C_4  and  N_5
REMARK    3  A    between atoms: N_5  and  C_6
REMARK    4  A    between atoms: C_6  and  C_7
REMARK                            x       y       z     vdW  Elec       q    Type
REMARK                         _______ _______ _______ _____ _____    ______ ____
ROOT
ATOM      1  C   UNL     1       1.420   4.575  17.459  0.00  0.00    +0.000 C 
ATOM      2  C   UNL     1       2.641   4.143  18.211  0.00  0.00    +0.000 A 
ATOM      3  C   UNL     1       3.923   4.364  17.672  0.00  0.00    +0.000 A 
ATOM      4  C   UNL     1       5.082   3.909  18.315  0.00  0.00    +0.000 A 
ATOM      5  N   UNL     1       5.066   3.269  19.504  0.00  0.00    +0.000 NA
ATOM      6  C   UNL     1       3.825   3.108  20.008  0.00  0.00    +0.000 A 
ATOM      7  N   UNL     1       3.516   2.506  21.198  0.00  0.00    +0.000 N 
ATOM      8  N   UNL     1       2.191   2.443  21.450  0.00  0.00    +0.000 NA
ATOM      9  C   UNL     1       1.643   3.021  20.388  0.00  0.00    +0.000 A 
ATOM     10  N   UNL     1       0.318   3.136  20.239  0.00  0.00    +0.000 N 
ATOM     11  C   UNL     1       2.614   3.483  19.451  0.00  0.00    +0.000 A 
ATOM     12  H   UNL     1       4.161   2.117  21.866  0.00  0.00    +0.000 HD
ATOM     13  H   UNL     1      -0.289   2.809  20.981  0.00  0.00    +0.000 HD
ATOM     14  H   UNL     1      -0.134   3.603  19.467  0.00  0.00    +0.000 HD
ENDROOT
BRANCH   4  15
ATOM     15  N   UNL     1       6.265   4.046  17.590  0.00  0.00    +0.000 N 
ATOM     16  H   UNL     1       6.594   3.181  17.178  0.00  0.00    +0.000 HD
BRANCH  15  17
ATOM     17  C   UNL     1       6.453   5.204  16.734  0.00  0.00    +0.000 C 
BRANCH  17  18
ATOM     18  C   UNL     1       6.606   4.791  15.302  0.00  0.00    +0.000 A 
ATOM     19  C   UNL     1       5.914   3.912  14.493  0.00  0.00    +0.000 A 
ATOM     20  C   UNL     1       6.502   4.003  13.208  0.00  0.00    +0.000 A 
ATOM     21  C   UNL     1       7.509   4.933  13.311  0.00  0.00    +0.000 A 
ATOM     22  O   UNL     1       7.580   5.421  14.578  0.00  0.00    +0.000 OA
ENDBRANCH  17  18
ENDBRANCH  15  17
ENDBRANCH   4  15
TORSDOF 3
ENDMDL
MODEL 5
REMARK VINA RESULT:      -7.4      1.405      1.965
REMARK  Name = 
REMARK  4 active torsions:
REMARK  status: ('A' for Active; 'I' for Inactive)
REMARK    1  A    between atoms: C_1  and  C_2
REMARK    2  A    between atoms: C_4  and  N_5
REMARK    3  A    between atoms: N_5  and  C_6
REMARK    4  A    between atoms: C_6  and  C_7
REMARK                            x       y       z     vdW  Elec       q    Type
REMARK                         _______ _______ _______ _____ _____    ______ ____
ROOT
ATOM      1  C   UNL     1       2.718   6.816  18.709  0.00  0.00    +0.000 C 
ATOM      2  C   UNL     1       3.536   5.599  19.018  0.00  0.00    +0.000 A 
ATOM      3  C   UNL     1       4.855   5.489  18.538  0.00  0.00    +0.000 A 
ATOM      4  C   UNL     1       5.623   4.335  18.747  0.00  0.00    +0.000 A 
ATOM      5  N   UNL     1       5.180   3.269  19.450  0.00  0.00    +0.000 NA
ATOM      6  C   UNL     1       3.927   3.425  19.925  0.00  0.00    +0.000 A 
ATOM      7  N   UNL     1       3.237   2.512  20.676  0.00  0.00    +0.000 N 
ATOM      8  N   UNL     1       1.984   2.902  20.992  0.00  0.00    +0.000 NA
ATOM      9  C   UNL     1       1.874   4.097  20.424  0.00  0.00    +0.000 A 
ATOM     10  N   UNL     1       0.750   4.819  20.486  0.00  0.00    +0.000 N 
ATOM     11  C   UNL     1       3.069   4.498  19.755  0.00  0.00    +0.000 A 
ATOM     12  H   UNL     1       3.565   1.614  20.991  0.00  0.00    +0.000 HD
ATOM     13  H   UNL     1      -0.033   4.463  21.020  0.00  0.00    +0.000 HD
ATOM     14  H   UNL     1       0.643   5.747  20.101  0.00  0.00    +0.000 HD
ENDROOT
BRANCH   4  15
ATOM     15  N   UNL     1       6.843   4.295  18.075  0.00  0.00    +0.000 N 
ATOM     16  H   UNL     1       7.124   3.363  17.793  0.00  0.00    +0.000 HD
BRANCH  15  17
ATOM     17  C   UNL     1       7.157   5.318  17.094  0.00  0.00    +0.000 C 
BRANCH  17  18
ATOM     18  C   UNL     1       6.900   4.822  15.704  0.00  0.00    +0.000 A 
ATOM     19  C   UNL     1       6.008   3.910  15.176  0.00  0.00    +0.000 A 
ATOM     20  C   UNL     1       6.209   3.918  13.774  0.00  0.00    +0.000 A 
ATOM     21  C   UNL     1       7.204   4.836  13.535  0.00  0.00    +0.000 A 
ATOM     22  O   UNL     1       7.630   5.392  14.699  0.00  0.00    +0.000 OA
ENDBRANCH  17  18
ENDBRANCH  15  17
ENDBRANCH   4  15
TORSDOF 3
ENDMDL
MODEL 6
REMARK VINA RESULT:      -7.4      2.209      3.503
REMARK  Name = 
REMARK  4 active torsions:
REMARK  status: ('A' for Active; 'I' for Inactive)
REMARK    1  A    between atoms: C_1  and  C_2
REMARK    2  A    between atoms: C_4  and  N_5
REMARK    3  A    between atoms: N_5  and  C_6
REMARK    4  A    between atoms: C_6  and  C_7
REMARK                            x       y       z     vdW  Elec       q    Type
REMARK                         _______ _______ _______ _____ _____    ______ ____
ROOT
ATOM      1  C   UNL     1       2.064   6.077  20.261  0.00  0.00    +0.000 C 
ATOM      2  C   UNL     1       2.629   5.225  19.166  0.00  0.00    +0.000 A 
ATOM      3  C   UNL     1       3.564   5.761  18.259  0.00  0.00    +0.000 A 
ATOM      4  C   UNL     1       4.058   5.014  17.180  0.00  0.00    +0.000 A 
ATOM      5  N   UNL     1       3.714   3.728  16.952  0.00  0.00    +0.000 NA
ATOM      6  C   UNL     1       2.847   3.237  17.861  0.00  0.00    +0.000 A 
ATOM      7  N   UNL     1       2.341   1.965  17.879  0.00  0.00    +0.000 N 
ATOM      8  N   UNL     1       1.461   1.742  18.878  0.00  0.00    +0.000 NA
ATOM      9  C   UNL     1       1.406   2.906  19.513  0.00  0.00    +0.000 A 
ATOM     10  N   UNL     1       0.610   3.109  20.569  0.00  0.00    +0.000 N 
ATOM     11  C   UNL     1       2.270   3.886  18.939  0.00  0.00    +0.000 A 
ATOM     12  H   UNL     1       2.552   1.220  17.235  0.00  0.00    +0.000 HD
ATOM     13  H   UNL     1       0.061   2.336  20.926  0.00  0.00    +0.000 HD
ATOM     14  H   UNL     1       0.571   3.966  21.101  0.00  0.00    +0.000 HD
ENDROOT
BRANCH   4  15
ATOM     15  N   UNL     1       4.842   5.720  16.269  0.00  0.00    +0.000 N 
ATOM     16  H   UNL     1       4.609   6.704  16.206  0.00  0.00    +0.000 HD
BRANCH  15  17
ATOM     17  C   UNL     1       6.268   5.457  16.192  0.00  0.00    +0.000 C 
BRANCH  17  18
ATOM     18  C   UNL     1       7.026   6.332  17.141  0.00  0.00    +0.000 A 
ATOM     19  C   UNL     1       7.636   6.101  18.358  0.00  0.00    +0.000 A 
ATOM     20  C   UNL     1       8.247   7.320  18.738  0.00  0.00    +0.000 A 
ATOM     21  C   UNL     1       7.978   8.215  17.730  0.00  0.00    +0.000 A 
ATOM     22  O   UNL     1       7.238   7.626  16.754  0.00  0.00    +0.000 OA
ENDBRANCH  17  18
ENDBRANCH  15  17
ENDBRANCH   4  15
TORSDOF 3
ENDMDL
MODEL 7
REMARK VINA RESULT:      -7.4      3.264      6.133
REMARK  Name = 
REMARK  4 active torsions:
REMARK  status: ('A' for Active; 'I' for Inactive)
REMARK    1  A    between atoms: C_1  and  C_2
REMARK    2  A    between atoms: C_4  and  N_5
REMARK    3  A    between atoms: N_5  and  C_6
REMARK    4  A    between atoms: C_6  and  C_7
REMARK                            x       y       z     vdW  Elec       q    Type
REMARK                         _______ _______ _______ _____ _____    ______ ____
ROOT
ATOM      1  C   UNL     1       5.143   6.683  15.397  0.00  0.00    +0.000 C 
ATOM      2  C   UNL     1       5.435   5.709  16.497  0.00  0.00    +0.000 A 
ATOM      3  C   UNL     1       4.695   4.515  16.603  0.00  0.00    +0.000 A 
ATOM      4  C   UNL     1       4.893   3.616  17.661  0.00  0.00    +0.000 A 
ATOM      5  N   UNL     1       5.822   3.801  18.624  0.00  0.00    +0.000 NA
ATOM      6  C   UNL     1       6.536   4.935  18.469  0.00  0.00    +0.000 A 
ATOM      7  N   UNL     1       7.544   5.364  19.289  0.00  0.00    +0.000 N 
ATOM      8  N   UNL     1       8.071   6.554  18.930  0.00  0.00    +0.000 NA
ATOM      9  C   UNL     1       7.375   6.891  17.850  0.00  0.00    +0.000 A 
ATOM     10  N   UNL     1       7.580   8.040  17.196  0.00  0.00    +0.000 N 
ATOM     11  C   UNL     1       6.407   5.906  17.492  0.00  0.00    +0.000 A 
ATOM     12  H   UNL     1       7.904   4.895  20.104  0.00  0.00    +0.000 HD
ATOM     13  H   UNL     1       8.319   8.657  17.508  0.00  0.00    +0.000 HD
ATOM     14  H   UNL     1       7.099   8.312  16.351  0.00  0.00    +0.000 HD
ENDROOT
BRANCH   4  15
ATOM     15  N   UNL     1       3.981   2.565  17.735  0.00  0.00    +0.000 N 
ATOM     16  H   UNL     1       4.294   1.791  18.309  0.00  0.00    +0.000 HD
BRANCH  15  17
ATOM     17  C   UNL     1       2.564   2.852  17.873  0.00  0.00    +0.000 C 
BRANCH  17  18
ATOM     18  C   UNL     1       2.224   3.201  19.289  0.00  0.00    +0.000 A 
ATOM     19  C   UNL     1       2.267   4.379  20.009  0.00  0.00    +0.000 A 
ATOM     20  C   UNL     1       1.758   4.081  21.296  0.00  0.00    +0.000 A 
ATOM     21  C   UNL     1       1.432   2.746  21.280  0.00  0.00    +0.000 A 
ATOM     22  O   UNL     1       1.709   2.201  20.066  0.00  0.00    +0.000 OA
ENDBRANCH  17  18
ENDBRANCH  15  17
ENDBRANCH   4  15
TORSDOF 3
ENDMDL
MODEL 8
REMARK VINA RESULT:      -7.4      2.092      2.962
REMARK  Name = 
REMARK  4 active torsions:
REMARK  status: ('A' for Active; 'I' for Inactive)
REMARK    1  A    between atoms: C_1  and  C_2
REMARK    2  A    between atoms: C_4  and  N_5
REMARK    3  A    between atoms: N_5  and  C_6
REMARK    4  A    between atoms: C_6  and  C_7
REMARK                            x       y       z     vdW  Elec       q    Type
REMARK                         _______ _______ _______ _____ _____    ______ ____
ROOT
ATOM      1  C   UNL     1       1.222   4.369  17.451  0.00  0.00    +0.000 C 
ATOM      2  C   UNL     1       2.536   3.999  18.071  0.00  0.00    +0.000 A 
ATOM      3  C   UNL     1       3.735   4.184  17.356  0.00  0.00    +0.000 A 
ATOM      4  C   UNL     1       4.973   3.782  17.877  0.00  0.00    +0.000 A 
ATOM      5  N   UNL     1       5.117   3.233  19.103  0.00  0.00    +0.000 NA
ATOM      6  C   UNL     1       3.953   3.107  19.773  0.00  0.00    +0.000 A 
ATOM      7  N   UNL     1       3.806   2.595  21.034  0.00  0.00    +0.000 N 
ATOM      8  N   UNL     1       2.525   2.546  21.457  0.00  0.00    +0.000 NA
ATOM      9  C   UNL     1       1.838   3.041  20.435  0.00  0.00    +0.000 A 
ATOM     10  N   UNL     1       0.504   3.140  20.449  0.00  0.00    +0.000 N 
ATOM     11  C   UNL     1       2.676   3.434  19.349  0.00  0.00    +0.000 A 
ATOM     12  H   UNL     1       4.536   2.259  21.640  0.00  0.00    +0.000 HD
ATOM     13  H   UNL     1       0.001   2.868  21.285  0.00  0.00    +0.000 HD
ATOM     14  H   UNL     1      -0.049   3.546  19.708  0.00  0.00    +0.000 HD
ENDROOT
BRANCH   4  15
ATOM     15  N   UNL     1       6.051   3.868  16.998  0.00  0.00    +0.000 N 
ATOM     16  H   UNL     1       6.179   3.042  16.425  0.00  0.00    +0.000 HD
BRANCH  15  17
ATOM     17  C   UNL     1       6.303   5.109  16.288  0.00  0.00    +0.000 C 
BRANCH  17  18
ATOM     18  C   UNL     1       7.026   6.088  17.161  0.00  0.00    +0.000 A 
ATOM     19  C   UNL     1       7.695   5.968  18.363  0.00  0.00    +0.000 A 
ATOM     20  C   UNL     1       8.225   7.248  18.656  0.00  0.00    +0.000 A 
ATOM     21  C   UNL     1       7.854   8.064  17.615  0.00  0.00    +0.000 A 
ATOM     22  O   UNL     1       7.126   7.371  16.700  0.00  0.00    +0.000 OA
ENDBRANCH  17  18
ENDBRANCH  15  17
ENDBRANCH   4  15
TORSDOF 3
ENDMDL
MODEL 9
REMARK VINA RESULT:      -7.2      1.681      2.486
REMARK  Name = 
REMARK  4 active torsions:
REMARK  status: ('A' for Active; 'I' for Inactive)
REMARK    1  A    between atoms: C_1  and  C_2
REMARK    2  A    between atoms: C_4  and  N_5
REMARK    3  A    between atoms: N_5  and  C_6
REMARK    4  A    between atoms: C_6  and  C_7
REMARK                            x       y       z     vdW  Elec       q    Type
REMARK                         _______ _______ _______ _____ _____    ______ ____
ROOT
ATOM      1  C   UNL     1       2.078   6.242  20.147  0.00  0.00    +0.000 C 
ATOM      2  C   UNL     1       3.097   5.203  19.791  0.00  0.00    +0.000 A 
ATOM      3  C   UNL     1       4.449   5.562  19.622  0.00  0.00    +0.000 A 
ATOM      4  C   UNL     1       5.415   4.629  19.219  0.00  0.00    +0.000 A 
ATOM      5  N   UNL     1       5.139   3.324  19.004  0.00  0.00    +0.000 NA
ATOM      6  C   UNL     1       3.843   3.010  19.212  0.00  0.00    +0.000 A 
ATOM      7  N   UNL     1       3.291   1.765  19.079  0.00  0.00    +0.000 N 
ATOM      8  N   UNL     1       1.961   1.730  19.311  0.00  0.00    +0.000 NA
ATOM      9  C   UNL     1       1.660   2.991  19.597  0.00  0.00    +0.000 A 
ATOM     10  N   UNL     1       0.411   3.386  19.867  0.00  0.00    +0.000 N 
ATOM     11  C   UNL     1       2.802   3.846  19.575  0.00  0.00    +0.000 A 
ATOM     12  H   UNL     1       3.767   0.914  18.827  0.00  0.00    +0.000 HD
ATOM     13  H   UNL     1      -0.327   2.693  19.896  0.00  0.00    +0.000 HD
ATOM     14  H   UNL     1       0.151   4.326  20.128  0.00  0.00    +0.000 HD
ENDROOT
BRANCH   4  15
ATOM     15  N   UNL     1       6.673   5.154  18.928  0.00  0.00    +0.000 N 
ATOM     16  H   UNL     1       7.413   4.463  18.924  0.00  0.00    +0.000 HD
BRANCH  15  17
ATOM     17  C   UNL     1       6.809   6.156  17.885  0.00  0.00    +0.000 C 
BRANCH  17  18
ATOM     18  C   UNL     1       6.470   5.582  16.544  0.00  0.00    +0.000 A 
ATOM     19  C   UNL     1       5.361   5.679  15.728  0.00  0.00    +0.000 A 
ATOM     20  C   UNL     1       5.667   4.956  14.549  0.00  0.00    +0.000 A 
ATOM     21  C   UNL     1       6.941   4.469  14.717  0.00  0.00    +0.000 A 
ATOM     22  O   UNL     1       7.440   4.844  15.924  0.00  0.00    +0.000 OA
ENDBRANCH  17  18
ENDBRANCH  15  17
ENDBRANCH   4  15
TORSDOF 3
ENDMDL
