MODEL 1
REMARK VINA RESULT:      -7.2      0.000      0.000
REMARK  Name = 
REMARK  8 active torsions:
REMARK  status: ('A' for Active; 'I' for Inactive)
REMARK    1  A    between atoms: C_2  and  C_3
REMARK    2  A    between atoms: C_3  and  C_4
REMARK    3  A    between atoms: C_4  and  C_5
REMARK    4  A    between atoms: C_4  and  N_15
REMARK    5  A    between atoms: C_5  and  C_6
REMARK    6  A    between atoms: N_15  and  S_16
REMARK    7  A    between atoms: S_16  and  C_19
REMARK    8  A    between atoms: C_22  and  C_23
REMARK                            x       y       z     vdW  Elec       q    Type
REMARK                         _______ _______ _______ _____ _____    ______ ____
ROOT
ATOM      1  C   UNL     1       5.389   3.808  16.720  0.00  0.00    +0.000 C 
ENDROOT
BRANCH   1   2
ATOM      2  N   UNL     1       6.361   3.933  17.852  0.00  0.00    +0.000 NA
ATOM      3  H   UNL     1       7.255   3.455  17.727  0.00  0.00    +0.000 HD
BRANCH   2   4
ATOM      4  S   UNL     1       6.623   5.430  18.586  0.00  0.00    +0.000 S 
ATOM      5  O   UNL     1       6.770   5.145  19.999  0.00  0.00    +0.000 OA
ATOM      6  O   UNL     1       7.658   6.115  17.845  0.00  0.00    +0.000 OA
BRANCH   4   7
ATOM      7  C   UNL     1       5.092   6.304  18.400  0.00  0.00    +0.000 A 
ATOM      8  C   UNL     1       4.878   7.094  17.265  0.00  0.00    +0.000 A 
ATOM      9  C   UNL     1       3.666   7.778  17.113  0.00  0.00    +0.000 A 
ATOM     10  C   UNL     1       2.662   7.663  18.085  0.00  0.00    +0.000 A 
ATOM     11  C   UNL     1       1.350   8.373  17.940  0.00  0.00    +0.000 C 
ATOM     12  C   UNL     1       2.895   6.851  19.200  0.00  0.00    +0.000 A 
ATOM     13  F   UNL     1       1.941   6.717  20.134  0.00  0.00    +0.000 F 
ATOM     14  C   UNL     1       4.095   6.165  19.365  0.00  0.00    +0.000 A 
ENDBRANCH   4   7
ENDBRANCH   2   4
ENDBRANCH   1   2
BRANCH   1  15
ATOM     15  C   UNL     1       6.194   3.657  15.395  0.00  0.00    +0.000 C 
BRANCH  15  17
ATOM     16  C   UNL     1       5.442   3.720  12.994  0.00  0.00    +0.000 C 
ATOM     17  C   UNL     1       5.593   4.319  14.181  0.00  0.00    +0.000 C 
ENDBRANCH  15  17
ENDBRANCH   1  15
BRANCH   1  18
ATOM     18  C   UNL     1       4.347   2.694  16.954  0.00  0.00    +0.000 C 
BRANCH  18  19
ATOM     19  C   UNL     1       3.066   3.077  17.644  0.00  0.00    +0.000 A 
ATOM     20  C   UNL     1       1.922   3.636  17.103  0.00  0.00    +0.000 A 
ATOM     21  N   UNL     1       1.046   3.914  18.112  0.00  0.00    +0.000 N 
ATOM     22  C   UNL     1       1.572   3.519  19.314  0.00  0.00    +0.000 A 
ATOM     23  C   UNL     1       1.050   3.650  20.604  0.00  0.00    +0.000 A 
ATOM     24  C   UNL     1       1.799   3.121  21.658  0.00  0.00    +0.000 A 
ATOM     25  C   UNL     1       3.000   2.460  21.421  0.00  0.00    +0.000 A 
ATOM     26  C   UNL     1       3.515   2.351  20.123  0.00  0.00    +0.000 A 
ATOM     27  C   UNL     1       2.803   2.921  19.048  0.00  0.00    +0.000 A 
ATOM     28  H   UNL     1       0.145   4.353  17.995  0.00  0.00    +0.000 HD
ENDBRANCH  18  19
ENDBRANCH   1  18
TORSDOF 7
ENDMDL
MODEL 2
REMARK VINA RESULT:      -7.0      2.784      5.530
REMARK  Name = 
REMARK  8 active torsions:
REMARK  status: ('A' for Active; 'I' for Inactive)
REMARK    1  A    between atoms: C_2  and  C_3
REMARK    2  A    between atoms: C_3  and  C_4
REMARK    3  A    between atoms: C_4  and  C_5
REMARK    4  A    between atoms: C_4  and  N_15
REMARK    5  A    between atoms: C_5  and  C_6
REMARK    6  A    between atoms: N_15  and  S_16
REMARK    7  A    between atoms: S_16  and  C_19
REMARK    8  A    between atoms: C_22  and  C_23
REMARK                            x       y       z     vdW  Elec       q    Type
REMARK                         _______ _______ _______ _____ _____    ______ ____
ROOT
ATOM      1  C   UNL     1       3.806   5.334  18.228  0.00  0.00    +0.000 C 
ENDROOT
BRANCH   1   2
ATOM      2  N   UNL     1       5.118   4.687  18.546  0.00  0.00    +0.000 NA
ATOM      3  H   UNL     1       5.126   3.665  18.534  0.00  0.00    +0.000 HD
BRANCH   2   4
ATOM      4  S   UNL     1       6.543   5.267  17.854  0.00  0.00    +0.000 S 
ATOM      5  O   UNL     1       6.408   6.710  17.848  0.00  0.00    +0.000 OA
ATOM      6  O   UNL     1       7.654   4.618  18.511  0.00  0.00    +0.000 OA
BRANCH   4   7
ATOM      7  C   UNL     1       6.475   4.743  16.161  0.00  0.00    +0.000 A 
ATOM      8  C   UNL     1       5.533   3.784  15.770  0.00  0.00    +0.000 A 
ATOM      9  C   UNL     1       5.473   3.375  14.433  0.00  0.00    +0.000 A 
ATOM     10  C   UNL     1       6.341   3.931  13.483  0.00  0.00    +0.000 A 
ATOM     11  C   UNL     1       6.288   3.522  12.042  0.00  0.00    +0.000 C 
ATOM     12  C   UNL     1       7.260   4.902  13.897  0.00  0.00    +0.000 A 
ATOM     13  F   UNL     1       8.088   5.457  13.001  0.00  0.00    +0.000 F 
ATOM     14  C   UNL     1       7.331   5.319  15.224  0.00  0.00    +0.000 A 
ENDBRANCH   4   7
ENDBRANCH   2   4
ENDBRANCH   1   2
BRANCH   1  15
ATOM     15  C   UNL     1       2.806   4.225  17.786  0.00  0.00    +0.000 C 
BRANCH  15  17
ATOM     16  C   UNL     1       3.163   1.752  18.087  0.00  0.00    +0.000 C 
ATOM     17  C   UNL     1       2.841   2.950  18.589  0.00  0.00    +0.000 C 
ENDBRANCH  15  17
ENDBRANCH   1  15
BRANCH   1  18
ATOM     18  C   UNL     1       3.291   6.225  19.377  0.00  0.00    +0.000 C 
BRANCH  18  19
ATOM     19  C   UNL     1       2.521   7.463  19.004  0.00  0.00    +0.000 A 
ATOM     20  C   UNL     1       2.513   8.151  17.804  0.00  0.00    +0.000 A 
ATOM     21  N   UNL     1       1.752   9.277  17.944  0.00  0.00    +0.000 N 
ATOM     22  C   UNL     1       1.225   9.334  19.208  0.00  0.00    +0.000 A 
ATOM     23  C   UNL     1       0.433  10.320  19.802  0.00  0.00    +0.000 A 
ATOM     24  C   UNL     1       0.006  10.099  21.113  0.00  0.00    +0.000 A 
ATOM     25  C   UNL     1       0.332   8.924  21.784  0.00  0.00    +0.000 A 
ATOM     26  C   UNL     1       1.139   7.953  21.178  0.00  0.00    +0.000 A 
ATOM     27  C   UNL     1       1.624   8.174  19.873  0.00  0.00    +0.000 A 
ATOM     28  H   UNL     1       1.603   9.971  17.228  0.00  0.00    +0.000 HD
ENDBRANCH  18  19
ENDBRANCH   1  18
TORSDOF 7
ENDMDL
MODEL 3
REMARK VINA RESULT:      -6.9      3.203      6.092
REMARK  Name = 
REMARK  8 active torsions:
REMARK  status: ('A' for Active; 'I' for Inactive)
REMARK    1  A    between atoms: C_2  and  C_3
REMARK    2  A    between atoms: C_3  and  C_4
REMARK    3  A    between atoms: C_4  and  C_5
REMARK    4  A    between atoms: C_4  and  N_15
REMARK    5  A    between atoms: C_5  and  C_6
REMARK    6  A    between atoms: N_15  and  S_16
REMARK    7  A    between atoms: S_16  and  C_19
REMARK    8  A    between atoms: C_22  and  C_23
REMARK                            x       y       z     vdW  Elec       q    Type
REMARK                         _______ _______ _______ _____ _____    ______ ____
ROOT
ATOM      1  C   UNL     1       2.435   5.364  19.309  0.00  0.00    +0.000 C 
ENDROOT
BRANCH   1   2
ATOM      2  N   UNL     1       3.460   4.293  19.097  0.00  0.00    +0.000 NA
ATOM      3  H   UNL     1       3.690   3.727  19.916  0.00  0.00    +0.000 HD
BRANCH   2   4
ATOM      4  S   UNL     1       3.388   3.304  17.732  0.00  0.00    +0.000 S 
ATOM      5  O   UNL     1       3.812   1.995  18.183  0.00  0.00    +0.000 OA
ATOM      6  O   UNL     1       2.101   3.504  17.105  0.00  0.00    +0.000 OA
BRANCH   4   7
ATOM      7  C   UNL     1       4.663   3.911  16.660  0.00  0.00    +0.000 A 
ATOM      8  C   UNL     1       5.750   4.608  17.201  0.00  0.00    +0.000 A 
ATOM      9  C   UNL     1       6.761   5.081  16.356  0.00  0.00    +0.000 A 
ATOM     10  C   UNL     1       6.696   4.848  14.976  0.00  0.00    +0.000 A 
ATOM     11  C   UNL     1       7.772   5.330  14.051  0.00  0.00    +0.000 C 
ATOM     12  C   UNL     1       5.608   4.133  14.464  0.00  0.00    +0.000 A 
ATOM     13  F   UNL     1       5.535   3.887  13.147  0.00  0.00    +0.000 F 
ATOM     14  C   UNL     1       4.595   3.656  15.291  0.00  0.00    +0.000 A 
ENDBRANCH   4   7
ENDBRANCH   2   4
ENDBRANCH   1   2
BRANCH   1  15
ATOM     15  C   UNL     1       1.589   4.993  20.563  0.00  0.00    +0.000 C 
BRANCH  15  17
ATOM     16  C   UNL     1       1.516   2.687  21.569  0.00  0.00    +0.000 C 
ATOM     17  C   UNL     1       1.119   3.563  20.638  0.00  0.00    +0.000 C 
ENDBRANCH  15  17
ENDBRANCH   1  15
BRANCH   1  18
ATOM     18  C   UNL     1       3.054   6.776  19.363  0.00  0.00    +0.000 C 
BRANCH  18  19
ATOM     19  C   UNL     1       2.170   7.936  18.992  0.00  0.00    +0.000 A 
ATOM     20  C   UNL     1       2.002   8.540  17.759  0.00  0.00    +0.000 A 
ATOM     21  N   UNL     1       1.183   9.623  17.904  0.00  0.00    +0.000 N 
ATOM     22  C   UNL     1       0.776   9.732  19.209  0.00  0.00    +0.000 A 
ATOM     23  C   UNL     1      -0.022  10.705  19.816  0.00  0.00    +0.000 A 
ATOM     24  C   UNL     1      -0.307  10.548  21.175  0.00  0.00    +0.000 A 
ATOM     25  C   UNL     1       0.160   9.443  21.881  0.00  0.00    +0.000 A 
ATOM     26  C   UNL     1       0.970   8.485  21.258  0.00  0.00    +0.000 A 
ATOM     27  C   UNL     1       1.313   8.647  19.900  0.00  0.00    +0.000 A 
ATOM     28  H   UNL     1       0.920  10.256  17.165  0.00  0.00    +0.000 HD
ENDBRANCH  18  19
ENDBRANCH   1  18
TORSDOF 7
ENDMDL
MODEL 4
REMARK VINA RESULT:      -6.9      2.302      5.127
REMARK  Name = 
REMARK  8 active torsions:
REMARK  status: ('A' for Active; 'I' for Inactive)
REMARK    1  A    between atoms: C_2  and  C_3
REMARK    2  A    between atoms: C_3  and  C_4
REMARK    3  A    between atoms: C_4  and  C_5
REMARK    4  A    between atoms: C_4  and  N_15
REMARK    5  A    between atoms: C_5  and  C_6
REMARK    6  A    between atoms: N_15  and  S_16
REMARK    7  A    between atoms: S_16  and  C_19
REMARK    8  A    between atoms: C_22  and  C_23
REMARK                            x       y       z     vdW  Elec       q    Type
REMARK                         _______ _______ _______ _____ _____    ______ ____
ROOT
ATOM      1  C   UNL     1       5.008   6.761  17.213  0.00  0.00    +0.000 C 
ENDROOT
BRANCH   1   2
ATOM      2  N   UNL     1       5.348   5.758  16.154  0.00  0.00    +0.000 NA
ATOM      3  H   UNL     1       5.984   6.080  15.423  0.00  0.00    +0.000 HD
BRANCH   2   4
ATOM      4  S   UNL     1       5.736   4.172  16.579  0.00  0.00    +0.000 S 
ATOM      5  O   UNL     1       5.504   3.386  15.384  0.00  0.00    +0.000 OA
ATOM      6  O   UNL     1       7.025   4.188  17.231  0.00  0.00    +0.000 OA
BRANCH   4   7
ATOM      7  C   UNL     1       4.492   3.696  17.750  0.00  0.00    +0.000 A 
ATOM      8  C   UNL     1       4.846   3.469  19.085  0.00  0.00    +0.000 A 
ATOM      9  C   UNL     1       3.864   3.101  20.011  0.00  0.00    +0.000 A 
ATOM     10  C   UNL     1       2.527   2.973  19.611  0.00  0.00    +0.000 A 
ATOM     11  C   UNL     1       1.453   2.595  20.586  0.00  0.00    +0.000 C 
ATOM     12  C   UNL     1       2.197   3.224  18.275  0.00  0.00    +0.000 A 
ATOM     13  F   UNL     1       0.920   3.122  17.876  0.00  0.00    +0.000 F 
ATOM     14  C   UNL     1       3.163   3.591  17.342  0.00  0.00    +0.000 A 
ENDBRANCH   4   7
ENDBRANCH   2   4
ENDBRANCH   1   2
BRANCH   1  15
ATOM     15  C   UNL     1       6.023   7.939  17.117  0.00  0.00    +0.000 C 
BRANCH  15  17
ATOM     16  C   UNL     1       8.282   8.591  18.014  0.00  0.00    +0.000 C 
ATOM     17  C   UNL     1       7.414   7.651  17.621  0.00  0.00    +0.000 C 
ENDBRANCH  15  17
ENDBRANCH   1  15
BRANCH   1  18
ATOM     18  C   UNL     1       3.529   7.199  17.163  0.00  0.00    +0.000 C 
BRANCH  18  19
ATOM     19  C   UNL     1       2.829   7.430  18.475  0.00  0.00    +0.000 A 
ATOM     20  C   UNL     1       2.823   6.636  19.607  0.00  0.00    +0.000 A 
ATOM     21  N   UNL     1       1.970   7.180  20.524  0.00  0.00    +0.000 N 
ATOM     22  C   UNL     1       1.432   8.342  20.035  0.00  0.00    +0.000 A 
ATOM     23  C   UNL     1       0.487   9.198  20.605  0.00  0.00    +0.000 A 
ATOM     24  C   UNL     1       0.139  10.344  19.887  0.00  0.00    +0.000 A 
ATOM     25  C   UNL     1       0.742  10.634  18.666  0.00  0.00    +0.000 A 
ATOM     26  C   UNL     1       1.678   9.756  18.103  0.00  0.00    +0.000 A 
ATOM     27  C   UNL     1       2.008   8.568  18.785  0.00  0.00    +0.000 A 
ATOM     28  H   UNL     1       1.758   6.784  21.427  0.00  0.00    +0.000 HD
ENDBRANCH  18  19
ENDBRANCH   1  18
TORSDOF 7
ENDMDL
MODEL 5
REMARK VINA RESULT:      -6.8      2.363      5.116
REMARK  Name = 
REMARK  8 active torsions:
REMARK  status: ('A' for Active; 'I' for Inactive)
REMARK    1  A    between atoms: C_2  and  C_3
REMARK    2  A    between atoms: C_3  and  C_4
REMARK    3  A    between atoms: C_4  and  C_5
REMARK    4  A    between atoms: C_4  and  N_15
REMARK    5  A    between atoms: C_5  and  C_6
REMARK    6  A    between atoms: N_15  and  S_16
REMARK    7  A    between atoms: S_16  and  C_19
REMARK    8  A    between atoms: C_22  and  C_23
REMARK                            x       y       z     vdW  Elec       q    Type
REMARK                         _______ _______ _______ _____ _____    ______ ____
ROOT
ATOM      1  C   UNL     1       4.948   6.799  17.219  0.00  0.00    +0.000 C 
ENDROOT
BRANCH   1   2
ATOM      2  N   UNL     1       5.246   5.926  16.039  0.00  0.00    +0.000 NA
ATOM      3  H   UNL     1       5.940   6.287  15.381  0.00  0.00    +0.000 HD
BRANCH   2   4
ATOM      4  S   UNL     1       5.476   4.267  16.244  0.00  0.00    +0.000 S 
ATOM      5  O   UNL     1       5.114   3.668  14.976  0.00  0.00    +0.000 OA
ATOM      6  O   UNL     1       6.785   4.067  16.825  0.00  0.00    +0.000 OA
BRANCH   4   7
ATOM      7  C   UNL     1       4.235   3.776  17.412  0.00  0.00    +0.000 A 
ATOM      8  C   UNL     1       2.887   3.782  17.035  0.00  0.00    +0.000 A 
ATOM      9  C   UNL     1       1.908   3.387  17.953  0.00  0.00    +0.000 A 
ATOM     10  C   UNL     1       2.272   2.972  19.241  0.00  0.00    +0.000 A 
ATOM     11  C   UNL     1       1.245   2.530  20.239  0.00  0.00    +0.000 C 
ATOM     12  C   UNL     1       3.628   2.957  19.586  0.00  0.00    +0.000 A 
ATOM     13  F   UNL     1       3.998   2.549  20.809  0.00  0.00    +0.000 F 
ATOM     14  C   UNL     1       4.614   3.347  18.684  0.00  0.00    +0.000 A 
ENDBRANCH   4   7
ENDBRANCH   2   4
ENDBRANCH   1   2
BRANCH   1  15
ATOM     15  C   UNL     1       6.071   7.872  17.332  0.00  0.00    +0.000 C 
BRANCH  15  17
ATOM     16  C   UNL     1       8.192   7.293  18.556  0.00  0.00    +0.000 C 
ATOM     17  C   UNL     1       7.479   7.343  17.424  0.00  0.00    +0.000 C 
ENDBRANCH  15  17
ENDBRANCH   1  15
BRANCH   1  18
ATOM     18  C   UNL     1       3.520   7.382  17.179  0.00  0.00    +0.000 C 
BRANCH  18  19
ATOM     19  C   UNL     1       2.798   7.539  18.490  0.00  0.00    +0.000 A 
ATOM     20  C   UNL     1       2.794   6.694  19.585  0.00  0.00    +0.000 A 
ATOM     21  N   UNL     1       1.917   7.177  20.514  0.00  0.00    +0.000 N 
ATOM     22  C   UNL     1       1.361   8.349  20.070  0.00  0.00    +0.000 A 
ATOM     23  C   UNL     1       0.390   9.158  20.666  0.00  0.00    +0.000 A 
ATOM     24  C   UNL     1       0.028  10.328  19.995  0.00  0.00    +0.000 A 
ATOM     25  C   UNL     1       0.641  10.686  18.797  0.00  0.00    +0.000 A 
ATOM     26  C   UNL     1       1.602   9.855  18.208  0.00  0.00    +0.000 A 
ATOM     27  C   UNL     1       1.949   8.644  18.840  0.00  0.00    +0.000 A 
ATOM     28  H   UNL     1       1.701   6.736  21.395  0.00  0.00    +0.000 HD
ENDBRANCH  18  19
ENDBRANCH   1  18
TORSDOF 7
ENDMDL
MODEL 6
REMARK VINA RESULT:      -6.8      2.271      5.357
REMARK  Name = 
REMARK  8 active torsions:
REMARK  status: ('A' for Active; 'I' for Inactive)
REMARK    1  A    between atoms: C_2  and  C_3
REMARK    2  A    between atoms: C_3  and  C_4
REMARK    3  A    between atoms: C_4  and  C_5
REMARK    4  A    between atoms: C_4  and  N_15
REMARK    5  A    between atoms: C_5  and  C_6
REMARK    6  A    between atoms: N_15  and  S_16
REMARK    7  A    between atoms: S_16  and  C_19
REMARK    8  A    between atoms: C_22  and  C_23
REMARK                            x       y       z     vdW  Elec       q    Type
REMARK                         _______ _______ _______ _____ _____    ______ ____
ROOT
ATOM      1  C   UNL     1       2.275   4.137  18.806  0.00  0.00    +0.000 C 
ENDROOT
BRANCH   1   2
ATOM      2  N   UNL     1       1.894   5.513  18.355  0.00  0.00    +0.000 NA
ATOM      3  H   UNL     1       0.929   5.792  18.541  0.00  0.00    +0.000 HD
BRANCH   2   4
ATOM      4  S   UNL     1       2.922   6.819  18.647  0.00  0.00    +0.000 S 
ATOM      5  O   UNL     1       3.796   6.388  19.719  0.00  0.00    +0.000 OA
ATOM      6  O   UNL     1       3.450   7.262  17.377  0.00  0.00    +0.000 OA
BRANCH   4   7
ATOM      7  C   UNL     1       1.875   8.082  19.320  0.00  0.00    +0.000 A 
ATOM      8  C   UNL     1       1.485   9.160  18.517  0.00  0.00    +0.000 A 
ATOM      9  C   UNL     1       0.653  10.153  19.045  0.00  0.00    +0.000 A 
ATOM     10  C   UNL     1       0.197  10.066  20.368  0.00  0.00    +0.000 A 
ATOM     11  C   UNL     1      -0.707  11.108  20.954  0.00  0.00    +0.000 C 
ATOM     12  C   UNL     1       0.587   8.967  21.143  0.00  0.00    +0.000 A 
ATOM     13  F   UNL     1       0.150   8.858  22.406  0.00  0.00    +0.000 F 
ATOM     14  C   UNL     1       1.414   7.971  20.632  0.00  0.00    +0.000 A 
ENDBRANCH   4   7
ENDBRANCH   2   4
ENDBRANCH   1   2
BRANCH   1  15
ATOM     15  C   UNL     1       0.983   3.391  19.254  0.00  0.00    +0.000 C 
BRANCH  15  17
ATOM     16  C   UNL     1       1.943   3.096  21.561  0.00  0.00    +0.000 C 
ATOM     17  C   UNL     1       0.910   3.021  20.713  0.00  0.00    +0.000 C 
ENDBRANCH  15  17
ENDBRANCH   1  15
BRANCH   1  18
ATOM     18  C   UNL     1       3.107   3.377  17.752  0.00  0.00    +0.000 C 
BRANCH  18  19
ATOM     19  C   UNL     1       4.570   3.717  17.646  0.00  0.00    +0.000 A 
ATOM     20  C   UNL     1       5.508   3.834  18.654  0.00  0.00    +0.000 A 
ATOM     21  N   UNL     1       6.687   4.262  18.114  0.00  0.00    +0.000 N 
ATOM     22  C   UNL     1       6.559   4.400  16.756  0.00  0.00    +0.000 A 
ATOM     23  C   UNL     1       7.486   4.853  15.813  0.00  0.00    +0.000 A 
ATOM     24  C   UNL     1       7.090   4.861  14.474  0.00  0.00    +0.000 A 
ATOM     25  C   UNL     1       5.832   4.400  14.097  0.00  0.00    +0.000 A 
ATOM     26  C   UNL     1       4.911   3.964  15.057  0.00  0.00    +0.000 A 
ATOM     27  C   UNL     1       5.268   3.993  16.421  0.00  0.00    +0.000 A 
ATOM     28  H   UNL     1       7.529   4.456  18.634  0.00  0.00    +0.000 HD
ENDBRANCH  18  19
ENDBRANCH   1  18
TORSDOF 7
ENDMDL
MODEL 7
REMARK VINA RESULT:      -6.8      2.481      4.865
REMARK  Name = 
REMARK  8 active torsions:
REMARK  status: ('A' for Active; 'I' for Inactive)
REMARK    1  A    between atoms: C_2  and  C_3
REMARK    2  A    between atoms: C_3  and  C_4
REMARK    3  A    between atoms: C_4  and  C_5
REMARK    4  A    between atoms: C_4  and  N_15
REMARK    5  A    between atoms: C_5  and  C_6
REMARK    6  A    between atoms: N_15  and  S_16
REMARK    7  A    between atoms: S_16  and  C_19
REMARK    8  A    between atoms: C_22  and  C_23
REMARK                            x       y       z     vdW  Elec       q    Type
REMARK                         _______ _______ _______ _____ _____    ______ ____
ROOT
ATOM      1  C   UNL     1       3.435   3.626  17.951  0.00  0.00    +0.000 C 
ENDROOT
BRANCH   1   2
ATOM      2  N   UNL     1       2.675   4.898  18.173  0.00  0.00    +0.000 NA
ATOM      3  H   UNL     1       1.737   4.933  17.770  0.00  0.00    +0.000 HD
BRANCH   2   4
ATOM      4  S   UNL     1       2.660   5.625  19.696  0.00  0.00    +0.000 S 
ATOM      5  O   UNL     1       1.582   4.982  20.418  0.00  0.00    +0.000 OA
ATOM      6  O   UNL     1       4.013   5.622  20.204  0.00  0.00    +0.000 OA
BRANCH   4   7
ATOM      7  C   UNL     1       2.149   7.296  19.398  0.00  0.00    +0.000 A 
ATOM      8  C   UNL     1       2.383   7.881  18.148  0.00  0.00    +0.000 A 
ATOM      9  C   UNL     1       1.973   9.197  17.910  0.00  0.00    +0.000 A 
ATOM     10  C   UNL     1       1.317   9.926  18.911  0.00  0.00    +0.000 A 
ATOM     11  C   UNL     1       0.854  11.333  18.678  0.00  0.00    +0.000 C 
ATOM     12  C   UNL     1       1.078   9.311  20.145  0.00  0.00    +0.000 A 
ATOM     13  F   UNL     1       0.438   9.987  21.111  0.00  0.00    +0.000 F 
ATOM     14  C   UNL     1       1.480   8.003  20.397  0.00  0.00    +0.000 A 
ENDBRANCH   4   7
ENDBRANCH   2   4
ENDBRANCH   1   2
BRANCH   1  15
ATOM     15  C   UNL     1       2.423   2.515  17.541  0.00  0.00    +0.000 C 
BRANCH  15  17
ATOM     16  C   UNL     1       0.501   2.339  19.156  0.00  0.00    +0.000 C 
ATOM     17  C   UNL     1       1.658   1.874  18.670  0.00  0.00    +0.000 C 
ENDBRANCH  15  17
ENDBRANCH   1  15
BRANCH   1  18
ATOM     18  C   UNL     1       4.610   3.802  16.967  0.00  0.00    +0.000 C 
BRANCH  18  19
ATOM     19  C   UNL     1       5.200   5.180  16.830  0.00  0.00    +0.000 A 
ATOM     20  C   UNL     1       4.884   6.172  15.921  0.00  0.00    +0.000 A 
ATOM     21  N   UNL     1       5.743   7.221  16.094  0.00  0.00    +0.000 N 
ATOM     22  C   UNL     1       6.605   6.956  17.126  0.00  0.00    +0.000 A 
ATOM     23  C   UNL     1       7.668   7.718  17.619  0.00  0.00    +0.000 A 
ATOM     24  C   UNL     1       8.368   7.212  18.716  0.00  0.00    +0.000 A 
ATOM     25  C   UNL     1       7.992   6.012  19.314  0.00  0.00    +0.000 A 
ATOM     26  C   UNL     1       6.933   5.255  18.797  0.00  0.00    +0.000 A 
ATOM     27  C   UNL     1       6.242   5.720  17.659  0.00  0.00    +0.000 A 
ATOM     28  H   UNL     1       5.750   8.064  15.541  0.00  0.00    +0.000 HD
ENDBRANCH  18  19
ENDBRANCH   1  18
TORSDOF 7
ENDMDL
MODEL 8
REMARK VINA RESULT:      -6.8      2.606      5.649
REMARK  Name = 
REMARK  8 active torsions:
REMARK  status: ('A' for Active; 'I' for Inactive)
REMARK    1  A    between atoms: C_2  and  C_3
REMARK    2  A    between atoms: C_3  and  C_4
REMARK    3  A    between atoms: C_4  and  C_5
REMARK    4  A    between atoms: C_4  and  N_15
REMARK    5  A    between atoms: C_5  and  C_6
REMARK    6  A    between atoms: N_15  and  S_16
REMARK    7  A    between atoms: S_16  and  C_19
REMARK    8  A    between atoms: C_22  and  C_23
REMARK                            x       y       z     vdW  Elec       q    Type
REMARK                         _______ _______ _______ _____ _____    ______ ____
ROOT
ATOM      1  C   UNL     1       4.839   4.426  18.237  0.00  0.00    +0.000 C 
ENDROOT
BRANCH   1   2
ATOM      2  N   UNL     1       4.177   5.714  18.621  0.00  0.00    +0.000 NA
ATOM      3  H   UNL     1       4.372   6.513  18.016  0.00  0.00    +0.000 HD
BRANCH   2   4
ATOM      4  S   UNL     1       2.550   5.732  19.069  0.00  0.00    +0.000 S 
ATOM      5  O   UNL     1       1.842   5.100  17.975  0.00  0.00    +0.000 OA
ATOM      6  O   UNL     1       2.455   5.227  20.420  0.00  0.00    +0.000 OA
BRANCH   4   7
ATOM      7  C   UNL     1       2.092   7.445  19.050  0.00  0.00    +0.000 A 
ATOM      8  C   UNL     1       2.284   8.201  17.888  0.00  0.00    +0.000 A 
ATOM      9  C   UNL     1       1.915   9.551  17.870  0.00  0.00    +0.000 A 
ATOM     10  C   UNL     1       1.342  10.144  19.003  0.00  0.00    +0.000 A 
ATOM     11  C   UNL     1       0.924  11.583  19.005  0.00  0.00    +0.000 C 
ATOM     12  C   UNL     1       1.143   9.360  20.145  0.00  0.00    +0.000 A 
ATOM     13  F   UNL     1       0.582   9.905  21.234  0.00  0.00    +0.000 F 
ATOM     14  C   UNL     1       1.505   8.016  20.179  0.00  0.00    +0.000 A 
ENDBRANCH   4   7
ENDBRANCH   2   4
ENDBRANCH   1   2
BRANCH   1  15
ATOM     15  C   UNL     1       4.256   3.290  19.127  0.00  0.00    +0.000 C 
BRANCH  15  17
ATOM     16  C   UNL     1       2.349   1.752  18.550  0.00  0.00    +0.000 C 
ATOM     17  C   UNL     1       3.620   2.138  18.390  0.00  0.00    +0.000 C 
ENDBRANCH  15  17
ENDBRANCH   1  15
BRANCH   1  18
ATOM     18  C   UNL     1       4.757   4.145  16.722  0.00  0.00    +0.000 C 
BRANCH  18  19
ATOM     19  C   UNL     1       5.910   4.602  15.869  0.00  0.00    +0.000 A 
ATOM     20  C   UNL     1       6.964   5.431  16.205  0.00  0.00    +0.000 A 
ATOM     21  N   UNL     1       7.719   5.661  15.091  0.00  0.00    +0.000 N 
ATOM     22  C   UNL     1       7.204   4.972  14.024  0.00  0.00    +0.000 A 
ATOM     23  C   UNL     1       7.621   4.950  12.691  0.00  0.00    +0.000 A 
ATOM     24  C   UNL     1       6.920   4.122  11.811  0.00  0.00    +0.000 A 
ATOM     25  C   UNL     1       5.870   3.326  12.259  0.00  0.00    +0.000 A 
ATOM     26  C   UNL     1       5.457   3.373  13.597  0.00  0.00    +0.000 A 
ATOM     27  C   UNL     1       6.116   4.238  14.494  0.00  0.00    +0.000 A 
ATOM     28  H   UNL     1       8.533   6.256  15.053  0.00  0.00    +0.000 HD
ENDBRANCH  18  19
ENDBRANCH   1  18
TORSDOF 7
ENDMDL
MODEL 9
REMARK VINA RESULT:      -6.8      2.669      5.505
REMARK  Name = 
REMARK  8 active torsions:
REMARK  status: ('A' for Active; 'I' for Inactive)
REMARK    1  A    between atoms: C_2  and  C_3
REMARK    2  A    between atoms: C_3  and  C_4
REMARK    3  A    between atoms: C_4  and  C_5
REMARK    4  A    between atoms: C_4  and  N_15
REMARK    5  A    between atoms: C_5  and  C_6
REMARK    6  A    between atoms: N_15  and  S_16
REMARK    7  A    between atoms: S_16  and  C_19
REMARK    8  A    between atoms: C_22  and  C_23
REMARK                            x       y       z     vdW  Elec       q    Type
REMARK                         _______ _______ _______ _____ _____    ______ ____
ROOT
ATOM      1  C   UNL     1       1.864   4.673  18.623  0.00  0.00    +0.000 C 
ENDROOT
BRANCH   1   2
ATOM      2  N   UNL     1       2.706   4.303  17.441  0.00  0.00    +0.000 NA
ATOM      3  H   UNL     1       2.744   4.993  16.688  0.00  0.00    +0.000 HD
BRANCH   2   4
ATOM      4  S   UNL     1       4.236   3.629  17.664  0.00  0.00    +0.000 S 
ATOM      5  O   UNL     1       4.231   3.101  19.013  0.00  0.00    +0.000 OA
ATOM      6  O   UNL     1       4.521   2.785  16.526  0.00  0.00    +0.000 OA
BRANCH   4   7
ATOM      7  C   UNL     1       5.348   5.010  17.663  0.00  0.00    +0.000 A 
ATOM      8  C   UNL     1       5.057   6.134  16.881  0.00  0.00    +0.000 A 
ATOM      9  C   UNL     1       5.930   7.227  16.885  0.00  0.00    +0.000 A 
ATOM     10  C   UNL     1       7.085   7.208  17.679  0.00  0.00    +0.000 A 
ATOM     11  C   UNL     1       8.030   8.371  17.713  0.00  0.00    +0.000 C 
ATOM     12  C   UNL     1       7.343   6.080  18.466  0.00  0.00    +0.000 A 
ATOM     13  F   UNL     1       8.435   6.048  19.243  0.00  0.00    +0.000 F 
ATOM     14  C   UNL     1       6.484   4.984  18.472  0.00  0.00    +0.000 A 
ENDBRANCH   4   7
ENDBRANCH   2   4
ENDBRANCH   1   2
BRANCH   1  15
ATOM     15  C   UNL     1       1.224   3.375  19.196  0.00  0.00    +0.000 C 
BRANCH  15  17
ATOM     16  C   UNL     1       1.580   2.623  21.571  0.00  0.00    +0.000 C 
ATOM     17  C   UNL     1       0.937   3.381  20.676  0.00  0.00    +0.000 C 
ENDBRANCH  15  17
ENDBRANCH   1  15
BRANCH   1  18
ATOM     18  C   UNL     1       2.640   5.506  19.666  0.00  0.00    +0.000 C 
BRANCH  18  19
ATOM     19  C   UNL     1       2.007   6.787  20.139  0.00  0.00    +0.000 A 
ATOM     20  C   UNL     1       1.381   7.052  21.343  0.00  0.00    +0.000 A 
ATOM     21  N   UNL     1       0.862   8.315  21.303  0.00  0.00    +0.000 N 
ATOM     22  C   UNL     1       1.161   8.909  20.104  0.00  0.00    +0.000 A 
ATOM     23  C   UNL     1       0.797  10.165  19.615  0.00  0.00    +0.000 A 
ATOM     24  C   UNL     1       1.275  10.529  18.354  0.00  0.00    +0.000 A 
ATOM     25  C   UNL     1       2.112   9.680  17.634  0.00  0.00    +0.000 A 
ATOM     26  C   UNL     1       2.454   8.418  18.135  0.00  0.00    +0.000 A 
ATOM     27  C   UNL     1       1.943   8.007  19.383  0.00  0.00    +0.000 A 
ATOM     28  H   UNL     1       0.329   8.748  22.042  0.00  0.00    +0.000 HD
ENDBRANCH  18  19
ENDBRANCH   1  18
TORSDOF 7
ENDMDL
