MODEL 1
REMARK VINA RESULT:      -7.1      0.000      0.000
REMARK  Name = 
REMARK  4 active torsions:
REMARK  status: ('A' for Active; 'I' for Inactive)
REMARK    1  A    between atoms: C_2  and  C_4
REMARK    2  A    between atoms: C_7  and  O_8
REMARK    3  A    between atoms: O_8  and  C_9
REMARK    4  A    between atoms: C_9  and  C_10
REMARK                            x       y       z     vdW  Elec       q    Type
REMARK                         _______ _______ _______ _____ _____    ______ ____
ROOT
ATOM      1  C   UNL     1       6.070   5.127  15.880  0.00  0.00    +0.000 A 
ATOM      2  C   UNL     1       5.204   6.215  15.945  0.00  0.00    +0.000 A 
ATOM      3  C   UNL     1       4.494   6.456  17.121  0.00  0.00    +0.000 A 
ATOM      4  C   UNL     1       4.669   5.605  18.207  0.00  0.00    +0.000 A 
ATOM      5  N   UNL     1       5.510   4.547  18.163  0.00  0.00    +0.000 NA
ATOM      6  C   UNL     1       6.182   4.322  17.003  0.00  0.00    +0.000 A 
ENDROOT
BRANCH   1   8
ATOM      7  N   UNL     1       6.402   3.697  13.950  0.00  0.00    +0.000 N 
ATOM      8  C   UNL     1       6.820   4.792  14.654  0.00  0.00    +0.000 C 
ATOM      9  O   UNL     1       7.764   5.473  14.276  0.00  0.00    +0.000 OA
ATOM     10  H   UNL     1       6.875   3.513  13.075  0.00  0.00    +0.000 HD
ATOM     11  H   UNL     1       5.499   3.268  14.093  0.00  0.00    +0.000 HD
ENDBRANCH   1   8
BRANCH   4  12
ATOM     12  O   UNL     1       4.026   5.730  19.408  0.00  0.00    +0.000 OA
BRANCH  12  13
ATOM     13  C   UNL     1       2.655   6.121  19.361  0.00  0.00    +0.000 C 
BRANCH  13  14
ATOM     14  C   UNL     1       1.770   4.946  19.794  0.00  0.00    +0.000 C 
ATOM     15  C   UNL     1       2.338   4.237  21.032  0.00  0.00    +0.000 C 
ATOM     16  C   UNL     1       1.526   2.992  21.361  0.00  0.00    +0.000 C 
ATOM     17  O   UNL     1       1.467   2.114  20.236  0.00  0.00    +0.000 OA
ATOM     18  C   UNL     1       0.822   2.716  19.117  0.00  0.00    +0.000 C 
ATOM     19  C   UNL     1       1.598   3.941  18.647  0.00  0.00    +0.000 C 
ENDBRANCH  13  14
ENDBRANCH  12  13
ENDBRANCH   4  12
TORSDOF 4
ENDMDL
MODEL 2
REMARK VINA RESULT:      -7.0      1.055      1.571
REMARK  Name = 
REMARK  4 active torsions:
REMARK  status: ('A' for Active; 'I' for Inactive)
REMARK    1  A    between atoms: C_2  and  C_4
REMARK    2  A    between atoms: C_7  and  O_8
REMARK    3  A    between atoms: O_8  and  C_9
REMARK    4  A    between atoms: C_9  and  C_10
REMARK                            x       y       z     vdW  Elec       q    Type
REMARK                         _______ _______ _______ _____ _____    ______ ____
ROOT
ATOM      1  C   UNL     1       6.339   5.075  15.524  0.00  0.00    +0.000 A 
ATOM      2  C   UNL     1       5.304   5.989  15.704  0.00  0.00    +0.000 A 
ATOM      3  C   UNL     1       4.792   6.200  16.984  0.00  0.00    +0.000 A 
ATOM      4  C   UNL     1       5.327   5.492  18.055  0.00  0.00    +0.000 A 
ATOM      5  N   UNL     1       6.335   4.604  17.899  0.00  0.00    +0.000 NA
ATOM      6  C   UNL     1       6.811   4.404  16.641  0.00  0.00    +0.000 A 
ENDROOT
BRANCH   1   8
ATOM      7  N   UNL     1       7.951   5.543  13.774  0.00  0.00    +0.000 N 
ATOM      8  C   UNL     1       6.899   4.776  14.192  0.00  0.00    +0.000 C 
ATOM      9  O   UNL     1       6.453   3.871  13.499  0.00  0.00    +0.000 OA
ATOM     10  H   UNL     1       8.376   5.288  12.891  0.00  0.00    +0.000 HD
ATOM     11  H   UNL     1       8.492   6.119  14.404  0.00  0.00    +0.000 HD
ENDBRANCH   1   8
BRANCH   4  12
ATOM     12  O   UNL     1       4.906   5.603  19.352  0.00  0.00    +0.000 OA
BRANCH  12  13
ATOM     13  C   UNL     1       3.501   5.752  19.558  0.00  0.00    +0.000 C 
BRANCH  13  14
ATOM     14  C   UNL     1       2.844   4.369  19.637  0.00  0.00    +0.000 C 
ATOM     15  C   UNL     1       1.926   4.110  18.433  0.00  0.00    +0.000 C 
ATOM     16  C   UNL     1       1.176   2.796  18.599  0.00  0.00    +0.000 C 
ATOM     17  O   UNL     1       0.447   2.780  19.826  0.00  0.00    +0.000 OA
ATOM     18  C   UNL     1       1.301   2.888  20.962  0.00  0.00    +0.000 C 
ATOM     19  C   UNL     1       2.052   4.214  20.943  0.00  0.00    +0.000 C 
ENDBRANCH  13  14
ENDBRANCH  12  13
ENDBRANCH   4  12
TORSDOF 4
ENDMDL
MODEL 3
REMARK VINA RESULT:      -6.9      0.898      1.759
REMARK  Name = 
REMARK  4 active torsions:
REMARK  status: ('A' for Active; 'I' for Inactive)
REMARK    1  A    between atoms: C_2  and  C_4
REMARK    2  A    between atoms: C_7  and  O_8
REMARK    3  A    between atoms: O_8  and  C_9
REMARK    4  A    between atoms: C_9  and  C_10
REMARK                            x       y       z     vdW  Elec       q    Type
REMARK                         _______ _______ _______ _____ _____    ______ ____
ROOT
ATOM      1  C   UNL     1       6.454   4.966  15.707  0.00  0.00    +0.000 A 
ATOM      2  C   UNL     1       7.107   4.464  16.830  0.00  0.00    +0.000 A 
ATOM      3  C   UNL     1       6.581   4.715  18.097  0.00  0.00    +0.000 A 
ATOM      4  C   UNL     1       5.413   5.462  18.212  0.00  0.00    +0.000 A 
ATOM      5  N   UNL     1       4.764   5.953  17.132  0.00  0.00    +0.000 NA
ATOM      6  C   UNL     1       5.301   5.708  15.907  0.00  0.00    +0.000 A 
ENDROOT
BRANCH   1   8
ATOM      7  N   UNL     1       6.468   3.727  13.623  0.00  0.00    +0.000 N 
ATOM      8  C   UNL     1       6.978   4.772  14.342  0.00  0.00    +0.000 C 
ATOM      9  O   UNL     1       7.821   5.522  13.867  0.00  0.00    +0.000 OA
ATOM     10  H   UNL     1       6.779   3.640  12.664  0.00  0.00    +0.000 HD
ATOM     11  H   UNL     1       5.616   3.250  13.882  0.00  0.00    +0.000 HD
ENDBRANCH   1   8
BRANCH   4  12
ATOM     12  O   UNL     1       4.805   5.782  19.395  0.00  0.00    +0.000 OA
BRANCH  12  13
ATOM     13  C   UNL     1       3.380   5.861  19.382  0.00  0.00    +0.000 C 
BRANCH  13  14
ATOM     14  C   UNL     1       2.786   4.460  19.563  0.00  0.00    +0.000 C 
ATOM     15  C   UNL     1       1.901   4.063  18.372  0.00  0.00    +0.000 C 
ATOM     16  C   UNL     1       1.209   2.733  18.633  0.00  0.00    +0.000 C 
ATOM     17  O   UNL     1       0.460   2.781  19.847  0.00  0.00    +0.000 OA
ATOM     18  C   UNL     1       1.290   3.019  20.982  0.00  0.00    +0.000 C 
ATOM     19  C   UNL     1       1.980   4.373  20.866  0.00  0.00    +0.000 C 
ENDBRANCH  13  14
ENDBRANCH  12  13
ENDBRANCH   4  12
TORSDOF 4
ENDMDL
MODEL 4
REMARK VINA RESULT:      -6.8      0.723      1.139
REMARK  Name = 
REMARK  4 active torsions:
REMARK  status: ('A' for Active; 'I' for Inactive)
REMARK    1  A    between atoms: C_2  and  C_4
REMARK    2  A    between atoms: C_7  and  O_8
REMARK    3  A    between atoms: O_8  and  C_9
REMARK    4  A    between atoms: C_9  and  C_10
REMARK                            x       y       z     vdW  Elec       q    Type
REMARK                         _______ _______ _______ _____ _____    ______ ____
ROOT
ATOM      1  C   UNL     1       6.276   4.898  16.181  0.00  0.00    +0.000 A 
ATOM      2  C   UNL     1       6.956   4.730  17.384  0.00  0.00    +0.000 A 
ATOM      3  C   UNL     1       6.288   4.964  18.586  0.00  0.00    +0.000 A 
ATOM      4  C   UNL     1       4.954   5.357  18.557  0.00  0.00    +0.000 A 
ATOM      5  N   UNL     1       4.277   5.520  17.397  0.00  0.00    +0.000 NA
ATOM      6  C   UNL     1       4.951   5.300  16.236  0.00  0.00    +0.000 A 
ENDROOT
BRANCH   1   8
ATOM      7  N   UNL     1       6.447   3.712  14.072  0.00  0.00    +0.000 N 
ATOM      8  C   UNL     1       6.934   4.707  14.874  0.00  0.00    +0.000 C 
ATOM      9  O   UNL     1       7.864   5.418  14.516  0.00  0.00    +0.000 OA
ATOM     10  H   UNL     1       6.856   3.631  13.150  0.00  0.00    +0.000 HD
ATOM     11  H   UNL     1       5.547   3.280  14.224  0.00  0.00    +0.000 HD
ENDBRANCH   1   8
BRANCH   4  12
ATOM     12  O   UNL     1       4.195   5.624  19.663  0.00  0.00    +0.000 OA
BRANCH  12  13
ATOM     13  C   UNL     1       2.841   6.012  19.432  0.00  0.00    +0.000 C 
BRANCH  13  14
ATOM     14  C   UNL     1       1.898   4.914  19.938  0.00  0.00    +0.000 C 
ATOM     15  C   UNL     1       2.499   4.160  21.133  0.00  0.00    +0.000 C 
ATOM     16  C   UNL     1       1.615   2.986  21.531  0.00  0.00    +0.000 C 
ATOM     17  O   UNL     1       1.397   2.117  20.420  0.00  0.00    +0.000 OA
ATOM     18  C   UNL     1       0.719   2.770  19.350  0.00  0.00    +0.000 C 
ATOM     19  C   UNL     1       1.556   3.926  18.814  0.00  0.00    +0.000 C 
ENDBRANCH  13  14
ENDBRANCH  12  13
ENDBRANCH   4  12
TORSDOF 4
ENDMDL
MODEL 5
REMARK VINA RESULT:      -6.8      1.512      2.062
REMARK  Name = 
REMARK  4 active torsions:
REMARK  status: ('A' for Active; 'I' for Inactive)
REMARK    1  A    between atoms: C_2  and  C_4
REMARK    2  A    between atoms: C_7  and  O_8
REMARK    3  A    between atoms: O_8  and  C_9
REMARK    4  A    between atoms: C_9  and  C_10
REMARK                            x       y       z     vdW  Elec       q    Type
REMARK                         _______ _______ _______ _____ _____    ______ ____
ROOT
ATOM      1  C   UNL     1       6.412   4.484  15.654  0.00  0.00    +0.000 A 
ATOM      2  C   UNL     1       5.061   4.206  15.841  0.00  0.00    +0.000 A 
ATOM      3  C   UNL     1       4.577   4.002  17.133  0.00  0.00    +0.000 A 
ATOM      4  C   UNL     1       5.456   4.082  18.209  0.00  0.00    +0.000 A 
ATOM      5  N   UNL     1       6.770   4.356  18.045  0.00  0.00    +0.000 NA
ATOM      6  C   UNL     1       7.224   4.539  16.776  0.00  0.00    +0.000 A 
ENDROOT
BRANCH   1   8
ATOM      7  N   UNL     1       6.589   3.810  13.331  0.00  0.00    +0.000 N 
ATOM      8  C   UNL     1       6.997   4.670  14.312  0.00  0.00    +0.000 C 
ATOM      9  O   UNL     1       7.800   5.565  14.083  0.00  0.00    +0.000 OA
ATOM     10  H   UNL     1       6.939   3.985  12.398  0.00  0.00    +0.000 HD
ATOM     11  H   UNL     1       5.765   3.232  13.420  0.00  0.00    +0.000 HD
ENDBRANCH   1   8
BRANCH   4  12
ATOM     12  O   UNL     1       5.106   3.894  19.518  0.00  0.00    +0.000 OA
BRANCH  12  13
ATOM     13  C   UNL     1       4.616   2.601  19.869  0.00  0.00    +0.000 C 
BRANCH  13  14
ATOM     14  C   UNL     1       3.117   2.686  20.180  0.00  0.00    +0.000 C 
ATOM     15  C   UNL     1       2.269   2.110  19.038  0.00  0.00    +0.000 C 
ATOM     16  C   UNL     1       0.786   2.330  19.302  0.00  0.00    +0.000 C 
ATOM     17  O   UNL     1       0.510   3.715  19.512  0.00  0.00    +0.000 OA
ATOM     18  C   UNL     1       1.190   4.233  20.652  0.00  0.00    +0.000 C 
ATOM     19  C   UNL     1       2.700   4.135  20.464  0.00  0.00    +0.000 C 
ENDBRANCH  13  14
ENDBRANCH  12  13
ENDBRANCH   4  12
TORSDOF 4
ENDMDL
MODEL 6
REMARK VINA RESULT:      -6.7      0.992      1.364
REMARK  Name = 
REMARK  4 active torsions:
REMARK  status: ('A' for Active; 'I' for Inactive)
REMARK    1  A    between atoms: C_2  and  C_4
REMARK    2  A    between atoms: C_7  and  O_8
REMARK    3  A    between atoms: O_8  and  C_9
REMARK    4  A    between atoms: C_9  and  C_10
REMARK                            x       y       z     vdW  Elec       q    Type
REMARK                         _______ _______ _______ _____ _____    ______ ____
ROOT
ATOM      1  C   UNL     1       5.904   4.789  15.086  0.00  0.00    +0.000 A 
ATOM      2  C   UNL     1       5.687   3.783  16.023  0.00  0.00    +0.000 A 
ATOM      3  C   UNL     1       5.017   4.086  17.209  0.00  0.00    +0.000 A 
ATOM      4  C   UNL     1       4.578   5.387  17.428  0.00  0.00    +0.000 A 
ATOM      5  N   UNL     1       4.776   6.375  16.526  0.00  0.00    +0.000 NA
ATOM      6  C   UNL     1       5.443   6.062  15.383  0.00  0.00    +0.000 A 
ENDROOT
BRANCH   1   8
ATOM      7  N   UNL     1       6.298   3.435  13.113  0.00  0.00    +0.000 N 
ATOM      8  C   UNL     1       6.641   4.547  13.831  0.00  0.00    +0.000 C 
ATOM      9  O   UNL     1       7.510   5.315  13.440  0.00  0.00    +0.000 OA
ATOM     10  H   UNL     1       6.757   3.311  12.220  0.00  0.00    +0.000 HD
ATOM     11  H   UNL     1       5.440   2.926  13.272  0.00  0.00    +0.000 HD
ENDBRANCH   1   8
BRANCH   4  12
ATOM     12  O   UNL     1       3.919   5.809  18.550  0.00  0.00    +0.000 OA
BRANCH  12  13
ATOM     13  C   UNL     1       2.510   6.000  18.431  0.00  0.00    +0.000 C 
BRANCH  13  14
ATOM     14  C   UNL     1       1.776   4.967  19.295  0.00  0.00    +0.000 C 
ATOM     15  C   UNL     1       2.586   4.599  20.546  0.00  0.00    +0.000 C 
ATOM     16  C   UNL     1       1.910   3.474  21.315  0.00  0.00    +0.000 C 
ATOM     17  O   UNL     1       1.702   2.339  20.474  0.00  0.00    +0.000 OA
ATOM     18  C   UNL     1       0.842   2.633  19.376  0.00  0.00    +0.000 C 
ATOM     19  C   UNL     1       1.461   3.703  18.484  0.00  0.00    +0.000 C 
ENDBRANCH  13  14
ENDBRANCH  12  13
ENDBRANCH   4  12
TORSDOF 4
ENDMDL
MODEL 7
REMARK VINA RESULT:      -6.5      1.179      1.308
REMARK  Name = 
REMARK  4 active torsions:
REMARK  status: ('A' for Active; 'I' for Inactive)
REMARK    1  A    between atoms: C_2  and  C_4
REMARK    2  A    between atoms: C_7  and  O_8
REMARK    3  A    between atoms: O_8  and  C_9
REMARK    4  A    between atoms: C_9  and  C_10
REMARK                            x       y       z     vdW  Elec       q    Type
REMARK                         _______ _______ _______ _____ _____    ______ ____
ROOT
ATOM      1  C   UNL     1       6.444   4.990  15.144  0.00  0.00    +0.000 A 
ATOM      2  C   UNL     1       5.306   5.762  15.360  0.00  0.00    +0.000 A 
ATOM      3  C   UNL     1       4.847   5.955  16.663  0.00  0.00    +0.000 A 
ATOM      4  C   UNL     1       5.539   5.373  17.720  0.00  0.00    +0.000 A 
ATOM      5  N   UNL     1       6.649   4.624  17.528  0.00  0.00    +0.000 NA
ATOM      6  C   UNL     1       7.072   4.438  16.250  0.00  0.00    +0.000 A 
ENDROOT
BRANCH   1   8
ATOM      7  N   UNL     1       6.445   3.628  13.138  0.00  0.00    +0.000 N 
ATOM      8  C   UNL     1       6.960   4.714  13.789  0.00  0.00    +0.000 C 
ATOM      9  O   UNL     1       7.800   5.434  13.265  0.00  0.00    +0.000 OA
ATOM     10  H   UNL     1       6.750   3.483  12.184  0.00  0.00    +0.000 HD
ATOM     11  H   UNL     1       5.594   3.168  13.431  0.00  0.00    +0.000 HD
ENDBRANCH   1   8
BRANCH   4  12
ATOM     12  O   UNL     1       5.186   5.480  19.037  0.00  0.00    +0.000 OA
BRANCH  12  13
ATOM     13  C   UNL     1       4.721   4.291  19.674  0.00  0.00    +0.000 C 
BRANCH  13  14
ATOM     14  C   UNL     1       3.227   4.102  19.384  0.00  0.00    +0.000 C 
ATOM     15  C   UNL     1       2.361   4.526  20.579  0.00  0.00    +0.000 C 
ATOM     16  C   UNL     1       0.896   4.201  20.326  0.00  0.00    +0.000 C 
ATOM     17  O   UNL     1       0.729   2.815  20.025  0.00  0.00    +0.000 OA
ATOM     18  C   UNL     1       1.424   2.434  18.840  0.00  0.00    +0.000 C 
ATOM     19  C   UNL     1       2.924   2.645  19.007  0.00  0.00    +0.000 C 
ENDBRANCH  13  14
ENDBRANCH  12  13
ENDBRANCH   4  12
TORSDOF 4
ENDMDL
MODEL 8
REMARK VINA RESULT:      -6.5      1.425      1.668
REMARK  Name = 
REMARK  4 active torsions:
REMARK  status: ('A' for Active; 'I' for Inactive)
REMARK    1  A    between atoms: C_2  and  C_4
REMARK    2  A    between atoms: C_7  and  O_8
REMARK    3  A    between atoms: O_8  and  C_9
REMARK    4  A    between atoms: C_9  and  C_10
REMARK                            x       y       z     vdW  Elec       q    Type
REMARK                         _______ _______ _______ _____ _____    ______ ____
ROOT
ATOM      1  C   UNL     1       6.431   5.095  15.392  0.00  0.00    +0.000 A 
ATOM      2  C   UNL     1       5.391   5.993  15.616  0.00  0.00    +0.000 A 
ATOM      3  C   UNL     1       4.920   6.184  16.915  0.00  0.00    +0.000 A 
ATOM      4  C   UNL     1       5.501   5.473  17.960  0.00  0.00    +0.000 A 
ATOM      5  N   UNL     1       6.514   4.600  17.761  0.00  0.00    +0.000 NA
ATOM      6  C   UNL     1       6.950   4.419  16.485  0.00  0.00    +0.000 A 
ENDROOT
BRANCH   1   8
ATOM      7  N   UNL     1       7.994   5.582  13.603  0.00  0.00    +0.000 N 
ATOM      8  C   UNL     1       6.949   4.816  14.039  0.00  0.00    +0.000 C 
ATOM      9  O   UNL     1       6.475   3.927  13.343  0.00  0.00    +0.000 OA
ATOM     10  H   UNL     1       8.391   5.341  12.704  0.00  0.00    +0.000 HD
ATOM     11  H   UNL     1       8.558   6.142  14.227  0.00  0.00    +0.000 HD
ENDBRANCH   1   8
BRANCH   4  12
ATOM     12  O   UNL     1       5.123   5.565  19.272  0.00  0.00    +0.000 OA
BRANCH  12  13
ATOM     13  C   UNL     1       3.722   5.502  19.540  0.00  0.00    +0.000 C 
BRANCH  13  14
ATOM     14  C   UNL     1       3.137   4.229  18.918  0.00  0.00    +0.000 C 
ATOM     15  C   UNL     1       1.613   4.164  19.091  0.00  0.00    +0.000 C 
ATOM     16  C   UNL     1       1.069   2.832  18.595  0.00  0.00    +0.000 C 
ATOM     17  O   UNL     1       1.717   1.743  19.253  0.00  0.00    +0.000 OA
ATOM     18  C   UNL     1       3.118   1.714  18.993  0.00  0.00    +0.000 C 
ATOM     19  C   UNL     1       3.787   2.977  19.523  0.00  0.00    +0.000 C 
ENDBRANCH  13  14
ENDBRANCH  12  13
ENDBRANCH   4  12
TORSDOF 4
ENDMDL
MODEL 9
REMARK VINA RESULT:      -6.5      2.219      3.053
REMARK  Name = 
REMARK  4 active torsions:
REMARK  status: ('A' for Active; 'I' for Inactive)
REMARK    1  A    between atoms: C_2  and  C_4
REMARK    2  A    between atoms: C_7  and  O_8
REMARK    3  A    between atoms: O_8  and  C_9
REMARK    4  A    between atoms: C_9  and  C_10
REMARK                            x       y       z     vdW  Elec       q    Type
REMARK                         _______ _______ _______ _____ _____    ______ ____
ROOT
ATOM      1  C   UNL     1       6.375   6.050  17.492  0.00  0.00    +0.000 A 
ATOM      2  C   UNL     1       6.581   4.713  17.166  0.00  0.00    +0.000 A 
ATOM      3  C   UNL     1       5.480   3.879  16.972  0.00  0.00    +0.000 A 
ATOM      4  C   UNL     1       4.198   4.403  17.107  0.00  0.00    +0.000 A 
ATOM      5  N   UNL     1       3.981   5.700  17.419  0.00  0.00    +0.000 NA
ATOM      6  C   UNL     1       5.068   6.493  17.617  0.00  0.00    +0.000 A 
ENDROOT
BRANCH   1   8
ATOM      7  N   UNL     1       8.230   6.764  18.883  0.00  0.00    +0.000 N 
ATOM      8  C   UNL     1       7.495   6.977  17.750  0.00  0.00    +0.000 C 
ATOM      9  O   UNL     1       7.764   7.886  16.976  0.00  0.00    +0.000 OA
ATOM     10  H   UNL     1       9.038   7.358  19.019  0.00  0.00    +0.000 HD
ATOM     11  H   UNL     1       8.194   5.898  19.402  0.00  0.00    +0.000 HD
ENDBRANCH   1   8
BRANCH   4  12
ATOM     12  O   UNL     1       3.043   3.687  16.952  0.00  0.00    +0.000 OA
BRANCH  12  13
ATOM     13  C   UNL     1       2.997   2.403  17.573  0.00  0.00    +0.000 C 
BRANCH  13  14
ATOM     14  C   UNL     1       2.296   2.514  18.932  0.00  0.00    +0.000 C 
ATOM     15  C   UNL     1       1.373   3.740  18.993  0.00  0.00    +0.000 C 
ATOM     16  C   UNL     1       0.796   3.913  20.391  0.00  0.00    +0.000 C 
ATOM     17  O   UNL     1       1.839   3.995  21.362  0.00  0.00    +0.000 OA
ATOM     18  C   UNL     1       2.626   2.808  21.409  0.00  0.00    +0.000 C 
ATOM     19  C   UNL     1       3.321   2.574  20.073  0.00  0.00    +0.000 C 
ENDBRANCH  13  14
ENDBRANCH  12  13
ENDBRANCH   4  12
TORSDOF 4
ENDMDL
