MODEL 1
REMARK VINA RESULT:      -7.9      0.000      0.000
REMARK  Name = 
REMARK  6 active torsions:
REMARK  status: ('A' for Active; 'I' for Inactive)
REMARK    1  A    between atoms: N_1  and  C_2
REMARK    2  A    between atoms: C_2  and  C_3
REMARK    3  A    between atoms: N_6  and  C_7
REMARK    4  A    between atoms: C_14  and  C_15
REMARK    5  A    between atoms: C_15  and  O_17
REMARK    6  A    between atoms: N_19  and  C_20
REMARK                            x       y       z     vdW  Elec       q    Type
REMARK                         _______ _______ _______ _____ _____    ______ ____
ROOT
ATOM      1  C   UNL     1       1.390   8.949  19.504  0.00  0.00    +0.000 A 
ATOM      2  C   UNL     1       1.993   9.338  18.296  0.00  0.00    +0.000 A 
ATOM      3  F   UNL     1       1.738  10.541  17.756  0.00  0.00    +0.000 F 
ATOM      4  C   UNL     1       2.907   8.534  17.620  0.00  0.00    +0.000 A 
ATOM      5  C   UNL     1       3.238   7.282  18.136  0.00  0.00    +0.000 A 
ATOM      6  C   UNL     1       4.168   6.416  17.371  0.00  0.00    +0.000 A 
ATOM      7  O   UNL     1       4.689   6.800  16.325  0.00  0.00    +0.000 OA
ATOM      8  C   UNL     1       4.436   5.057  17.876  0.00  0.00    +0.000 A 
ATOM      9  C   UNL     1       3.833   4.704  19.020  0.00  0.00    +0.000 A 
ATOM     10  N   UNL     1       3.012   5.503  19.801  0.00  0.00    +0.000 N 
ATOM     11  C   UNL     1       2.684   6.823  19.345  0.00  0.00    +0.000 A 
ATOM     12  C   UNL     1       1.799   7.695  20.022  0.00  0.00    +0.000 A 
ATOM     13  F   UNL     1       1.270   7.307  21.196  0.00  0.00    +0.000 F 
ENDROOT
BRANCH   1  17
ATOM     14  C   UNL     1      -0.310  11.739  21.186  0.00  0.00    +0.000 C 
ATOM     15  C   UNL     1      -0.964  11.564  19.811  0.00  0.00    +0.000 C 
ATOM     16  C   UNL     1      -0.859  10.067  19.552  0.00  0.00    +0.000 C 
ATOM     17  N   UNL     1       0.415   9.698  20.154  0.00  0.00    +0.000 N 
ATOM     18  C   UNL     1       0.814  10.679  21.179  0.00  0.00    +0.000 C 
BRANCH  14  19
ATOM     19  C   UNL     1      -1.349  11.569  22.305  0.00  0.00    +0.000 C 
BRANCH  19  20
ATOM     20  N   UNL     1      -0.926  10.628  23.336  0.00  0.00    +0.000 NA
ATOM     21  H   UNL     1      -1.302   9.705  23.113  0.00  0.00    +0.000 HD
ATOM     22  H   UNL     1      -1.337  10.883  24.233  0.00  0.00    +0.000 HD
ENDBRANCH  19  20
ENDBRANCH  14  19
ENDBRANCH   1  17
BRANCH  10  23
ATOM     23  C   UNL     1       2.203   4.857  20.861  0.00  0.00    +0.000 C 
ATOM     24  C   UNL     1       1.058   3.900  20.626  0.00  0.00    +0.000 C 
ATOM     25  C   UNL     1       2.360   3.386  21.157  0.00  0.00    +0.000 C 
ENDBRANCH  10  23
BRANCH   8  26
ATOM     26  C   UNL     1       5.298   4.076  17.177  0.00  0.00    +0.000 C 
ATOM     27  O   UNL     1       4.897   3.349  16.282  0.00  0.00    +0.000 OA
BRANCH  26  28
ATOM     28  O   UNL     1       6.577   4.045  17.609  0.00  0.00    +0.000 OA
ATOM     29  H   UNL     1       6.944   4.931  17.854  0.00  0.00    +0.000 HD
ENDBRANCH  26  28
ENDBRANCH   8  26
TORSDOF 6
ENDMDL
MODEL 2
REMARK VINA RESULT:      -7.6      2.061      3.737
REMARK  Name = 
REMARK  6 active torsions:
REMARK  status: ('A' for Active; 'I' for Inactive)
REMARK    1  A    between atoms: N_1  and  C_2
REMARK    2  A    between atoms: C_2  and  C_3
REMARK    3  A    between atoms: N_6  and  C_7
REMARK    4  A    between atoms: C_14  and  C_15
REMARK    5  A    between atoms: C_15  and  O_17
REMARK    6  A    between atoms: N_19  and  C_20
REMARK                            x       y       z     vdW  Elec       q    Type
REMARK                         _______ _______ _______ _____ _____    ______ ____
ROOT
ATOM      1  C   UNL     1       1.362   8.538  19.770  0.00  0.00    +0.000 A 
ATOM      2  C   UNL     1       0.967   7.743  20.859  0.00  0.00    +0.000 A 
ATOM      3  F   UNL     1       0.119   8.216  21.786  0.00  0.00    +0.000 F 
ATOM      4  C   UNL     1       1.388   6.424  21.016  0.00  0.00    +0.000 A 
ATOM      5  C   UNL     1       2.250   5.858  20.078  0.00  0.00    +0.000 A 
ATOM      6  C   UNL     1       2.733   4.473  20.295  0.00  0.00    +0.000 A 
ATOM      7  O   UNL     1       2.350   3.802  21.252  0.00  0.00    +0.000 OA
ATOM      8  C   UNL     1       3.719   3.918  19.350  0.00  0.00    +0.000 A 
ATOM      9  C   UNL     1       4.093   4.705  18.330  0.00  0.00    +0.000 A 
ATOM     10  N   UNL     1       3.617   5.977  18.053  0.00  0.00    +0.000 N 
ATOM     11  C   UNL     1       2.684   6.587  18.956  0.00  0.00    +0.000 A 
ATOM     12  C   UNL     1       2.191   7.905  18.811  0.00  0.00    +0.000 A 
ATOM     13  F   UNL     1       2.558   8.626  17.737  0.00  0.00    +0.000 F 
ENDROOT
BRANCH   1  17
ATOM     14  C   UNL     1      -0.628  11.621  19.570  0.00  0.00    +0.000 C 
ATOM     15  C   UNL     1       0.157  11.665  20.885  0.00  0.00    +0.000 C 
ATOM     16  C   UNL     1       1.445  10.922  20.560  0.00  0.00    +0.000 C 
ATOM     17  N   UNL     1       1.021   9.880  19.634  0.00  0.00    +0.000 N 
ATOM     18  C   UNL     1      -0.247  10.245  18.978  0.00  0.00    +0.000 C 
BRANCH  14  19
ATOM     19  C   UNL     1      -0.270  12.825  18.685  0.00  0.00    +0.000 C 
BRANCH  19  20
ATOM     20  N   UNL     1      -1.026  12.859  17.438  0.00  0.00    +0.000 NA
ATOM     21  H   UNL     1      -0.704  13.652  16.880  0.00  0.00    +0.000 HD
ATOM     22  H   UNL     1      -2.011  13.040  17.630  0.00  0.00    +0.000 HD
ENDBRANCH  19  20
ENDBRANCH  14  19
ENDBRANCH   1  17
BRANCH  10  23
ATOM     23  C   UNL     1       4.355   6.806  17.071  0.00  0.00    +0.000 C 
ATOM     24  C   UNL     1       5.847   7.041  17.071  0.00  0.00    +0.000 C 
ATOM     25  C   UNL     1       5.234   6.160  16.028  0.00  0.00    +0.000 C 
ENDBRANCH  10  23
BRANCH   8  26
ATOM     26  C   UNL     1       4.322   2.573  19.487  0.00  0.00    +0.000 C 
ATOM     27  O   UNL     1       5.062   2.260  20.406  0.00  0.00    +0.000 OA
BRANCH  26  28
ATOM     28  O   UNL     1       3.989   1.706  18.506  0.00  0.00    +0.000 OA
ATOM     29  H   UNL     1       3.923   2.115  17.608  0.00  0.00    +0.000 HD
ENDBRANCH  26  28
ENDBRANCH   8  26
TORSDOF 6
ENDMDL
MODEL 3
REMARK VINA RESULT:      -6.7      1.015      1.396
REMARK  Name = 
REMARK  6 active torsions:
REMARK  status: ('A' for Active; 'I' for Inactive)
REMARK    1  A    between atoms: N_1  and  C_2
REMARK    2  A    between atoms: C_2  and  C_3
REMARK    3  A    between atoms: N_6  and  C_7
REMARK    4  A    between atoms: C_14  and  C_15
REMARK    5  A    between atoms: C_15  and  O_17
REMARK    6  A    between atoms: N_19  and  C_20
REMARK                            x       y       z     vdW  Elec       q    Type
REMARK                         _______ _______ _______ _____ _____    ______ ____
ROOT
ATOM      1  C   UNL     1       1.643   9.165  19.274  0.00  0.00    +0.000 A 
ATOM      2  C   UNL     1       2.338   9.421  18.081  0.00  0.00    +0.000 A 
ATOM      3  F   UNL     1       2.288  10.631  17.500  0.00  0.00    +0.000 F 
ATOM      4  C   UNL     1       3.142   8.467  17.461  0.00  0.00    +0.000 A 
ATOM      5  C   UNL     1       3.261   7.196  18.021  0.00  0.00    +0.000 A 
ATOM      6  C   UNL     1       4.074   6.177  17.314  0.00  0.00    +0.000 A 
ATOM      7  O   UNL     1       4.682   6.445  16.279  0.00  0.00    +0.000 OA
ATOM      8  C   UNL     1       4.115   4.809  17.863  0.00  0.00    +0.000 A 
ATOM      9  C   UNL     1       3.428   4.587  18.993  0.00  0.00    +0.000 A 
ATOM     10  N   UNL     1       2.712   5.525  19.721  0.00  0.00    +0.000 N 
ATOM     11  C   UNL     1       2.603   6.865  19.219  0.00  0.00    +0.000 A 
ATOM     12  C   UNL     1       1.839   7.881  19.839  0.00  0.00    +0.000 A 
ATOM     13  F   UNL     1       1.218   7.614  21.002  0.00  0.00    +0.000 F 
ENDROOT
BRANCH   1  17
ATOM     14  C   UNL     1      -1.415  10.656  20.665  0.00  0.00    +0.000 C 
ATOM     15  C   UNL     1      -0.466  10.373  21.836  0.00  0.00    +0.000 C 
ATOM     16  C   UNL     1       0.918  10.563  21.232  0.00  0.00    +0.000 C 
ATOM     17  N   UNL     1       0.772  10.073  19.867  0.00  0.00    +0.000 N 
ATOM     18  C   UNL     1      -0.640  10.109  19.445  0.00  0.00    +0.000 C 
BRANCH  14  19
ATOM     19  C   UNL     1      -1.756  12.152  20.594  0.00  0.00    +0.000 C 
BRANCH  19  20
ATOM     20  N   UNL     1      -2.030  12.609  19.237  0.00  0.00    +0.000 NA
ATOM     21  H   UNL     1      -1.929  11.820  18.597  0.00  0.00    +0.000 HD
ATOM     22  H   UNL     1      -1.329  13.290  18.947  0.00  0.00    +0.000 HD
ENDBRANCH  19  20
ENDBRANCH  14  19
ENDBRANCH   1  17
BRANCH  10  23
ATOM     23  C   UNL     1       1.779   5.042  20.766  0.00  0.00    +0.000 C 
ATOM     24  C   UNL     1       0.835   3.872  20.623  0.00  0.00    +0.000 C 
ATOM     25  C   UNL     1       2.046   3.747  21.494  0.00  0.00    +0.000 C 
ENDBRANCH  10  23
BRANCH   8  26
ATOM     26  C   UNL     1       4.840   3.688  17.223  0.00  0.00    +0.000 C 
ATOM     27  O   UNL     1       4.336   2.596  17.012  0.00  0.00    +0.000 OA
BRANCH  26  28
ATOM     28  O   UNL     1       6.118   3.966  16.885  0.00  0.00    +0.000 OA
ATOM     29  H   UNL     1       6.261   4.892  16.567  0.00  0.00    +0.000 HD
ENDBRANCH  26  28
ENDBRANCH   8  26
TORSDOF 6
ENDMDL
MODEL 4
REMARK VINA RESULT:      -6.7      3.271      7.104
REMARK  Name = 
REMARK  6 active torsions:
REMARK  status: ('A' for Active; 'I' for Inactive)
REMARK    1  A    between atoms: N_1  and  C_2
REMARK    2  A    between atoms: C_2  and  C_3
REMARK    3  A    between atoms: N_6  and  C_7
REMARK    4  A    between atoms: C_14  and  C_15
REMARK    5  A    between atoms: C_15  and  O_17
REMARK    6  A    between atoms: N_19  and  C_20
REMARK                            x       y       z     vdW  Elec       q    Type
REMARK                         _______ _______ _______ _____ _____    ______ ____
ROOT
ATOM      1  C   UNL     1       2.495   7.112  19.057  0.00  0.00    +0.000 A 
ATOM      2  C   UNL     1       2.909   7.934  17.997  0.00  0.00    +0.000 A 
ATOM      3  F   UNL     1       3.751   7.473  17.058  0.00  0.00    +0.000 F 
ATOM      4  C   UNL     1       2.448   9.238  17.834  0.00  0.00    +0.000 A 
ATOM      5  C   UNL     1       1.552   9.774  18.758  0.00  0.00    +0.000 A 
ATOM      6  C   UNL     1       1.119  11.183  18.600  0.00  0.00    +0.000 A 
ATOM      7  O   UNL     1       1.490  11.866  17.646  0.00  0.00    +0.000 OA
ATOM      8  C   UNL     1       0.248  11.769  19.635  0.00  0.00    +0.000 A 
ATOM      9  C   UNL     1      -0.117  10.968  20.646  0.00  0.00    +0.000 A 
ATOM     10  N   UNL     1       0.209   9.629  20.798  0.00  0.00    +0.000 N 
ATOM     11  C   UNL     1       1.083   9.011  19.843  0.00  0.00    +0.000 A 
ATOM     12  C   UNL     1       1.540   7.676  19.940  0.00  0.00    +0.000 A 
ATOM     13  F   UNL     1       1.093   6.903  20.946  0.00  0.00    +0.000 F 
ENDROOT
BRANCH   1  17
ATOM     14  C   UNL     1       3.383   3.579  18.572  0.00  0.00    +0.000 C 
ATOM     15  C   UNL     1       4.682   4.391  18.520  0.00  0.00    +0.000 C 
ATOM     16  C   UNL     1       4.419   5.550  19.471  0.00  0.00    +0.000 C 
ATOM     17  N   UNL     1       3.003   5.837  19.287  0.00  0.00    +0.000 N 
ATOM     18  C   UNL     1       2.296   4.663  18.743  0.00  0.00    +0.000 C 
BRANCH  14  19
ATOM     19  C   UNL     1       3.440   2.539  19.702  0.00  0.00    +0.000 C 
BRANCH  19  20
ATOM     20  N   UNL     1       4.774   1.982  19.895  0.00  0.00    +0.000 NA
ATOM     21  H   UNL     1       5.023   1.430  19.073  0.00  0.00    +0.000 HD
ATOM     22  H   UNL     1       4.771   1.327  20.676  0.00  0.00    +0.000 HD
ENDBRANCH  19  20
ENDBRANCH  14  19
ENDBRANCH   1  17
BRANCH  10  23
ATOM     23  C   UNL     1      -0.030   8.992  22.114  0.00  0.00    +0.000 C 
ATOM     24  C   UNL     1       0.712   9.314  23.389  0.00  0.00    +0.000 C 
ATOM     25  C   UNL     1      -0.709   9.755  23.224  0.00  0.00    +0.000 C 
ENDBRANCH  10  23
BRANCH   8  26
ATOM     26  C   UNL     1      -0.207  13.179  19.624  0.00  0.00    +0.000 C 
ATOM     27  O   UNL     1      -0.094  13.927  20.582  0.00  0.00    +0.000 OA
BRANCH  26  28
ATOM     28  O   UNL     1      -0.764  13.580  18.461  0.00  0.00    +0.000 OA
ATOM     29  H   UNL     1      -0.703  12.914  17.732  0.00  0.00    +0.000 HD
ENDBRANCH  26  28
ENDBRANCH   8  26
TORSDOF 6
ENDMDL
MODEL 5
REMARK VINA RESULT:      -6.5      2.306      3.869
REMARK  Name = 
REMARK  6 active torsions:
REMARK  status: ('A' for Active; 'I' for Inactive)
REMARK    1  A    between atoms: N_1  and  C_2
REMARK    2  A    between atoms: C_2  and  C_3
REMARK    3  A    between atoms: N_6  and  C_7
REMARK    4  A    between atoms: C_14  and  C_15
REMARK    5  A    between atoms: C_15  and  O_17
REMARK    6  A    between atoms: N_19  and  C_20
REMARK                            x       y       z     vdW  Elec       q    Type
REMARK                         _______ _______ _______ _____ _____    ______ ____
ROOT
ATOM      1  C   UNL     1       1.758   8.273  19.589  0.00  0.00    +0.000 A 
ATOM      2  C   UNL     1       1.344   7.521  20.701  0.00  0.00    +0.000 A 
ATOM      3  F   UNL     1       0.587   8.074  21.662  0.00  0.00    +0.000 F 
ATOM      4  C   UNL     1       1.650   6.171  20.850  0.00  0.00    +0.000 A 
ATOM      5  C   UNL     1       2.412   5.525  19.877  0.00  0.00    +0.000 A 
ATOM      6  C   UNL     1       2.777   4.102  20.084  0.00  0.00    +0.000 A 
ATOM      7  O   UNL     1       2.380   3.472  21.063  0.00  0.00    +0.000 OA
ATOM      8  C   UNL     1       3.663   3.456  19.098  0.00  0.00    +0.000 A 
ATOM      9  C   UNL     1       4.059   4.202  18.057  0.00  0.00    +0.000 A 
ATOM     10  N   UNL     1       3.689   5.511  17.791  0.00  0.00    +0.000 N 
ATOM     11  C   UNL     1       2.858   6.206  18.731  0.00  0.00    +0.000 A 
ATOM     12  C   UNL     1       2.480   7.563  18.598  0.00  0.00    +0.000 A 
ATOM     13  F   UNL     1       2.861   8.243  17.502  0.00  0.00    +0.000 F 
ENDROOT
BRANCH   1  17
ATOM     14  C   UNL     1       1.115  11.567  18.091  0.00  0.00    +0.000 C 
ATOM     15  C   UNL     1      -0.153  11.149  18.845  0.00  0.00    +0.000 C 
ATOM     16  C   UNL     1       0.378  10.329  20.013  0.00  0.00    +0.000 C 
ATOM     17  N   UNL     1       1.535   9.640  19.458  0.00  0.00    +0.000 N 
ATOM     18  C   UNL     1       2.050  10.351  18.274  0.00  0.00    +0.000 C 
BRANCH  14  19
ATOM     19  C   UNL     1       1.663  12.890  18.647  0.00  0.00    +0.000 C 
BRANCH  19  20
ATOM     20  N   UNL     1       2.708  13.469  17.811  0.00  0.00    +0.000 NA
ATOM     21  H   UNL     1       2.636  13.072  16.872  0.00  0.00    +0.000 HD
ATOM     22  H   UNL     1       3.626  13.193  18.156  0.00  0.00    +0.000 HD
ENDBRANCH  19  20
ENDBRANCH  14  19
ENDBRANCH   1  17
BRANCH  10  23
ATOM     23  C   UNL     1       4.453   6.264  16.769  0.00  0.00    +0.000 C 
ATOM     24  C   UNL     1       5.855   6.798  16.943  0.00  0.00    +0.000 C 
ATOM     25  C   UNL     1       5.613   5.622  16.049  0.00  0.00    +0.000 C 
ENDBRANCH  10  23
BRANCH   8  26
ATOM     26  C   UNL     1       4.148   2.061  19.218  0.00  0.00    +0.000 C 
ATOM     27  O   UNL     1       3.770   1.155  18.493  0.00  0.00    +0.000 OA
BRANCH  26  28
ATOM     28  O   UNL     1       5.050   1.864  20.203  0.00  0.00    +0.000 OA
ATOM     29  H   UNL     1       5.956   1.626  19.882  0.00  0.00    +0.000 HD
ENDBRANCH  26  28
ENDBRANCH   8  26
TORSDOF 6
ENDMDL
MODEL 6
REMARK VINA RESULT:      -6.4      2.144      3.584
REMARK  Name = 
REMARK  6 active torsions:
REMARK  status: ('A' for Active; 'I' for Inactive)
REMARK    1  A    between atoms: N_1  and  C_2
REMARK    2  A    between atoms: C_2  and  C_3
REMARK    3  A    between atoms: N_6  and  C_7
REMARK    4  A    between atoms: C_14  and  C_15
REMARK    5  A    between atoms: C_15  and  O_17
REMARK    6  A    between atoms: N_19  and  C_20
REMARK                            x       y       z     vdW  Elec       q    Type
REMARK                         _______ _______ _______ _____ _____    ______ ____
ROOT
ATOM      1  C   UNL     1       1.462   8.477  19.648  0.00  0.00    +0.000 A 
ATOM      2  C   UNL     1       1.057   7.713  20.755  0.00  0.00    +0.000 A 
ATOM      3  F   UNL     1       0.212   8.218  21.668  0.00  0.00    +0.000 F 
ATOM      4  C   UNL     1       1.465   6.395  20.947  0.00  0.00    +0.000 A 
ATOM      5  C   UNL     1       2.323   5.797  20.025  0.00  0.00    +0.000 A 
ATOM      6  C   UNL     1       2.792   4.413  20.279  0.00  0.00    +0.000 A 
ATOM      7  O   UNL     1       2.400   3.770  21.252  0.00  0.00    +0.000 OA
ATOM      8  C   UNL     1       3.774   3.824  19.350  0.00  0.00    +0.000 A 
ATOM      9  C   UNL     1       4.158   4.582  18.312  0.00  0.00    +0.000 A 
ATOM     10  N   UNL     1       3.696   5.851  18.002  0.00  0.00    +0.000 N 
ATOM     11  C   UNL     1       2.767   6.492  18.887  0.00  0.00    +0.000 A 
ATOM     12  C   UNL     1       2.287   7.811  18.707  0.00  0.00    +0.000 A 
ATOM     13  F   UNL     1       2.663   8.501  17.616  0.00  0.00    +0.000 F 
ENDROOT
BRANCH   1  17
ATOM     14  C   UNL     1       1.479  12.135  19.995  0.00  0.00    +0.000 C 
ATOM     15  C   UNL     1       2.027  11.803  18.603  0.00  0.00    +0.000 C 
ATOM     16  C   UNL     1       1.281  10.533  18.216  0.00  0.00    +0.000 C 
ATOM     17  N   UNL     1       1.135   9.818  19.477  0.00  0.00    +0.000 N 
ATOM     18  C   UNL     1       1.237  10.743  20.620  0.00  0.00    +0.000 C 
BRANCH  14  19
ATOM     19  C   UNL     1       0.226  13.019  19.885  0.00  0.00    +0.000 C 
BRANCH  19  20
ATOM     20  N   UNL     1      -0.923  12.466  20.593  0.00  0.00    +0.000 NA
ATOM     21  H   UNL     1      -1.435  13.231  21.036  0.00  0.00    +0.000 HD
ATOM     22  H   UNL     1      -0.611  11.866  21.354  0.00  0.00    +0.000 HD
ENDBRANCH  19  20
ENDBRANCH  14  19
ENDBRANCH   1  17
BRANCH  10  23
ATOM     23  C   UNL     1       4.444   6.647  17.001  0.00  0.00    +0.000 C 
ATOM     24  C   UNL     1       5.911   6.999  17.083  0.00  0.00    +0.000 C 
ATOM     25  C   UNL     1       5.444   5.985  16.085  0.00  0.00    +0.000 C 
ENDBRANCH  10  23
BRANCH   8  26
ATOM     26  C   UNL     1       4.364   2.477  19.523  0.00  0.00    +0.000 C 
ATOM     27  O   UNL     1       5.108   2.184  20.445  0.00  0.00    +0.000 OA
BRANCH  26  28
ATOM     28  O   UNL     1       4.013   1.585  18.572  0.00  0.00    +0.000 OA
ATOM     29  H   UNL     1       4.765   1.043  18.227  0.00  0.00    +0.000 HD
ENDBRANCH  26  28
ENDBRANCH   8  26
TORSDOF 6
ENDMDL
MODEL 7
REMARK VINA RESULT:      -6.4      3.036      6.770
REMARK  Name = 
REMARK  6 active torsions:
REMARK  status: ('A' for Active; 'I' for Inactive)
REMARK    1  A    between atoms: N_1  and  C_2
REMARK    2  A    between atoms: C_2  and  C_3
REMARK    3  A    between atoms: N_6  and  C_7
REMARK    4  A    between atoms: C_14  and  C_15
REMARK    5  A    between atoms: C_15  and  O_17
REMARK    6  A    between atoms: N_19  and  C_20
REMARK                            x       y       z     vdW  Elec       q    Type
REMARK                         _______ _______ _______ _____ _____    ______ ____
ROOT
ATOM      1  C   UNL     1       2.348   6.407  19.006  0.00  0.00    +0.000 A 
ATOM      2  C   UNL     1       2.989   7.073  17.949  0.00  0.00    +0.000 A 
ATOM      3  F   UNL     1       3.760   6.401  17.079  0.00  0.00    +0.000 F 
ATOM      4  C   UNL     1       2.833   8.438  17.718  0.00  0.00    +0.000 A 
ATOM      5  C   UNL     1       2.027   9.195  18.567  0.00  0.00    +0.000 A 
ATOM      6  C   UNL     1       1.922  10.656  18.338  0.00  0.00    +0.000 A 
ATOM      7  O   UNL     1       2.485  11.200  17.390  0.00  0.00    +0.000 OA
ATOM      8  C   UNL     1       1.145  11.462  19.298  0.00  0.00    +0.000 A 
ATOM      9  C   UNL     1       0.558  10.803  20.309  0.00  0.00    +0.000 A 
ATOM     10  N   UNL     1       0.575   9.433  20.521  0.00  0.00    +0.000 N 
ATOM     11  C   UNL     1       1.344   8.600  19.643  0.00  0.00    +0.000 A 
ATOM     12  C   UNL     1       1.493   7.203  19.809  0.00  0.00    +0.000 A 
ATOM     13  F   UNL     1       0.833   6.590  20.808  0.00  0.00    +0.000 F 
ENDROOT
BRANCH   1  17
ATOM     14  C   UNL     1       2.850   3.303  20.908  0.00  0.00    +0.000 C 
ATOM     15  C   UNL     1       1.450   3.240  20.287  0.00  0.00    +0.000 C 
ATOM     16  C   UNL     1       1.602   4.008  18.981  0.00  0.00    +0.000 C 
ATOM     17  N   UNL     1       2.551   5.064  19.307  0.00  0.00    +0.000 N 
ATOM     18  C   UNL     1       3.363   4.696  20.481  0.00  0.00    +0.000 C 
BRANCH  14  19
ATOM     19  C   UNL     1       3.709   2.124  20.426  0.00  0.00    +0.000 C 
BRANCH  19  20
ATOM     20  N   UNL     1       4.942   2.548  19.774  0.00  0.00    +0.000 NA
ATOM     21  H   UNL     1       4.842   2.420  18.766  0.00  0.00    +0.000 HD
ATOM     22  H   UNL     1       5.713   1.943  20.053  0.00  0.00    +0.000 HD
ENDBRANCH  19  20
ENDBRANCH  14  19
ENDBRANCH   1  17
BRANCH  10  23
ATOM     23  C   UNL     1       0.131   8.921  21.839  0.00  0.00    +0.000 C 
ATOM     24  C   UNL     1       0.741   9.288  23.171  0.00  0.00    +0.000 C 
ATOM     25  C   UNL     1      -0.610   9.816  22.801  0.00  0.00    +0.000 C 
ENDBRANCH  10  23
BRANCH   8  26
ATOM     26  C   UNL     1       1.010  12.934  19.216  0.00  0.00    +0.000 C 
ATOM     27  O   UNL     1       1.329  13.688  20.121  0.00  0.00    +0.000 OA
BRANCH  26  28
ATOM     28  O   UNL     1       0.500  13.386  18.050  0.00  0.00    +0.000 OA
ATOM     29  H   UNL     1       0.719  14.331  17.851  0.00  0.00    +0.000 HD
ENDBRANCH  26  28
ENDBRANCH   8  26
TORSDOF 6
ENDMDL
MODEL 8
REMARK VINA RESULT:      -6.3      3.206      7.054
REMARK  Name = 
REMARK  6 active torsions:
REMARK  status: ('A' for Active; 'I' for Inactive)
REMARK    1  A    between atoms: N_1  and  C_2
REMARK    2  A    between atoms: C_2  and  C_3
REMARK    3  A    between atoms: N_6  and  C_7
REMARK    4  A    between atoms: C_14  and  C_15
REMARK    5  A    between atoms: C_15  and  O_17
REMARK    6  A    between atoms: N_19  and  C_20
REMARK                            x       y       z     vdW  Elec       q    Type
REMARK                         _______ _______ _______ _____ _____    ______ ____
ROOT
ATOM      1  C   UNL     1       2.844   6.696  18.713  0.00  0.00    +0.000 A 
ATOM      2  C   UNL     1       3.331   7.495  17.665  0.00  0.00    +0.000 A 
ATOM      3  F   UNL     1       4.150   6.984  16.732  0.00  0.00    +0.000 F 
ATOM      4  C   UNL     1       2.966   8.830  17.508  0.00  0.00    +0.000 A 
ATOM      5  C   UNL     1       2.098   9.421  18.426  0.00  0.00    +0.000 A 
ATOM      6  C   UNL     1       1.769  10.859  18.275  0.00  0.00    +0.000 A 
ATOM      7  O   UNL     1       2.202  11.522  17.333  0.00  0.00    +0.000 OA
ATOM      8  C   UNL     1       0.929  11.498  19.304  0.00  0.00    +0.000 A 
ATOM      9  C   UNL     1       0.493  10.716  20.304  0.00  0.00    +0.000 A 
ATOM     10  N   UNL     1       0.721   9.356  20.447  0.00  0.00    +0.000 N 
ATOM     11  C   UNL     1       1.562   8.685  19.497  0.00  0.00    +0.000 A 
ATOM     12  C   UNL     1       1.921   7.320  19.588  0.00  0.00    +0.000 A 
ATOM     13  F   UNL     1       1.406   6.573  20.581  0.00  0.00    +0.000 F 
ENDROOT
BRANCH   1  17
ATOM     14  C   UNL     1       3.854   3.213  18.113  0.00  0.00    +0.000 C 
ATOM     15  C   UNL     1       5.098   3.980  18.575  0.00  0.00    +0.000 C 
ATOM     16  C   UNL     1       4.541   5.030  19.526  0.00  0.00    +0.000 C 
ATOM     17  N   UNL     1       3.257   5.386  18.937  0.00  0.00    +0.000 N 
ATOM     18  C   UNL     1       2.765   4.308  18.060  0.00  0.00    +0.000 C 
BRANCH  14  19
ATOM     19  C   UNL     1       3.550   2.049  19.070  0.00  0.00    +0.000 C 
BRANCH  19  20
ATOM     20  N   UNL     1       3.978   0.757  18.546  0.00  0.00    +0.000 NA
ATOM     21  H   UNL     1       3.216   0.355  17.999  0.00  0.00    +0.000 HD
ATOM     22  H   UNL     1       4.140   0.104  19.312  0.00  0.00    +0.000 HD
ENDBRANCH  19  20
ENDBRANCH  14  19
ENDBRANCH   1  17
BRANCH  10  23
ATOM     23  C   UNL     1       0.420   8.726  21.754  0.00  0.00    +0.000 C 
ATOM     24  C   UNL     1       0.930   9.203  23.093  0.00  0.00    +0.000 C 
ATOM     25  C   UNL     1      -0.510   9.399  22.734  0.00  0.00    +0.000 C 
ENDBRANCH  10  23
BRANCH   8  26
ATOM     26  C   UNL     1       0.576  12.936  19.301  0.00  0.00    +0.000 C 
ATOM     27  O   UNL     1      -0.363  13.395  18.671  0.00  0.00    +0.000 OA
BRANCH  26  28
ATOM     28  O   UNL     1       1.380  13.712  20.059  0.00  0.00    +0.000 OA
ATOM     29  H   UNL     1       1.108  14.663  20.097  0.00  0.00    +0.000 HD
ENDBRANCH  26  28
ENDBRANCH   8  26
TORSDOF 6
ENDMDL
