MODEL 1
REMARK VINA RESULT:      -8.3      0.000      0.000
REMARK  Name = 
REMARK  6 active torsions:
REMARK  status: ('A' for Active; 'I' for Inactive)
REMARK    1  A    between atoms: C_2  and  N_3
REMARK    2  A    between atoms: C_2  and  N_10
REMARK    3  A    between atoms: N_3  and  C_4
REMARK    4  A    between atoms: N_10  and  C_11
REMARK    5  A    between atoms: C_16  and  N_17
REMARK    6  A    between atoms: C_18  and  C_19
REMARK                            x       y       z     vdW  Elec       q    Type
REMARK                         _______ _______ _______ _____ _____    ______ ____
ROOT
ATOM      1  C   UNL     1       2.318   4.928  19.745  0.00  0.00    +0.000 A 
ATOM      2  C   UNL     1       1.269   4.459  20.553  0.00  0.00    +0.000 A 
ATOM      3  C   UNL     1       0.674   3.227  20.296  0.00  0.00    +0.000 A 
ATOM      4  C   UNL     1       1.143   2.439  19.246  0.00  0.00    +0.000 A 
ATOM      5  C   UNL     1       2.186   2.896  18.443  0.00  0.00    +0.000 A 
ATOM      6  C   UNL     1       2.783   4.148  18.665  0.00  0.00    +0.000 A 
ENDROOT
BRANCH   1   7
ATOM      7  N   UNL     1       2.845   6.225  19.927  0.00  0.00    +0.000 N 
ATOM      8  H   UNL     1       3.856   6.257  20.015  0.00  0.00    +0.000 HD
BRANCH   7  10
ATOM      9  S   UNL     1       2.230   8.130  18.292  0.00  0.00    +0.000 S 
ATOM     10  C   UNL     1       2.218   7.446  19.817  0.00  0.00    +0.000 C 
BRANCH  10  11
ATOM     11  N   UNL     1       1.747   7.945  21.010  0.00  0.00    +0.000 N 
ATOM     12  H   UNL     1       1.965   7.349  21.799  0.00  0.00    +0.000 HD
BRANCH  11  13
ATOM     13  C   UNL     1       0.962   9.071  21.347  0.00  0.00    +0.000 A 
ATOM     14  C   UNL     1       0.388   9.065  22.628  0.00  0.00    +0.000 A 
ATOM     15  C   UNL     1      -0.518  10.056  23.015  0.00  0.00    +0.000 A 
ATOM     16  C   UNL     1      -0.839  11.084  22.135  0.00  0.00    +0.000 A 
ATOM     17  C   UNL     1      -0.235  11.128  20.883  0.00  0.00    +0.000 A 
ATOM     18  C   UNL     1       0.660  10.128  20.492  0.00  0.00    +0.000 A 
ENDBRANCH  11  13
ENDBRANCH  10  11
ENDBRANCH   7  10
ENDBRANCH   1   7
BRANCH   6  19
ATOM     19  N   UNL     1       3.778   4.562  17.754  0.00  0.00    +0.000 NA
ATOM     20  C   UNL     1       4.306   3.702  16.944  0.00  0.00    +0.000 C 
BRANCH  20  21
ATOM     21  C   UNL     1       5.340   4.094  15.968  0.00  0.00    +0.000 A 
ATOM     22  C   UNL     1       6.433   4.871  16.365  0.00  0.00    +0.000 A 
ATOM     23  C   UNL     1       7.359   5.304  15.414  0.00  0.00    +0.000 A 
ATOM     24  C   UNL     1       7.193   4.949  14.076  0.00  0.00    +0.000 A 
ATOM     25 CL   UNL     1       8.309   5.522  12.898  0.00  0.00    +0.000 Cl
ATOM     26  C   UNL     1       6.123   4.145  13.682  0.00  0.00    +0.000 A 
ATOM     27  C   UNL     1       5.191   3.714  14.630  0.00  0.00    +0.000 A 
ENDBRANCH  20  21
ENDBRANCH   6  19
TORSDOF 6
ENDMDL
MODEL 2
REMARK VINA RESULT:      -8.1      0.287      1.008
REMARK  Name = 
REMARK  6 active torsions:
REMARK  status: ('A' for Active; 'I' for Inactive)
REMARK    1  A    between atoms: C_2  and  N_3
REMARK    2  A    between atoms: C_2  and  N_10
REMARK    3  A    between atoms: N_3  and  C_4
REMARK    4  A    between atoms: N_10  and  C_11
REMARK    5  A    between atoms: C_16  and  N_17
REMARK    6  A    between atoms: C_18  and  C_19
REMARK                            x       y       z     vdW  Elec       q    Type
REMARK                         _______ _______ _______ _____ _____    ______ ____
ROOT
ATOM      1  C   UNL     1       2.474   4.903  19.968  0.00  0.00    +0.000 A 
ATOM      2  C   UNL     1       1.618   4.388  20.956  0.00  0.00    +0.000 A 
ATOM      3  C   UNL     1       1.096   3.103  20.840  0.00  0.00    +0.000 A 
ATOM      4  C   UNL     1       1.448   2.309  19.750  0.00  0.00    +0.000 A 
ATOM      5  C   UNL     1       2.299   2.812  18.769  0.00  0.00    +0.000 A 
ATOM      6  C   UNL     1       2.817   4.116  18.848  0.00  0.00    +0.000 A 
ENDROOT
BRANCH   1   7
ATOM      7  N   UNL     1       2.911   6.244  20.019  0.00  0.00    +0.000 N 
ATOM      8  H   UNL     1       3.920   6.354  20.042  0.00  0.00    +0.000 HD
BRANCH   7  10
ATOM      9  S   UNL     1       2.239   8.078  18.326  0.00  0.00    +0.000 S 
ATOM     10  C   UNL     1       2.190   7.405  19.856  0.00  0.00    +0.000 C 
BRANCH  10  11
ATOM     11  N   UNL     1       1.603   7.870  21.011  0.00  0.00    +0.000 N 
ATOM     12  H   UNL     1       1.636   7.195  21.766  0.00  0.00    +0.000 HD
BRANCH  11  13
ATOM     13  C   UNL     1       0.903   9.053  21.334  0.00  0.00    +0.000 A 
ATOM     14  C   UNL     1       0.327   9.102  22.613  0.00  0.00    +0.000 A 
ATOM     15  C   UNL     1      -0.504  10.162  22.988  0.00  0.00    +0.000 A 
ATOM     16  C   UNL     1      -0.745  11.202  22.096  0.00  0.00    +0.000 A 
ATOM     17  C   UNL     1      -0.135  11.190  20.846  0.00  0.00    +0.000 A 
ATOM     18  C   UNL     1       0.684  10.122  20.469  0.00  0.00    +0.000 A 
ENDBRANCH  11  13
ENDBRANCH  10  11
ENDBRANCH   7  10
ENDBRANCH   1   7
BRANCH   6  19
ATOM     19  N   UNL     1       3.606   4.567  17.769  0.00  0.00    +0.000 NA
ATOM     20  C   UNL     1       4.548   3.812  17.302  0.00  0.00    +0.000 C 
BRANCH  20  21
ATOM     21  C   UNL     1       5.390   4.239  16.168  0.00  0.00    +0.000 A 
ATOM     22  C   UNL     1       5.072   3.852  14.863  0.00  0.00    +0.000 A 
ATOM     23  C   UNL     1       5.924   4.194  13.811  0.00  0.00    +0.000 A 
ATOM     24  C   UNL     1       7.080   4.929  14.068  0.00  0.00    +0.000 A 
ATOM     25 CL   UNL     1       8.152   5.310  12.778  0.00  0.00    +0.000 Cl
ATOM     26  C   UNL     1       7.382   5.348  15.365  0.00  0.00    +0.000 A 
ATOM     27  C   UNL     1       6.534   5.002  16.421  0.00  0.00    +0.000 A 
ENDBRANCH  20  21
ENDBRANCH   6  19
TORSDOF 6
ENDMDL
MODEL 3
REMARK VINA RESULT:      -7.9      3.932      6.599
REMARK  Name = 
REMARK  6 active torsions:
REMARK  status: ('A' for Active; 'I' for Inactive)
REMARK    1  A    between atoms: C_2  and  N_3
REMARK    2  A    between atoms: C_2  and  N_10
REMARK    3  A    between atoms: N_3  and  C_4
REMARK    4  A    between atoms: N_10  and  C_11
REMARK    5  A    between atoms: C_16  and  N_17
REMARK    6  A    between atoms: C_18  and  C_19
REMARK                            x       y       z     vdW  Elec       q    Type
REMARK                         _______ _______ _______ _____ _____    ______ ____
ROOT
ATOM      1  C   UNL     1       6.992   5.042  14.605  0.00  0.00    +0.000 A 
ATOM      2  C   UNL     1       7.638   5.118  13.360  0.00  0.00    +0.000 A 
ATOM      3  C   UNL     1       7.195   4.352  12.285  0.00  0.00    +0.000 A 
ATOM      4  C   UNL     1       6.084   3.524  12.437  0.00  0.00    +0.000 A 
ATOM      5  C   UNL     1       5.436   3.447  13.668  0.00  0.00    +0.000 A 
ATOM      6  C   UNL     1       5.881   4.189  14.776  0.00  0.00    +0.000 A 
ENDROOT
BRANCH   1   7
ATOM      7  N   UNL     1       7.507   5.725  15.728  0.00  0.00    +0.000 N 
ATOM      8  H   UNL     1       8.267   6.363  15.516  0.00  0.00    +0.000 HD
BRANCH   7  10
ATOM      9  S   UNL     1       7.675   4.703  18.097  0.00  0.00    +0.000 S 
ATOM     10  C   UNL     1       7.015   5.791  17.012  0.00  0.00    +0.000 C 
BRANCH  10  11
ATOM     11  N   UNL     1       5.993   6.697  17.176  0.00  0.00    +0.000 N 
ATOM     12  H   UNL     1       6.189   7.593  16.745  0.00  0.00    +0.000 HD
BRANCH  11  13
ATOM     13  C   UNL     1       4.770   6.662  17.883  0.00  0.00    +0.000 A 
ATOM     14  C   UNL     1       3.719   7.419  17.341  0.00  0.00    +0.000 A 
ATOM     15  C   UNL     1       2.511   7.569  18.028  0.00  0.00    +0.000 A 
ATOM     16  C   UNL     1       2.329   6.939  19.254  0.00  0.00    +0.000 A 
ATOM     17  C   UNL     1       3.344   6.143  19.775  0.00  0.00    +0.000 A 
ATOM     18  C   UNL     1       4.556   6.006  19.092  0.00  0.00    +0.000 A 
ENDBRANCH  11  13
ENDBRANCH  10  11
ENDBRANCH   7  10
ENDBRANCH   1   7
BRANCH   6  19
ATOM     19  N   UNL     1       5.213   3.987  16.002  0.00  0.00    +0.000 NA
ATOM     20  C   UNL     1       4.032   3.456  16.010  0.00  0.00    +0.000 C 
BRANCH  20  21
ATOM     21  C   UNL     1       3.302   3.216  17.270  0.00  0.00    +0.000 A 
ATOM     22  C   UNL     1       1.989   3.669  17.426  0.00  0.00    +0.000 A 
ATOM     23  C   UNL     1       1.341   3.509  18.653  0.00  0.00    +0.000 A 
ATOM     24  C   UNL     1       2.005   2.889  19.710  0.00  0.00    +0.000 A 
ATOM     25 CL   UNL     1       1.222   2.733  21.234  0.00  0.00    +0.000 Cl
ATOM     26  C   UNL     1       3.303   2.404  19.547  0.00  0.00    +0.000 A 
ATOM     27  C   UNL     1       3.957   2.567  18.322  0.00  0.00    +0.000 A 
ENDBRANCH  20  21
ENDBRANCH   6  19
TORSDOF 6
ENDMDL
MODEL 4
REMARK VINA RESULT:      -7.9      4.227      6.485
REMARK  Name = 
REMARK  6 active torsions:
REMARK  status: ('A' for Active; 'I' for Inactive)
REMARK    1  A    between atoms: C_2  and  N_3
REMARK    2  A    between atoms: C_2  and  N_10
REMARK    3  A    between atoms: N_3  and  C_4
REMARK    4  A    between atoms: N_10  and  C_11
REMARK    5  A    between atoms: C_16  and  N_17
REMARK    6  A    between atoms: C_18  and  C_19
REMARK                            x       y       z     vdW  Elec       q    Type
REMARK                         _______ _______ _______ _____ _____    ______ ____
ROOT
ATOM      1  C   UNL     1       5.233   6.357  17.177  0.00  0.00    +0.000 A 
ATOM      2  C   UNL     1       4.707   5.301  16.415  0.00  0.00    +0.000 A 
ATOM      3  C   UNL     1       5.545   4.322  15.889  0.00  0.00    +0.000 A 
ATOM      4  C   UNL     1       6.915   4.375  16.144  0.00  0.00    +0.000 A 
ATOM      5  C   UNL     1       7.443   5.416  16.903  0.00  0.00    +0.000 A 
ATOM      6  C   UNL     1       6.621   6.432  17.421  0.00  0.00    +0.000 A 
ENDROOT
BRANCH   1   7
ATOM      7  N   UNL     1       4.405   7.414  17.613  0.00  0.00    +0.000 N 
ATOM      8  H   UNL     1       4.712   8.335  17.316  0.00  0.00    +0.000 HD
BRANCH   7  10
ATOM      9  S   UNL     1       2.084   8.545  17.733  0.00  0.00    +0.000 S 
ATOM     10  C   UNL     1       3.167   7.364  18.212  0.00  0.00    +0.000 C 
BRANCH  10  11
ATOM     11  N   UNL     1       3.045   6.387  19.173  0.00  0.00    +0.000 N 
ATOM     12  H   UNL     1       3.693   6.511  19.942  0.00  0.00    +0.000 HD
BRANCH  11  13
ATOM     13  C   UNL     1       2.264   5.214  19.270  0.00  0.00    +0.000 A 
ATOM     14  C   UNL     1       1.892   4.823  20.566  0.00  0.00    +0.000 A 
ATOM     15  C   UNL     1       1.240   3.607  20.792  0.00  0.00    +0.000 A 
ATOM     16  C   UNL     1       0.927   2.779  19.719  0.00  0.00    +0.000 A 
ATOM     17  C   UNL     1       1.243   3.183  18.426  0.00  0.00    +0.000 A 
ATOM     18  C   UNL     1       1.908   4.393  18.204  0.00  0.00    +0.000 A 
ENDBRANCH  11  13
ENDBRANCH  10  11
ENDBRANCH   7  10
ENDBRANCH   1   7
BRANCH   6  19
ATOM     19  N   UNL     1       7.253   7.489  18.109  0.00  0.00    +0.000 NA
ATOM     20  C   UNL     1       7.700   8.509  17.449  0.00  0.00    +0.000 C 
BRANCH  20  21
ATOM     21  C   UNL     1       8.357   9.642  18.130  0.00  0.00    +0.000 A 
ATOM     22  C   UNL     1       8.284  10.931  17.593  0.00  0.00    +0.000 A 
ATOM     23  C   UNL     1       8.980  11.976  18.202  0.00  0.00    +0.000 A 
ATOM     24  C   UNL     1       9.733  11.730  19.349  0.00  0.00    +0.000 A 
ATOM     25 CL   UNL     1      10.627  13.009  20.073  0.00  0.00    +0.000 Cl
ATOM     26  C   UNL     1       9.779  10.452  19.908  0.00  0.00    +0.000 A 
ATOM     27  C   UNL     1       9.088   9.401  19.297  0.00  0.00    +0.000 A 
ENDBRANCH  20  21
ENDBRANCH   6  19
TORSDOF 6
ENDMDL
MODEL 5
REMARK VINA RESULT:      -7.9      1.099      1.128
REMARK  Name = 
REMARK  6 active torsions:
REMARK  status: ('A' for Active; 'I' for Inactive)
REMARK    1  A    between atoms: C_2  and  N_3
REMARK    2  A    between atoms: C_2  and  N_10
REMARK    3  A    between atoms: N_3  and  C_4
REMARK    4  A    between atoms: N_10  and  C_11
REMARK    5  A    between atoms: C_16  and  N_17
REMARK    6  A    between atoms: C_18  and  C_19
REMARK                            x       y       z     vdW  Elec       q    Type
REMARK                         _______ _______ _______ _____ _____    ______ ____
ROOT
ATOM      1  C   UNL     1       2.381   4.632  19.848  0.00  0.00    +0.000 A 
ATOM      2  C   UNL     1       1.775   4.388  21.092  0.00  0.00    +0.000 A 
ATOM      3  C   UNL     1       2.068   3.230  21.807  0.00  0.00    +0.000 A 
ATOM      4  C   UNL     1       2.992   2.319  21.298  0.00  0.00    +0.000 A 
ATOM      5  C   UNL     1       3.600   2.557  20.068  0.00  0.00    +0.000 A 
ATOM      6  C   UNL     1       3.300   3.704  19.314  0.00  0.00    +0.000 A 
ENDROOT
BRANCH   1   7
ATOM      7  N   UNL     1       2.000   5.743  19.066  0.00  0.00    +0.000 N 
ATOM      8  H   UNL     1       1.247   5.556  18.411  0.00  0.00    +0.000 HD
BRANCH   7  10
ATOM      9  S   UNL     1       3.173   7.719  17.880  0.00  0.00    +0.000 S 
ATOM     10  C   UNL     1       2.365   7.065  19.190  0.00  0.00    +0.000 C 
BRANCH  10  11
ATOM     11  N   UNL     1       2.070   7.617  20.415  0.00  0.00    +0.000 N 
ATOM     12  H   UNL     1       2.499   7.116  21.185  0.00  0.00    +0.000 HD
BRANCH  11  13
ATOM     13  C   UNL     1       1.237   8.682  20.824  0.00  0.00    +0.000 A 
ATOM     14  C   UNL     1       1.069   8.841  22.209  0.00  0.00    +0.000 A 
ATOM     15  C   UNL     1       0.159   9.771  22.721  0.00  0.00    +0.000 A 
ATOM     16  C   UNL     1      -0.573  10.574  21.853  0.00  0.00    +0.000 A 
ATOM     17  C   UNL     1      -0.373  10.463  20.481  0.00  0.00    +0.000 A 
ATOM     18  C   UNL     1       0.526   9.522  19.971  0.00  0.00    +0.000 A 
ENDBRANCH  11  13
ENDBRANCH  10  11
ENDBRANCH   7  10
ENDBRANCH   1   7
BRANCH   6  19
ATOM     19  N   UNL     1       3.903   3.822  18.044  0.00  0.00    +0.000 NA
ATOM     20  C   UNL     1       5.105   4.291  17.945  0.00  0.00    +0.000 C 
BRANCH  20  21
ATOM     21  C   UNL     1       5.778   4.421  16.638  0.00  0.00    +0.000 A 
ATOM     22  C   UNL     1       7.081   4.923  16.558  0.00  0.00    +0.000 A 
ATOM     23  C   UNL     1       7.673   5.119  15.309  0.00  0.00    +0.000 A 
ATOM     24  C   UNL     1       6.965   4.801  14.150  0.00  0.00    +0.000 A 
ATOM     25 CL   UNL     1       7.679   5.085  12.611  0.00  0.00    +0.000 Cl
ATOM     26  C   UNL     1       5.678   4.267  14.228  0.00  0.00    +0.000 A 
ATOM     27  C   UNL     1       5.080   4.075  15.477  0.00  0.00    +0.000 A 
ENDBRANCH  20  21
ENDBRANCH   6  19
TORSDOF 6
ENDMDL
MODEL 6
REMARK VINA RESULT:      -7.9      4.220      6.513
REMARK  Name = 
REMARK  6 active torsions:
REMARK  status: ('A' for Active; 'I' for Inactive)
REMARK    1  A    between atoms: C_2  and  N_3
REMARK    2  A    between atoms: C_2  and  N_10
REMARK    3  A    between atoms: N_3  and  C_4
REMARK    4  A    between atoms: N_10  and  C_11
REMARK    5  A    between atoms: C_16  and  N_17
REMARK    6  A    between atoms: C_18  and  C_19
REMARK                            x       y       z     vdW  Elec       q    Type
REMARK                         _______ _______ _______ _____ _____    ______ ____
ROOT
ATOM      1  C   UNL     1       5.083   6.267  16.947  0.00  0.00    +0.000 A 
ATOM      2  C   UNL     1       4.747   4.976  16.508  0.00  0.00    +0.000 A 
ATOM      3  C   UNL     1       5.736   4.090  16.092  0.00  0.00    +0.000 A 
ATOM      4  C   UNL     1       7.075   4.477  16.138  0.00  0.00    +0.000 A 
ATOM      5  C   UNL     1       7.416   5.754  16.576  0.00  0.00    +0.000 A 
ATOM      6  C   UNL     1       6.434   6.677  16.974  0.00  0.00    +0.000 A 
ENDROOT
BRANCH   1   7
ATOM      7  N   UNL     1       4.078   7.209  17.257  0.00  0.00    +0.000 N 
ATOM      8  H   UNL     1       3.928   7.911  16.540  0.00  0.00    +0.000 HD
BRANCH   7  10
ATOM      9  S   UNL     1       1.906   8.296  18.142  0.00  0.00    +0.000 S 
ATOM     10  C   UNL     1       3.162   7.201  18.285  0.00  0.00    +0.000 C 
BRANCH  10  11
ATOM     11  N   UNL     1       3.475   6.340  19.311  0.00  0.00    +0.000 N 
ATOM     12  H   UNL     1       4.345   6.578  19.772  0.00  0.00    +0.000 HD
BRANCH  11  13
ATOM     13  C   UNL     1       2.877   5.157  19.800  0.00  0.00    +0.000 A 
ATOM     14  C   UNL     1       3.635   3.982  19.677  0.00  0.00    +0.000 A 
ATOM     15  C   UNL     1       3.089   2.736  19.998  0.00  0.00    +0.000 A 
ATOM     16  C   UNL     1       1.785   2.653  20.474  0.00  0.00    +0.000 A 
ATOM     17  C   UNL     1       1.044   3.817  20.651  0.00  0.00    +0.000 A 
ATOM     18  C   UNL     1       1.587   5.061  20.316  0.00  0.00    +0.000 A 
ENDBRANCH  11  13
ENDBRANCH  10  11
ENDBRANCH   7  10
ENDBRANCH   1   7
BRANCH   6  19
ATOM     19  N   UNL     1       6.866   7.973  17.326  0.00  0.00    +0.000 NA
ATOM     20  C   UNL     1       8.019   8.134  17.891  0.00  0.00    +0.000 C 
BRANCH  20  21
ATOM     21  C   UNL     1       8.515   9.472  18.265  0.00  0.00    +0.000 A 
ATOM     22  C   UNL     1       9.252   9.653  19.440  0.00  0.00    +0.000 A 
ATOM     23  C   UNL     1       9.642  10.938  19.823  0.00  0.00    +0.000 A 
ATOM     24  C   UNL     1       9.304  12.030  19.026  0.00  0.00    +0.000 A 
ATOM     25 CL   UNL     1       9.746  13.617  19.522  0.00  0.00    +0.000 Cl
ATOM     26  C   UNL     1       8.599  11.849  17.835  0.00  0.00    +0.000 A 
ATOM     27  C   UNL     1       8.201  10.565  17.451  0.00  0.00    +0.000 A 
ENDBRANCH  20  21
ENDBRANCH   6  19
TORSDOF 6
ENDMDL
MODEL 7
REMARK VINA RESULT:      -7.8      3.269      8.462
REMARK  Name = 
REMARK  6 active torsions:
REMARK  status: ('A' for Active; 'I' for Inactive)
REMARK    1  A    between atoms: C_2  and  N_3
REMARK    2  A    between atoms: C_2  and  N_10
REMARK    3  A    between atoms: N_3  and  C_4
REMARK    4  A    between atoms: N_10  and  C_11
REMARK    5  A    between atoms: C_16  and  N_17
REMARK    6  A    between atoms: C_18  and  C_19
REMARK                            x       y       z     vdW  Elec       q    Type
REMARK                         _______ _______ _______ _____ _____    ______ ____
ROOT
ATOM      1  C   UNL     1       4.138   4.853  17.454  0.00  0.00    +0.000 A 
ATOM      2  C   UNL     1       4.372   3.471  17.361  0.00  0.00    +0.000 A 
ATOM      3  C   UNL     1       3.379   2.560  17.712  0.00  0.00    +0.000 A 
ATOM      4  C   UNL     1       2.133   3.023  18.131  0.00  0.00    +0.000 A 
ATOM      5  C   UNL     1       1.893   4.392  18.222  0.00  0.00    +0.000 A 
ATOM      6  C   UNL     1       2.887   5.331  17.901  0.00  0.00    +0.000 A 
ENDROOT
BRANCH   1   7
ATOM      7  N   UNL     1       5.176   5.778  17.214  0.00  0.00    +0.000 N 
ATOM      8  H   UNL     1       4.944   6.738  17.450  0.00  0.00    +0.000 HD
BRANCH   7  10
ATOM      9  S   UNL     1       7.488   5.120  18.165  0.00  0.00    +0.000 S 
ATOM     10  C   UNL     1       6.494   5.547  16.890  0.00  0.00    +0.000 C 
BRANCH  10  11
ATOM     11  N   UNL     1       6.799   5.784  15.570  0.00  0.00    +0.000 N 
ATOM     12  H   UNL     1       7.080   6.742  15.397  0.00  0.00    +0.000 HD
BRANCH  11  13
ATOM     13  C   UNL     1       6.727   4.993  14.401  0.00  0.00    +0.000 A 
ATOM     14  C   UNL     1       7.679   5.268  13.407  0.00  0.00    +0.000 A 
ATOM     15  C   UNL     1       7.615   4.645  12.157  0.00  0.00    +0.000 A 
ATOM     16  C   UNL     1       6.613   3.716  11.896  0.00  0.00    +0.000 A 
ATOM     17  C   UNL     1       5.698   3.396  12.893  0.00  0.00    +0.000 A 
ATOM     18  C   UNL     1       5.755   4.031  14.138  0.00  0.00    +0.000 A 
ENDBRANCH  11  13
ENDBRANCH  10  11
ENDBRANCH   7  10
ENDBRANCH   1   7
BRANCH   6  19
ATOM     19  N   UNL     1       2.581   6.694  18.099  0.00  0.00    +0.000 NA
ATOM     20  C   UNL     1       1.973   7.065  19.180  0.00  0.00    +0.000 C 
BRANCH  20  21
ATOM     21  C   UNL     1       1.643   8.481  19.432  0.00  0.00    +0.000 A 
ATOM     22  C   UNL     1       1.213   8.895  20.697  0.00  0.00    +0.000 A 
ATOM     23  C   UNL     1       0.825  10.221  20.899  0.00  0.00    +0.000 A 
ATOM     24  C   UNL     1       0.880  11.126  19.840  0.00  0.00    +0.000 A 
ATOM     25 CL   UNL     1       0.358  12.748  20.078  0.00  0.00    +0.000 Cl
ATOM     26  C   UNL     1       1.342  10.725  18.586  0.00  0.00    +0.000 A 
ATOM     27  C   UNL     1       1.726   9.397  18.378  0.00  0.00    +0.000 A 
ENDBRANCH  20  21
ENDBRANCH   6  19
TORSDOF 6
ENDMDL
MODEL 8
REMARK VINA RESULT:      -7.8      3.747      6.355
REMARK  Name = 
REMARK  6 active torsions:
REMARK  status: ('A' for Active; 'I' for Inactive)
REMARK    1  A    between atoms: C_2  and  N_3
REMARK    2  A    between atoms: C_2  and  N_10
REMARK    3  A    between atoms: N_3  and  C_4
REMARK    4  A    between atoms: N_10  and  C_11
REMARK    5  A    between atoms: C_16  and  N_17
REMARK    6  A    between atoms: C_18  and  C_19
REMARK                            x       y       z     vdW  Elec       q    Type
REMARK                         _______ _______ _______ _____ _____    ______ ____
ROOT
ATOM      1  C   UNL     1       6.889   4.979  15.286  0.00  0.00    +0.000 A 
ATOM      2  C   UNL     1       7.502   5.237  14.049  0.00  0.00    +0.000 A 
ATOM      3  C   UNL     1       7.070   4.590  12.895  0.00  0.00    +0.000 A 
ATOM      4  C   UNL     1       5.999   3.699  12.962  0.00  0.00    +0.000 A 
ATOM      5  C   UNL     1       5.383   3.441  14.184  0.00  0.00    +0.000 A 
ATOM      6  C   UNL     1       5.820   4.060  15.368  0.00  0.00    +0.000 A 
ENDROOT
BRANCH   1   7
ATOM      7  N   UNL     1       7.398   5.541  16.476  0.00  0.00    +0.000 N 
ATOM      8  H   UNL     1       8.362   5.292  16.677  0.00  0.00    +0.000 HD
BRANCH   7  10
ATOM      9  S   UNL     1       7.712   7.939  17.388  0.00  0.00    +0.000 S 
ATOM     10  C   UNL     1       6.852   6.509  17.289  0.00  0.00    +0.000 C 
BRANCH  10  11
ATOM     11  N   UNL     1       5.717   6.109  17.955  0.00  0.00    +0.000 N 
ATOM     12  H   UNL     1       5.770   5.150  18.280  0.00  0.00    +0.000 HD
BRANCH  11  13
ATOM     13  C   UNL     1       4.474   6.729  18.211  0.00  0.00    +0.000 A 
ATOM     14  C   UNL     1       3.804   6.318  19.374  0.00  0.00    +0.000 A 
ATOM     15  C   UNL     1       2.508   6.760  19.653  0.00  0.00    +0.000 A 
ATOM     16  C   UNL     1       1.875   7.642  18.783  0.00  0.00    +0.000 A 
ATOM     17  C   UNL     1       2.550   8.097  17.655  0.00  0.00    +0.000 A 
ATOM     18  C   UNL     1       3.841   7.642  17.371  0.00  0.00    +0.000 A 
ENDBRANCH  11  13
ENDBRANCH  10  11
ENDBRANCH   7  10
ENDBRANCH   1   7
BRANCH   6  19
ATOM     19  N   UNL     1       5.189   3.678  16.571  0.00  0.00    +0.000 NA
ATOM     20  C   UNL     1       3.898   3.709  16.657  0.00  0.00    +0.000 C 
BRANCH  20  21
ATOM     21  C   UNL     1       3.197   3.307  17.892  0.00  0.00    +0.000 A 
ATOM     22  C   UNL     1       1.813   3.472  18.008  0.00  0.00    +0.000 A 
ATOM     23  C   UNL     1       1.177   3.166  19.212  0.00  0.00    +0.000 A 
ATOM     24  C   UNL     1       1.924   2.686  20.286  0.00  0.00    +0.000 A 
ATOM     25 CL   UNL     1       1.145   2.353  21.784  0.00  0.00    +0.000 Cl
ATOM     26  C   UNL     1       3.299   2.487  20.163  0.00  0.00    +0.000 A 
ATOM     27  C   UNL     1       3.941   2.798  18.961  0.00  0.00    +0.000 A 
ENDBRANCH  20  21
ENDBRANCH   6  19
TORSDOF 6
ENDMDL
MODEL 9
REMARK VINA RESULT:      -7.7      3.309      6.139
REMARK  Name = 
REMARK  6 active torsions:
REMARK  status: ('A' for Active; 'I' for Inactive)
REMARK    1  A    between atoms: C_2  and  N_3
REMARK    2  A    between atoms: C_2  and  N_10
REMARK    3  A    between atoms: N_3  and  C_4
REMARK    4  A    between atoms: N_10  and  C_11
REMARK    5  A    between atoms: C_16  and  N_17
REMARK    6  A    between atoms: C_18  and  C_19
REMARK                            x       y       z     vdW  Elec       q    Type
REMARK                         _______ _______ _______ _____ _____    ______ ____
ROOT
ATOM      1  C   UNL     1       0.682  10.643  21.008  0.00  0.00    +0.000 A 
ATOM      2  C   UNL     1      -0.132  11.607  21.626  0.00  0.00    +0.000 A 
ATOM      3  C   UNL     1      -0.873  11.287  22.760  0.00  0.00    +0.000 A 
ATOM      4  C   UNL     1      -0.785  10.006  23.304  0.00  0.00    +0.000 A 
ATOM      5  C   UNL     1       0.022   9.047  22.699  0.00  0.00    +0.000 A 
ATOM      6  C   UNL     1       0.758   9.337  21.538  0.00  0.00    +0.000 A 
ENDROOT
BRANCH   1   7
ATOM      7  N   UNL     1       1.342  10.927  19.794  0.00  0.00    +0.000 N 
ATOM      8  H   UNL     1       2.265  11.335  19.905  0.00  0.00    +0.000 HD
BRANCH   7  10
ATOM      9  S   UNL     1       1.990   9.423  17.794  0.00  0.00    +0.000 S 
ATOM     10  C   UNL     1       1.002  10.567  18.509  0.00  0.00    +0.000 C 
BRANCH  10  11
ATOM     11  N   UNL     1      -0.060  11.270  17.990  0.00  0.00    +0.000 N 
ATOM     12  H   UNL     1       0.221  12.144  17.560  0.00  0.00    +0.000 HD
BRANCH  11  13
ATOM     13  C   UNL     1      -1.457  11.064  17.999  0.00  0.00    +0.000 A 
ATOM     14  C   UNL     1      -1.933  10.009  17.206  0.00  0.00    +0.000 A 
ATOM     15  C   UNL     1      -3.305   9.802  17.031  0.00  0.00    +0.000 A 
ATOM     16  C   UNL     1      -4.218  10.634  17.671  0.00  0.00    +0.000 A 
ATOM     17  C   UNL     1      -3.757  11.649  18.501  0.00  0.00    +0.000 A 
ATOM     18  C   UNL     1      -2.385  11.863  18.664  0.00  0.00    +0.000 A 
ENDBRANCH  11  13
ENDBRANCH  10  11
ENDBRANCH   7  10
ENDBRANCH   1   7
BRANCH   6  19
ATOM     19  N   UNL     1       1.485   8.281  20.949  0.00  0.00    +0.000 NA
ATOM     20  C   UNL     1       1.063   7.064  21.072  0.00  0.00    +0.000 C 
BRANCH  20  21
ATOM     21  C   UNL     1       1.786   5.931  20.463  0.00  0.00    +0.000 A 
ATOM     22  C   UNL     1       2.941   6.150  19.707  0.00  0.00    +0.000 A 
ATOM     23  C   UNL     1       3.567   5.078  19.068  0.00  0.00    +0.000 A 
ATOM     24  C   UNL     1       3.041   3.793  19.199  0.00  0.00    +0.000 A 
ATOM     25 CL   UNL     1       3.786   2.479  18.374  0.00  0.00    +0.000 Cl
ATOM     26  C   UNL     1       1.909   3.565  19.982  0.00  0.00    +0.000 A 
ATOM     27  C   UNL     1       1.276   4.637  20.618  0.00  0.00    +0.000 A 
ENDBRANCH  20  21
ENDBRANCH   6  19
TORSDOF 6
ENDMDL
