MODEL 1
REMARK VINA RESULT:      -8.3      0.000      0.000
REMARK  Name = 
REMARK  9 active torsions:
REMARK  status: ('A' for Active; 'I' for Inactive)
REMARK    1  A    between atoms: C_1  and  O_2
REMARK    2  A    between atoms: O_2  and  C_3
REMARK    3  A    between atoms: C_7  and  C_8
REMARK    4  A    between atoms: C_8  and  C_9
REMARK    5  A    between atoms: C_9  and  C_10
REMARK    6  A    between atoms: C_10  and  O_11
REMARK    7  A    between atoms: N_15  and  C_16
REMARK    8  A    between atoms: C_16  and  C_17
REMARK    9  A    between atoms: N_20  and  C_21
REMARK                            x       y       z     vdW  Elec       q    Type
REMARK                         _______ _______ _______ _____ _____    ______ ____
ROOT
ATOM      1  C   UNL     1       3.075   3.154  18.716  0.00  0.00    +0.000 C 
ATOM      2  C   UNL     1       1.820   2.298  19.038  0.00  0.00    +0.000 C 
ATOM      3  C   UNL     1       0.576   3.079  19.468  0.00  0.00    +0.000 C 
ATOM      4  C   UNL     1       0.876   4.252  20.400  0.00  0.00    +0.000 C 
ATOM      5  N   UNL     1       1.898   5.118  19.796  0.00  0.00    +0.000 NA
ATOM      6  C   UNL     1       3.162   4.347  19.719  0.00  0.00    +0.000 C 
ENDROOT
BRANCH   1   7
ATOM      7  C   UNL     1       3.073   3.764  17.272  0.00  0.00    +0.000 C 
BRANCH   7  12
ATOM      8  C   UNL     1       5.985   6.138  16.591  0.00  0.00    +0.000 A 
ATOM      9  C   UNL     1       6.806   5.360  15.776  0.00  0.00    +0.000 A 
ATOM     10  C   UNL     1       6.427   4.066  15.431  0.00  0.00    +0.000 A 
ATOM     11  C   UNL     1       5.215   3.543  15.893  0.00  0.00    +0.000 A 
ATOM     12  C   UNL     1       4.364   4.316  16.699  0.00  0.00    +0.000 A 
ATOM     13  C   UNL     1       4.772   5.613  17.048  0.00  0.00    +0.000 A 
BRANCH   8  15
ATOM     14  C   UNL     1       7.637   7.423  17.706  0.00  0.00    +0.000 C 
ATOM     15  O   UNL     1       6.478   7.380  16.883  0.00  0.00    +0.000 OA
ENDBRANCH   8  15
ENDBRANCH   7  12
ENDBRANCH   1   7
BRANCH   1  16
ATOM     16  C   UNL     1       4.311   2.240  18.930  0.00  0.00    +0.000 C 
BRANCH  16  17
ATOM     17  O   UNL     1       5.360   2.889  19.634  0.00  0.00    +0.000 OA
ATOM     18  H   UNL     1       5.788   3.517  19.031  0.00  0.00    +0.000 HD
ENDBRANCH  16  17
ENDBRANCH   1  16
BRANCH   5  19
ATOM     19  C   UNL     1       2.114   6.353  20.574  0.00  0.00    +0.000 C 
BRANCH  19  20
ATOM     20  C   UNL     1       1.942   7.590  19.747  0.00  0.00    +0.000 A 
ATOM     21  C   UNL     1       2.377   7.792  18.423  0.00  0.00    +0.000 A 
ATOM     22  N   UNL     1       2.026   8.979  17.927  0.00  0.00    +0.000 NA
ATOM     23  N   UNL     1       1.346   9.587  18.935  0.00  0.00    +0.000 N 
ATOM     24  C   UNL     1       1.286   8.770  20.048  0.00  0.00    +0.000 A 
BRANCH  23  25
ATOM     25  C   UNL     1       0.791  10.888  18.758  0.00  0.00    +0.000 A 
ATOM     26  C   UNL     1      -0.599  11.040  18.630  0.00  0.00    +0.000 A 
ATOM     27  C   UNL     1      -1.163  12.309  18.471  0.00  0.00    +0.000 A 
ATOM     28  C   UNL     1      -0.344  13.436  18.430  0.00  0.00    +0.000 A 
ATOM     29  C   UNL     1       1.038  13.294  18.549  0.00  0.00    +0.000 A 
ATOM     30  C   UNL     1       1.608  12.026  18.713  0.00  0.00    +0.000 A 
ENDBRANCH  23  25
ENDBRANCH  19  20
ENDBRANCH   5  19
TORSDOF 8
ENDMDL
MODEL 2
REMARK VINA RESULT:      -8.2      0.667      1.103
REMARK  Name = 
REMARK  9 active torsions:
REMARK  status: ('A' for Active; 'I' for Inactive)
REMARK    1  A    between atoms: C_1  and  O_2
REMARK    2  A    between atoms: O_2  and  C_3
REMARK    3  A    between atoms: C_7  and  C_8
REMARK    4  A    between atoms: C_8  and  C_9
REMARK    5  A    between atoms: C_9  and  C_10
REMARK    6  A    between atoms: C_10  and  O_11
REMARK    7  A    between atoms: N_15  and  C_16
REMARK    8  A    between atoms: C_16  and  C_17
REMARK    9  A    between atoms: N_20  and  C_21
REMARK                            x       y       z     vdW  Elec       q    Type
REMARK                         _______ _______ _______ _____ _____    ______ ____
ROOT
ATOM      1  C   UNL     1       3.498   3.827  18.924  0.00  0.00    +0.000 C 
ATOM      2  C   UNL     1       2.477   2.674  19.130  0.00  0.00    +0.000 C 
ATOM      3  C   UNL     1       1.061   3.104  19.518  0.00  0.00    +0.000 C 
ATOM      4  C   UNL     1       1.019   4.256  20.520  0.00  0.00    +0.000 C 
ATOM      5  N   UNL     1       1.824   5.379  20.020  0.00  0.00    +0.000 NA
ATOM      6  C   UNL     1       3.241   4.944  19.985  0.00  0.00    +0.000 C 
ENDROOT
BRANCH   1   7
ATOM      7  C   UNL     1       3.416   4.502  17.513  0.00  0.00    +0.000 C 
BRANCH   7  12
ATOM      8  C   UNL     1       6.755   5.865  16.258  0.00  0.00    +0.000 A 
ATOM      9  C   UNL     1       7.102   4.928  15.288  0.00  0.00    +0.000 A 
ATOM     10  C   UNL     1       6.261   3.852  15.020  0.00  0.00    +0.000 A 
ATOM     11  C   UNL     1       5.058   3.711  15.720  0.00  0.00    +0.000 A 
ATOM     12  C   UNL     1       4.680   4.654  16.689  0.00  0.00    +0.000 A 
ATOM     13  C   UNL     1       5.549   5.723  16.954  0.00  0.00    +0.000 A 
BRANCH   8  15
ATOM     14  C   UNL     1       7.683   7.476  17.731  0.00  0.00    +0.000 C 
ATOM     15  O   UNL     1       7.674   6.860  16.450  0.00  0.00    +0.000 OA
ENDBRANCH   8  15
ENDBRANCH   7  12
ENDBRANCH   1   7
BRANCH   1  16
ATOM     16  C   UNL     1       4.909   3.229  19.171  0.00  0.00    +0.000 C 
BRANCH  16  17
ATOM     17  O   UNL     1       4.866   1.969  19.825  0.00  0.00    +0.000 OA
ATOM     18  H   UNL     1       4.711   2.122  20.770  0.00  0.00    +0.000 HD
ENDBRANCH  16  17
ENDBRANCH   1  16
BRANCH   5  19
ATOM     19  C   UNL     1       1.694   6.581  20.865  0.00  0.00    +0.000 C 
BRANCH  19  20
ATOM     20  C   UNL     1       1.632   7.844  20.061  0.00  0.00    +0.000 A 
ATOM     21  C   UNL     1       2.166   8.058  18.775  0.00  0.00    +0.000 A 
ATOM     22  N   UNL     1       1.901   9.271  18.288  0.00  0.00    +0.000 NA
ATOM     23  N   UNL     1       1.180   9.884  19.264  0.00  0.00    +0.000 N 
ATOM     24  C   UNL     1       1.008   9.045  20.348  0.00  0.00    +0.000 A 
BRANCH  23  25
ATOM     25  C   UNL     1       0.695  11.213  19.085  0.00  0.00    +0.000 A 
ATOM     26  C   UNL     1       1.574  12.222  18.657  0.00  0.00    +0.000 A 
ATOM     27  C   UNL     1       1.114  13.527  18.462  0.00  0.00    +0.000 A 
ATOM     28  C   UNL     1      -0.223  13.839  18.698  0.00  0.00    +0.000 A 
ATOM     29  C   UNL     1      -1.101  12.845  19.130  0.00  0.00    +0.000 A 
ATOM     30  C   UNL     1      -0.648  11.535  19.323  0.00  0.00    +0.000 A 
ENDBRANCH  23  25
ENDBRANCH  19  20
ENDBRANCH   5  19
TORSDOF 8
ENDMDL
MODEL 3
REMARK VINA RESULT:      -7.9      1.005      1.592
REMARK  Name = 
REMARK  9 active torsions:
REMARK  status: ('A' for Active; 'I' for Inactive)
REMARK    1  A    between atoms: C_1  and  O_2
REMARK    2  A    between atoms: O_2  and  C_3
REMARK    3  A    between atoms: C_7  and  C_8
REMARK    4  A    between atoms: C_8  and  C_9
REMARK    5  A    between atoms: C_9  and  C_10
REMARK    6  A    between atoms: C_10  and  O_11
REMARK    7  A    between atoms: N_15  and  C_16
REMARK    8  A    between atoms: C_16  and  C_17
REMARK    9  A    between atoms: N_20  and  C_21
REMARK                            x       y       z     vdW  Elec       q    Type
REMARK                         _______ _______ _______ _____ _____    ______ ____
ROOT
ATOM      1  C   UNL     1       3.261   2.867  18.832  0.00  0.00    +0.000 C 
ATOM      2  C   UNL     1       1.951   2.034  18.888  0.00  0.00    +0.000 C 
ATOM      3  C   UNL     1       0.672   2.829  19.161  0.00  0.00    +0.000 C 
ATOM      4  C   UNL     1       0.841   3.930  20.206  0.00  0.00    +0.000 C 
ATOM      5  N   UNL     1       1.967   4.798  19.835  0.00  0.00    +0.000 NA
ATOM      6  C   UNL     1       3.209   3.992  19.913  0.00  0.00    +0.000 C 
ENDROOT
BRANCH   1   7
ATOM      7  C   UNL     1       3.509   3.564  17.451  0.00  0.00    +0.000 C 
BRANCH   7  12
ATOM      8  C   UNL     1       6.704   4.888  15.830  0.00  0.00    +0.000 A 
ATOM      9  C   UNL     1       7.089   5.885  16.724  0.00  0.00    +0.000 A 
ATOM     10  C   UNL     1       6.329   6.137  17.863  0.00  0.00    +0.000 A 
ATOM     11  C   UNL     1       5.179   5.383  18.119  0.00  0.00    +0.000 A 
ATOM     12  C   UNL     1       4.784   4.361  17.241  0.00  0.00    +0.000 A 
ATOM     13  C   UNL     1       5.555   4.133  16.091  0.00  0.00    +0.000 A 
BRANCH   8  15
ATOM     14  C   UNL     1       6.874   4.430  13.510  0.00  0.00    +0.000 C 
ATOM     15  O   UNL     1       7.514   4.755  14.736  0.00  0.00    +0.000 OA
ENDBRANCH   8  15
ENDBRANCH   7  12
ENDBRANCH   1   7
BRANCH   1  16
ATOM     16  C   UNL     1       4.424   1.901  19.182  0.00  0.00    +0.000 C 
BRANCH  16  17
ATOM     17  O   UNL     1       4.861   2.030  20.528  0.00  0.00    +0.000 OA
ATOM     18  H   UNL     1       4.127   2.388  21.052  0.00  0.00    +0.000 HD
ENDBRANCH  16  17
ENDBRANCH   1  16
BRANCH   5  19
ATOM     19  C   UNL     1       2.081   5.974  20.718  0.00  0.00    +0.000 C 
BRANCH  19  20
ATOM     20  C   UNL     1       1.928   7.267  19.975  0.00  0.00    +0.000 A 
ATOM     21  C   UNL     1       2.396   7.560  18.679  0.00  0.00    +0.000 A 
ATOM     22  N   UNL     1       2.057   8.779  18.259  0.00  0.00    +0.000 NA
ATOM     23  N   UNL     1       1.352   9.316  19.290  0.00  0.00    +0.000 N 
ATOM     24  C   UNL     1       1.265   8.424  20.342  0.00  0.00    +0.000 A 
BRANCH  23  25
ATOM     25  C   UNL     1       0.802  10.627  19.191  0.00  0.00    +0.000 A 
ATOM     26  C   UNL     1      -0.519  10.860  19.609  0.00  0.00    +0.000 A 
ATOM     27  C   UNL     1      -1.071  12.142  19.533  0.00  0.00    +0.000 A 
ATOM     28  C   UNL     1      -0.314  13.201  19.034  0.00  0.00    +0.000 A 
ATOM     29  C   UNL     1       0.995  12.977  18.611  0.00  0.00    +0.000 A 
ATOM     30  C   UNL     1       1.556  11.696  18.687  0.00  0.00    +0.000 A 
ENDBRANCH  23  25
ENDBRANCH  19  20
ENDBRANCH   5  19
TORSDOF 8
ENDMDL
MODEL 4
REMARK VINA RESULT:      -7.8      1.163      1.321
REMARK  Name = 
REMARK  9 active torsions:
REMARK  status: ('A' for Active; 'I' for Inactive)
REMARK    1  A    between atoms: C_1  and  O_2
REMARK    2  A    between atoms: O_2  and  C_3
REMARK    3  A    between atoms: C_7  and  C_8
REMARK    4  A    between atoms: C_8  and  C_9
REMARK    5  A    between atoms: C_9  and  C_10
REMARK    6  A    between atoms: C_10  and  O_11
REMARK    7  A    between atoms: N_15  and  C_16
REMARK    8  A    between atoms: C_16  and  C_17
REMARK    9  A    between atoms: N_20  and  C_21
REMARK                            x       y       z     vdW  Elec       q    Type
REMARK                         _______ _______ _______ _____ _____    ______ ____
ROOT
ATOM      1  C   UNL     1       3.213   2.755  18.961  0.00  0.00    +0.000 C 
ATOM      2  C   UNL     1       1.839   2.039  19.063  0.00  0.00    +0.000 C 
ATOM      3  C   UNL     1       0.625   2.954  19.233  0.00  0.00    +0.000 C 
ATOM      4  C   UNL     1       0.866   4.131  20.177  0.00  0.00    +0.000 C 
ATOM      5  N   UNL     1       2.065   4.868  19.754  0.00  0.00    +0.000 NA
ATOM      6  C   UNL     1       3.236   3.976  19.934  0.00  0.00    +0.000 C 
ENDROOT
BRANCH   1   7
ATOM      7  C   UNL     1       3.539   3.300  17.529  0.00  0.00    +0.000 C 
BRANCH   7  12
ATOM      8  C   UNL     1       6.878   5.113  17.922  0.00  0.00    +0.000 A 
ATOM      9  C   UNL     1       6.745   6.160  17.012  0.00  0.00    +0.000 A 
ATOM     10  C   UNL     1       5.577   6.300  16.269  0.00  0.00    +0.000 A 
ATOM     11  C   UNL     1       4.525   5.392  16.438  0.00  0.00    +0.000 A 
ATOM     12  C   UNL     1       4.631   4.341  17.362  0.00  0.00    +0.000 A 
ATOM     13  C   UNL     1       5.823   4.209  18.091  0.00  0.00    +0.000 A 
BRANCH   8  15
ATOM     14  C   UNL     1       8.097   5.540  19.910  0.00  0.00    +0.000 C 
ATOM     15  O   UNL     1       8.081   5.065  18.570  0.00  0.00    +0.000 OA
ENDBRANCH   8  15
ENDBRANCH   7  12
ENDBRANCH   1   7
BRANCH   1  16
ATOM     16  C   UNL     1       4.288   1.736  19.425  0.00  0.00    +0.000 C 
BRANCH  16  17
ATOM     17  O   UNL     1       4.407   0.624  18.549  0.00  0.00    +0.000 OA
ATOM     18  H   UNL     1       5.332   0.560  18.264  0.00  0.00    +0.000 HD
ENDBRANCH  16  17
ENDBRANCH   1  16
BRANCH   5  19
ATOM     19  C   UNL     1       2.261   6.108  20.529  0.00  0.00    +0.000 C 
BRANCH  19  20
ATOM     20  C   UNL     1       2.048   7.340  19.703  0.00  0.00    +0.000 A 
ATOM     21  C   UNL     1       2.493   7.565  18.386  0.00  0.00    +0.000 A 
ATOM     22  N   UNL     1       2.100   8.738  17.889  0.00  0.00    +0.000 NA
ATOM     23  N   UNL     1       1.382   9.314  18.890  0.00  0.00    +0.000 N 
ATOM     24  C   UNL     1       1.341   8.491  19.999  0.00  0.00    +0.000 A 
BRANCH  23  25
ATOM     25  C   UNL     1       0.777  10.592  18.710  0.00  0.00    +0.000 A 
ATOM     26  C   UNL     1      -0.604  10.680  18.468  0.00  0.00    +0.000 A 
ATOM     27  C   UNL     1      -1.217  11.925  18.303  0.00  0.00    +0.000 A 
ATOM     28  C   UNL     1      -0.459  13.092  18.371  0.00  0.00    +0.000 A 
ATOM     29  C   UNL     1       0.914  13.014  18.603  0.00  0.00    +0.000 A 
ATOM     30  C   UNL     1       1.534  11.770  18.773  0.00  0.00    +0.000 A 
ENDBRANCH  23  25
ENDBRANCH  19  20
ENDBRANCH   5  19
TORSDOF 8
ENDMDL
MODEL 5
REMARK VINA RESULT:      -7.7      1.492      2.291
REMARK  Name = 
REMARK  9 active torsions:
REMARK  status: ('A' for Active; 'I' for Inactive)
REMARK    1  A    between atoms: C_1  and  O_2
REMARK    2  A    between atoms: O_2  and  C_3
REMARK    3  A    between atoms: C_7  and  C_8
REMARK    4  A    between atoms: C_8  and  C_9
REMARK    5  A    between atoms: C_9  and  C_10
REMARK    6  A    between atoms: C_10  and  O_11
REMARK    7  A    between atoms: N_15  and  C_16
REMARK    8  A    between atoms: C_16  and  C_17
REMARK    9  A    between atoms: N_20  and  C_21
REMARK                            x       y       z     vdW  Elec       q    Type
REMARK                         _______ _______ _______ _____ _____    ______ ____
ROOT
ATOM      1  C   UNL     1       4.142   3.410  19.230  0.00  0.00    +0.000 C 
ATOM      2  C   UNL     1       3.291   2.850  18.057  0.00  0.00    +0.000 C 
ATOM      3  C   UNL     1       2.351   3.852  17.383  0.00  0.00    +0.000 C 
ATOM      4  C   UNL     1       1.652   4.796  18.359  0.00  0.00    +0.000 C 
ATOM      5  N   UNL     1       2.651   5.456  19.212  0.00  0.00    +0.000 NA
ATOM      6  C   UNL     1       3.285   4.418  20.059  0.00  0.00    +0.000 C 
ENDROOT
BRANCH   1   7
ATOM      7  C   UNL     1       5.432   4.170  18.769  0.00  0.00    +0.000 C 
BRANCH   7  12
ATOM      8  C   UNL     1       5.976   4.128  14.989  0.00  0.00    +0.000 A 
ATOM      9  C   UNL     1       5.634   5.431  14.635  0.00  0.00    +0.000 A 
ATOM     10  C   UNL     1       5.233   6.341  15.609  0.00  0.00    +0.000 A 
ATOM     11  C   UNL     1       5.179   5.952  16.952  0.00  0.00    +0.000 A 
ATOM     12  C   UNL     1       5.538   4.649  17.333  0.00  0.00    +0.000 A 
ATOM     13  C   UNL     1       5.925   3.743  16.334  0.00  0.00    +0.000 A 
BRANCH   8  15
ATOM     14  C   UNL     1       6.451   3.950  12.673  0.00  0.00    +0.000 C 
ATOM     15  O   UNL     1       6.325   3.321  13.941  0.00  0.00    +0.000 OA
ENDBRANCH   8  15
ENDBRANCH   7  12
ENDBRANCH   1   7
BRANCH   1  16
ATOM     16  C   UNL     1       4.503   2.205  20.139  0.00  0.00    +0.000 C 
BRANCH  16  17
ATOM     17  O   UNL     1       4.778   1.022  19.402  0.00  0.00    +0.000 OA
ATOM     18  H   UNL     1       4.006   0.439  19.467  0.00  0.00    +0.000 HD
ENDBRANCH  16  17
ENDBRANCH   1  16
BRANCH   5  19
ATOM     19  C   UNL     1       2.054   6.499  20.068  0.00  0.00    +0.000 C 
BRANCH  19  20
ATOM     20  C   UNL     1       1.927   7.816  19.363  0.00  0.00    +0.000 A 
ATOM     21  C   UNL     1       2.387   8.133  18.071  0.00  0.00    +0.000 A 
ATOM     22  N   UNL     1       2.076   9.373  17.689  0.00  0.00    +0.000 NA
ATOM     23  N   UNL     1       1.398   9.898  18.744  0.00  0.00    +0.000 N 
ATOM     24  C   UNL     1       1.300   8.979  19.771  0.00  0.00    +0.000 A 
BRANCH  23  25
ATOM     25  C   UNL     1       0.883  11.226  18.690  0.00  0.00    +0.000 A 
ATOM     26  C   UNL     1       1.769  12.315  18.642  0.00  0.00    +0.000 A 
ATOM     27  C   UNL     1       1.282  13.624  18.573  0.00  0.00    +0.000 A 
ATOM     28  C   UNL     1      -0.091  13.858  18.559  0.00  0.00    +0.000 A 
ATOM     29  C   UNL     1      -0.978  12.784  18.614  0.00  0.00    +0.000 A 
ATOM     30  C   UNL     1      -0.498  11.470  18.678  0.00  0.00    +0.000 A 
ENDBRANCH  23  25
ENDBRANCH  19  20
ENDBRANCH   5  19
TORSDOF 8
ENDMDL
MODEL 6
REMARK VINA RESULT:      -7.7      2.041      2.712
REMARK  Name = 
REMARK  9 active torsions:
REMARK  status: ('A' for Active; 'I' for Inactive)
REMARK    1  A    between atoms: C_1  and  O_2
REMARK    2  A    between atoms: O_2  and  C_3
REMARK    3  A    between atoms: C_7  and  C_8
REMARK    4  A    between atoms: C_8  and  C_9
REMARK    5  A    between atoms: C_9  and  C_10
REMARK    6  A    between atoms: C_10  and  O_11
REMARK    7  A    between atoms: N_15  and  C_16
REMARK    8  A    between atoms: C_16  and  C_17
REMARK    9  A    between atoms: N_20  and  C_21
REMARK                            x       y       z     vdW  Elec       q    Type
REMARK                         _______ _______ _______ _____ _____    ______ ____
ROOT
ATOM      1  C   UNL     1       3.979   3.023  19.066  0.00  0.00    +0.000 C 
ATOM      2  C   UNL     1       3.106   2.724  17.816  0.00  0.00    +0.000 C 
ATOM      3  C   UNL     1       2.023   3.758  17.501  0.00  0.00    +0.000 C 
ATOM      4  C   UNL     1       1.305   4.296  18.737  0.00  0.00    +0.000 C 
ATOM      5  N   UNL     1       2.290   4.798  19.705  0.00  0.00    +0.000 NA
ATOM      6  C   UNL     1       3.086   3.644  20.187  0.00  0.00    +0.000 C 
ENDROOT
BRANCH   1   7
ATOM      7  C   UNL     1       5.148   4.030  18.796  0.00  0.00    +0.000 C 
BRANCH   7  12
ATOM      8  C   UNL     1       5.994   4.173  15.075  0.00  0.00    +0.000 A 
ATOM      9  C   UNL     1       5.629   5.477  14.747  0.00  0.00    +0.000 A 
ATOM     10  C   UNL     1       5.114   6.327  15.721  0.00  0.00    +0.000 A 
ATOM     11  C   UNL     1       4.969   5.878  17.038  0.00  0.00    +0.000 A 
ATOM     12  C   UNL     1       5.349   4.574  17.394  0.00  0.00    +0.000 A 
ATOM     13  C   UNL     1       5.852   3.728  16.394  0.00  0.00    +0.000 A 
BRANCH   8  15
ATOM     14  C   UNL     1       5.958   3.760  12.740  0.00  0.00    +0.000 C 
ATOM     15  O   UNL     1       6.460   3.427  14.027  0.00  0.00    +0.000 OA
ENDBRANCH   8  15
ENDBRANCH   7  12
ENDBRANCH   1   7
BRANCH   1  16
ATOM     16  C   UNL     1       4.525   1.660  19.570  0.00  0.00    +0.000 C 
BRANCH  16  17
ATOM     17  O   UNL     1       4.408   0.628  18.601  0.00  0.00    +0.000 OA
ATOM     18  H   UNL     1       5.056  -0.062  18.814  0.00  0.00    +0.000 HD
ENDBRANCH  16  17
ENDBRANCH   1  16
BRANCH   5  19
ATOM     19  C   UNL     1       1.653   5.476  20.850  0.00  0.00    +0.000 C 
BRANCH  19  20
ATOM     20  C   UNL     1       1.534   6.956  20.647  0.00  0.00    +0.000 A 
ATOM     21  C   UNL     1       1.973   7.697  19.532  0.00  0.00    +0.000 A 
ATOM     22  N   UNL     1       1.675   8.994  19.610  0.00  0.00    +0.000 NA
ATOM     23  N   UNL     1       1.028   9.129  20.798  0.00  0.00    +0.000 N 
ATOM     24  C   UNL     1       0.935   7.912  21.447  0.00  0.00    +0.000 A 
BRANCH  23  25
ATOM     25  C   UNL     1       0.534  10.398  21.218  0.00  0.00    +0.000 A 
ATOM     26  C   UNL     1       0.994  11.567  20.588  0.00  0.00    +0.000 A 
ATOM     27  C   UNL     1       0.509  12.819  20.976  0.00  0.00    +0.000 A 
ATOM     28  C   UNL     1      -0.430  12.918  22.000  0.00  0.00    +0.000 A 
ATOM     29  C   UNL     1      -0.886  11.764  22.637  0.00  0.00    +0.000 A 
ATOM     30  C   UNL     1      -0.409  10.506  22.250  0.00  0.00    +0.000 A 
ENDBRANCH  23  25
ENDBRANCH  19  20
ENDBRANCH   5  19
TORSDOF 8
ENDMDL
MODEL 7
REMARK VINA RESULT:      -7.6      0.744      1.368
REMARK  Name = 
REMARK  9 active torsions:
REMARK  status: ('A' for Active; 'I' for Inactive)
REMARK    1  A    between atoms: C_1  and  O_2
REMARK    2  A    between atoms: O_2  and  C_3
REMARK    3  A    between atoms: C_7  and  C_8
REMARK    4  A    between atoms: C_8  and  C_9
REMARK    5  A    between atoms: C_9  and  C_10
REMARK    6  A    between atoms: C_10  and  O_11
REMARK    7  A    between atoms: N_15  and  C_16
REMARK    8  A    between atoms: C_16  and  C_17
REMARK    9  A    between atoms: N_20  and  C_21
REMARK                            x       y       z     vdW  Elec       q    Type
REMARK                         _______ _______ _______ _____ _____    ______ ____
ROOT
ATOM      1  C   UNL     1       3.043   3.032  18.632  0.00  0.00    +0.000 C 
ATOM      2  C   UNL     1       1.662   2.442  19.030  0.00  0.00    +0.000 C 
ATOM      3  C   UNL     1       0.612   3.459  19.483  0.00  0.00    +0.000 C 
ATOM      4  C   UNL     1       1.172   4.573  20.364  0.00  0.00    +0.000 C 
ATOM      5  N   UNL     1       2.313   5.211  19.693  0.00  0.00    +0.000 NA
ATOM      6  C   UNL     1       3.401   4.210  19.591  0.00  0.00    +0.000 C 
ENDROOT
BRANCH   1   7
ATOM      7  C   UNL     1       3.092   3.595  17.170  0.00  0.00    +0.000 C 
BRANCH   7  12
ATOM      8  C   UNL     1       5.930   6.084  16.586  0.00  0.00    +0.000 A 
ATOM      9  C   UNL     1       6.823   5.329  15.829  0.00  0.00    +0.000 A 
ATOM     10  C   UNL     1       6.519   4.013  15.491  0.00  0.00    +0.000 A 
ATOM     11  C   UNL     1       5.309   3.445  15.903  0.00  0.00    +0.000 A 
ATOM     12  C   UNL     1       4.386   4.194  16.651  0.00  0.00    +0.000 A 
ATOM     13  C   UNL     1       4.718   5.513  16.993  0.00  0.00    +0.000 A 
BRANCH   8  15
ATOM     14  C   UNL     1       7.571   7.461  17.601  0.00  0.00    +0.000 C 
ATOM     15  O   UNL     1       6.353   7.351  16.877  0.00  0.00    +0.000 OA
ENDBRANCH   8  15
ENDBRANCH   7  12
ENDBRANCH   1   7
BRANCH   1  16
ATOM     16  C   UNL     1       4.089   1.902  18.826  0.00  0.00    +0.000 C 
BRANCH  16  17
ATOM     17  O   UNL     1       5.037   2.199  19.842  0.00  0.00    +0.000 OA
ATOM     18  H   UNL     1       5.688   2.818  19.478  0.00  0.00    +0.000 HD
ENDBRANCH  16  17
ENDBRANCH   1  16
BRANCH   5  19
ATOM     19  C   UNL     1       2.797   6.400  20.421  0.00  0.00    +0.000 C 
BRANCH  19  20
ATOM     20  C   UNL     1       1.822   7.537  20.376  0.00  0.00    +0.000 A 
ATOM     21  C   UNL     1       0.816   7.830  21.317  0.00  0.00    +0.000 A 
ATOM     22  N   UNL     1       0.140   8.945  21.038  0.00  0.00    +0.000 NA
ATOM     23  N   UNL     1       0.698   9.408  19.888  0.00  0.00    +0.000 N 
ATOM     24  C   UNL     1       1.713   8.572  19.464  0.00  0.00    +0.000 A 
BRANCH  23  25
ATOM     25  C   UNL     1       0.236  10.616  19.289  0.00  0.00    +0.000 A 
ATOM     26  C   UNL     1       1.103  11.717  19.186  0.00  0.00    +0.000 A 
ATOM     27  C   UNL     1       0.672  12.905  18.589  0.00  0.00    +0.000 A 
ATOM     28  C   UNL     1      -0.628  13.009  18.097  0.00  0.00    +0.000 A 
ATOM     29  C   UNL     1      -1.497  11.924  18.203  0.00  0.00    +0.000 A 
ATOM     30  C   UNL     1      -1.072  10.729  18.796  0.00  0.00    +0.000 A 
ENDBRANCH  23  25
ENDBRANCH  19  20
ENDBRANCH   5  19
TORSDOF 8
ENDMDL
MODEL 8
REMARK VINA RESULT:      -7.5      2.110      3.010
REMARK  Name = 
REMARK  9 active torsions:
REMARK  status: ('A' for Active; 'I' for Inactive)
REMARK    1  A    between atoms: C_1  and  O_2
REMARK    2  A    between atoms: O_2  and  C_3
REMARK    3  A    between atoms: C_7  and  C_8
REMARK    4  A    between atoms: C_8  and  C_9
REMARK    5  A    between atoms: C_9  and  C_10
REMARK    6  A    between atoms: C_10  and  O_11
REMARK    7  A    between atoms: N_15  and  C_16
REMARK    8  A    between atoms: C_16  and  C_17
REMARK    9  A    between atoms: N_20  and  C_21
REMARK                            x       y       z     vdW  Elec       q    Type
REMARK                         _______ _______ _______ _____ _____    ______ ____
ROOT
ATOM      1  C   UNL     1       5.344   4.546  17.470  0.00  0.00    +0.000 C 
ATOM      2  C   UNL     1       4.723   3.122  17.427  0.00  0.00    +0.000 C 
ATOM      3  C   UNL     1       3.227   3.041  17.734  0.00  0.00    +0.000 C 
ATOM      4  C   UNL     1       2.779   3.960  18.870  0.00  0.00    +0.000 C 
ATOM      5  N   UNL     1       3.219   5.336  18.597  0.00  0.00    +0.000 NA
ATOM      6  C   UNL     1       4.701   5.358  18.638  0.00  0.00    +0.000 C 
ENDROOT
BRANCH   1   7
ATOM      7  C   UNL     1       5.123   5.372  16.157  0.00  0.00    +0.000 C 
BRANCH   7  12
ATOM      8  C   UNL     1       5.818   3.690  12.799  0.00  0.00    +0.000 A 
ATOM      9  C   UNL     1       7.058   4.227  12.459  0.00  0.00    +0.000 A 
ATOM     10  C   UNL     1       7.688   5.130  13.311  0.00  0.00    +0.000 A 
ATOM     11  C   UNL     1       7.082   5.496  14.517  0.00  0.00    +0.000 A 
ATOM     12  C   UNL     1       5.842   4.953  14.888  0.00  0.00    +0.000 A 
ATOM     13  C   UNL     1       5.217   4.055  14.008  0.00  0.00    +0.000 A 
BRANCH   8  15
ATOM     14  C   UNL     1       4.067   3.240  11.265  0.00  0.00    +0.000 C 
ATOM     15  O   UNL     1       5.288   2.838  11.870  0.00  0.00    +0.000 OA
ENDBRANCH   8  15
ENDBRANCH   7  12
ENDBRANCH   1   7
BRANCH   1  16
ATOM     16  C   UNL     1       6.857   4.370  17.767  0.00  0.00    +0.000 C 
BRANCH  16  17
ATOM     17  O   UNL     1       7.244   4.943  19.008  0.00  0.00    +0.000 OA
ATOM     18  H   UNL     1       7.885   5.649  18.829  0.00  0.00    +0.000 HD
ENDBRANCH  16  17
ENDBRANCH   1  16
BRANCH   5  19
ATOM     19  C   UNL     1       2.680   6.299  19.577  0.00  0.00    +0.000 C 
BRANCH  19  20
ATOM     20  C   UNL     1       2.344   7.621  18.956  0.00  0.00    +0.000 A 
ATOM     21  C   UNL     1       2.665   8.052  17.654  0.00  0.00    +0.000 A 
ATOM     22  N   UNL     1       2.181   9.260  17.363  0.00  0.00    +0.000 NA
ATOM     23  N   UNL     1       1.526   9.649  18.489  0.00  0.00    +0.000 N 
ATOM     24  C   UNL     1       1.614   8.678  19.469  0.00  0.00    +0.000 A 
BRANCH  23  25
ATOM     25  C   UNL     1       0.852  10.904  18.543  0.00  0.00    +0.000 A 
ATOM     26  C   UNL     1      -0.552  10.942  18.500  0.00  0.00    +0.000 A 
ATOM     27  C   UNL     1      -1.231  12.162  18.567  0.00  0.00    +0.000 A 
ATOM     28  C   UNL     1      -0.516  13.354  18.668  0.00  0.00    +0.000 A 
ATOM     29  C   UNL     1       0.877  13.326  18.704  0.00  0.00    +0.000 A 
ATOM     30  C   UNL     1       1.564  12.108  18.642  0.00  0.00    +0.000 A 
ENDBRANCH  23  25
ENDBRANCH  19  20
ENDBRANCH   5  19
TORSDOF 8
ENDMDL
MODEL 9
REMARK VINA RESULT:      -7.4      2.129      2.964
REMARK  Name = 
REMARK  9 active torsions:
REMARK  status: ('A' for Active; 'I' for Inactive)
REMARK    1  A    between atoms: C_1  and  O_2
REMARK    2  A    between atoms: O_2  and  C_3
REMARK    3  A    between atoms: C_7  and  C_8
REMARK    4  A    between atoms: C_8  and  C_9
REMARK    5  A    between atoms: C_9  and  C_10
REMARK    6  A    between atoms: C_10  and  O_11
REMARK    7  A    between atoms: N_15  and  C_16
REMARK    8  A    between atoms: C_16  and  C_17
REMARK    9  A    between atoms: N_20  and  C_21
REMARK                            x       y       z     vdW  Elec       q    Type
REMARK                         _______ _______ _______ _____ _____    ______ ____
ROOT
ATOM      1  C   UNL     1       2.684   3.967  20.016  0.00  0.00    +0.000 C 
ATOM      2  C   UNL     1       1.470   3.387  19.241  0.00  0.00    +0.000 C 
ATOM      3  C   UNL     1       1.296   3.891  17.807  0.00  0.00    +0.000 C 
ATOM      4  C   UNL     1       1.578   5.383  17.639  0.00  0.00    +0.000 C 
ATOM      5  N   UNL     1       2.905   5.702  18.185  0.00  0.00    +0.000 NA
ATOM      6  C   UNL     1       2.863   5.474  19.649  0.00  0.00    +0.000 C 
ENDROOT
BRANCH   1   7
ATOM      7  C   UNL     1       4.040   3.250  19.698  0.00  0.00    +0.000 C 
BRANCH   7  12
ATOM      8  C   UNL     1       5.835   4.261  16.481  0.00  0.00    +0.000 A 
ATOM      9  C   UNL     1       6.745   5.209  16.945  0.00  0.00    +0.000 A 
ATOM     10  C   UNL     1       6.796   5.528  18.299  0.00  0.00    +0.000 A 
ATOM     11  C   UNL     1       5.940   4.890  19.203  0.00  0.00    +0.000 A 
ATOM     12  C   UNL     1       5.029   3.918  18.760  0.00  0.00    +0.000 A 
ATOM     13  C   UNL     1       4.983   3.622  17.389  0.00  0.00    +0.000 A 
BRANCH   8  15
ATOM     14  C   UNL     1       6.805   4.818  14.391  0.00  0.00    +0.000 C 
ATOM     15  O   UNL     1       5.860   4.055  15.130  0.00  0.00    +0.000 OA
ENDBRANCH   8  15
ENDBRANCH   7  12
ENDBRANCH   1   7
BRANCH   1  16
ATOM     16  C   UNL     1       2.345   3.865  21.527  0.00  0.00    +0.000 C 
BRANCH  16  17
ATOM     17  O   UNL     1       2.627   2.583  22.069  0.00  0.00    +0.000 OA
ATOM     18  H   UNL     1       3.233   2.125  21.466  0.00  0.00    +0.000 HD
ENDBRANCH  16  17
ENDBRANCH   1  16
BRANCH   5  19
ATOM     19  C   UNL     1       3.303   7.095  17.909  0.00  0.00    +0.000 C 
BRANCH  19  20
ATOM     20  C   UNL     1       2.330   8.091  18.464  0.00  0.00    +0.000 A 
ATOM     21  C   UNL     1       1.549   9.009  17.736  0.00  0.00    +0.000 A 
ATOM     22  N   UNL     1       0.728   9.728  18.502  0.00  0.00    +0.000 NA
ATOM     23  N   UNL     1       0.963   9.288  19.767  0.00  0.00    +0.000 N 
ATOM     24  C   UNL     1       1.931   8.302  19.772  0.00  0.00    +0.000 A 
BRANCH  23  25
ATOM     25  C   UNL     1       0.239   9.826  20.871  0.00  0.00    +0.000 A 
ATOM     26  C   UNL     1       0.282   9.174  22.115  0.00  0.00    +0.000 A 
ATOM     27  C   UNL     1      -0.409   9.694  23.212  0.00  0.00    +0.000 A 
ATOM     28  C   UNL     1      -1.155  10.863  23.078  0.00  0.00    +0.000 A 
ATOM     29  C   UNL     1      -1.210  11.513  21.846  0.00  0.00    +0.000 A 
ATOM     30  C   UNL     1      -0.516  11.000  20.743  0.00  0.00    +0.000 A 
ENDBRANCH  23  25
ENDBRANCH  19  20
ENDBRANCH   5  19
TORSDOF 8
ENDMDL
