MODEL 1
REMARK VINA RESULT:      -7.0      0.000      0.000
REMARK  Name = 
REMARK  8 active torsions:
REMARK  status: ('A' for Active; 'I' for Inactive)
REMARK    1  A    between atoms: C_1  and  C_2
REMARK    2  A    between atoms: C_2  and  C_3
REMARK    3  A    between atoms: C_3  and  N_4
REMARK    4  A    between atoms: C_5  and  S_6
REMARK    5  A    between atoms: S_6  and  C_7
REMARK    6  A    between atoms: C_7  and  C_8
REMARK    7  A    between atoms: N_10  and  C_11
REMARK    8  A    between atoms: C_19  and  C_20
REMARK                            x       y       z     vdW  Elec       q    Type
REMARK                         _______ _______ _______ _____ _____    ______ ____
ROOT
ATOM      1  N   UNL     1       5.178   4.028  17.757  0.00  0.00    +0.000 N 
ATOM      2  C   UNL     1       4.568   3.088  18.552  0.00  0.00    +0.000 A 
ATOM      3  N   UNL     1       4.918   3.276  19.803  0.00  0.00    +0.000 NA
ATOM      4  N   UNL     1       5.743   4.376  19.850  0.00  0.00    +0.000 NA
ATOM      5  C   UNL     1       5.897   4.830  18.621  0.00  0.00    +0.000 A 
ENDROOT
BRANCH   5   6
ATOM      6  C   UNL     1       6.656   5.998  18.277  0.00  0.00    +0.000 A 
ATOM      7  C   UNL     1       6.386   6.940  17.294  0.00  0.00    +0.000 A 
ATOM      8  C   UNL     1       7.433   7.895  17.320  0.00  0.00    +0.000 A 
ATOM      9  C   UNL     1       8.276   7.504  18.329  0.00  0.00    +0.000 A 
ATOM     10  O   UNL     1       7.825   6.361  18.898  0.00  0.00    +0.000 OA
ENDBRANCH   5   6
BRANCH   1  11
ATOM     11  C   UNL     1       5.009   4.265  16.337  0.00  0.00    +0.000 C 
BRANCH  11  13
ATOM     12  C   UNL     1       6.002   4.093  13.995  0.00  0.00    +0.000 C 
ATOM     13  C   UNL     1       6.161   3.756  15.467  0.00  0.00    +0.000 C 
ENDBRANCH  11  13
ENDBRANCH   1  11
BRANCH   2  14
ATOM     14  S   UNL     1       3.463   1.868  17.992  0.00  0.00    +0.000 S 
BRANCH  14  15
ATOM     15  C   UNL     1       1.881   2.519  18.625  0.00  0.00    +0.000 C 
BRANCH  15  16
ATOM     16  C   UNL     1       1.649   3.991  18.301  0.00  0.00    +0.000 C 
ATOM     17  O   UNL     1       1.031   4.313  17.289  0.00  0.00    +0.000 OA
ATOM     18  N   UNL     1       2.086   4.929  19.225  0.00  0.00    +0.000 N 
ATOM     19  H   UNL     1       2.496   4.609  20.095  0.00  0.00    +0.000 HD
BRANCH  18  20
ATOM     20  C   UNL     1       1.848   6.348  19.007  0.00  0.00    +0.000 C 
ATOM     21  C   UNL     1       2.845   6.995  18.042  0.00  0.00    +0.000 C 
ATOM     22  C   UNL     1       2.354   8.403  17.687  0.00  0.00    +0.000 C 
ATOM     23  C   UNL     1       2.105   9.272  18.923  0.00  0.00    +0.000 C 
ATOM     24  C   UNL     1       1.323   8.563  20.033  0.00  0.00    +0.000 C 
ATOM     25  C   UNL     1       1.847   7.154  20.311  0.00  0.00    +0.000 C 
ENDBRANCH  18  20
ENDBRANCH  15  16
ENDBRANCH  14  15
ENDBRANCH   2  14
TORSDOF 7
ENDMDL
MODEL 2
REMARK VINA RESULT:      -7.0      1.915      3.055
REMARK  Name = 
REMARK  8 active torsions:
REMARK  status: ('A' for Active; 'I' for Inactive)
REMARK    1  A    between atoms: C_1  and  C_2
REMARK    2  A    between atoms: C_2  and  C_3
REMARK    3  A    between atoms: C_3  and  N_4
REMARK    4  A    between atoms: C_5  and  S_6
REMARK    5  A    between atoms: S_6  and  C_7
REMARK    6  A    between atoms: C_7  and  C_8
REMARK    7  A    between atoms: N_10  and  C_11
REMARK    8  A    between atoms: C_19  and  C_20
REMARK                            x       y       z     vdW  Elec       q    Type
REMARK                         _______ _______ _______ _____ _____    ______ ____
ROOT
ATOM      1  N   UNL     1       4.032   3.567  18.656  0.00  0.00    +0.000 N 
ATOM      2  C   UNL     1       2.915   2.932  19.144  0.00  0.00    +0.000 A 
ATOM      3  N   UNL     1       2.028   2.803  18.184  0.00  0.00    +0.000 NA
ATOM      4  N   UNL     1       2.572   3.325  17.034  0.00  0.00    +0.000 NA
ATOM      5  C   UNL     1       3.777   3.781  17.316  0.00  0.00    +0.000 A 
ENDROOT
BRANCH   5   6
ATOM      6  C   UNL     1       4.672   4.357  16.354  0.00  0.00    +0.000 A 
ATOM      7  C   UNL     1       5.622   3.716  15.571  0.00  0.00    +0.000 A 
ATOM      8  C   UNL     1       6.272   4.706  14.793  0.00  0.00    +0.000 A 
ATOM      9  C   UNL     1       5.675   5.897  15.121  0.00  0.00    +0.000 A 
ATOM     10  O   UNL     1       4.725   5.699  16.065  0.00  0.00    +0.000 OA
ENDBRANCH   5   6
BRANCH   1  11
ATOM     11  C   UNL     1       5.291   3.833  19.324  0.00  0.00    +0.000 C 
BRANCH  11  13
ATOM     12  C   UNL     1       7.054   5.617  18.866  0.00  0.00    +0.000 C 
ATOM     13  C   UNL     1       5.666   5.315  19.404  0.00  0.00    +0.000 C 
ENDBRANCH  11  13
ENDBRANCH   1  11
BRANCH   2  14
ATOM     14  S   UNL     1       2.727   2.347  20.770  0.00  0.00    +0.000 S 
BRANCH  14  15
ATOM     15  C   UNL     1       2.384   3.902  21.658  0.00  0.00    +0.000 C 
BRANCH  15  16
ATOM     16  C   UNL     1       1.736   4.976  20.789  0.00  0.00    +0.000 C 
ATOM     17  O   UNL     1       0.573   4.853  20.416  0.00  0.00    +0.000 OA
ATOM     18  N   UNL     1       2.481   6.114  20.515  0.00  0.00    +0.000 N 
ATOM     19  H   UNL     1       3.398   6.215  20.933  0.00  0.00    +0.000 HD
BRANCH  18  20
ATOM     20  C   UNL     1       1.906   7.202  19.739  0.00  0.00    +0.000 C 
ATOM     21  C   UNL     1       2.776   7.637  18.556  0.00  0.00    +0.000 C 
ATOM     22  C   UNL     1       1.970   8.595  17.670  0.00  0.00    +0.000 C 
ATOM     23  C   UNL     1       1.416   9.793  18.445  0.00  0.00    +0.000 C 
ATOM     24  C   UNL     1       0.758   9.420  19.777  0.00  0.00    +0.000 C 
ATOM     25  C   UNL     1       1.600   8.439  20.592  0.00  0.00    +0.000 C 
ENDBRANCH  18  20
ENDBRANCH  15  16
ENDBRANCH  14  15
ENDBRANCH   2  14
TORSDOF 7
ENDMDL
MODEL 3
REMARK VINA RESULT:      -6.8      3.282      6.906
REMARK  Name = 
REMARK  8 active torsions:
REMARK  status: ('A' for Active; 'I' for Inactive)
REMARK    1  A    between atoms: C_1  and  C_2
REMARK    2  A    between atoms: C_2  and  C_3
REMARK    3  A    between atoms: C_3  and  N_4
REMARK    4  A    between atoms: C_5  and  S_6
REMARK    5  A    between atoms: S_6  and  C_7
REMARK    6  A    between atoms: C_7  and  C_8
REMARK    7  A    between atoms: N_10  and  C_11
REMARK    8  A    between atoms: C_19  and  C_20
REMARK                            x       y       z     vdW  Elec       q    Type
REMARK                         _______ _______ _______ _____ _____    ______ ____
ROOT
ATOM      1  N   UNL     1       4.845   5.321  18.236  0.00  0.00    +0.000 N 
ATOM      2  C   UNL     1       6.210   5.467  18.169  0.00  0.00    +0.000 A 
ATOM      3  N   UNL     1       6.768   4.864  19.194  0.00  0.00    +0.000 NA
ATOM      4  N   UNL     1       5.768   4.278  19.935  0.00  0.00    +0.000 NA
ATOM      5  C   UNL     1       4.613   4.550  19.358  0.00  0.00    +0.000 A 
ENDROOT
BRANCH   5   6
ATOM      6  C   UNL     1       3.344   4.067  19.820  0.00  0.00    +0.000 A 
ATOM      7  C   UNL     1       2.523   4.607  20.800  0.00  0.00    +0.000 A 
ATOM      8  C   UNL     1       1.388   3.766  20.917  0.00  0.00    +0.000 A 
ATOM      9  C   UNL     1       1.559   2.769  19.990  0.00  0.00    +0.000 A 
ATOM     10  O   UNL     1       2.734   2.934  19.338  0.00  0.00    +0.000 OA
ENDBRANCH   5   6
BRANCH   1  11
ATOM     11  C   UNL     1       3.839   5.732  17.277  0.00  0.00    +0.000 C 
BRANCH  11  13
ATOM     12  C   UNL     1       2.983   8.078  17.794  0.00  0.00    +0.000 C 
ATOM     13  C   UNL     1       2.713   6.585  17.867  0.00  0.00    +0.000 C 
ENDBRANCH  11  13
ENDBRANCH   1  11
BRANCH   2  14
ATOM     14  S   UNL     1       7.068   6.283  16.896  0.00  0.00    +0.000 S 
BRANCH  14  15
ATOM     15  C   UNL     1       6.877   8.022  17.413  0.00  0.00    +0.000 C 
BRANCH  15  16
ATOM     16  C   UNL     1       8.064   8.561  18.205  0.00  0.00    +0.000 C 
ATOM     17  O   UNL     1       8.729   7.810  18.913  0.00  0.00    +0.000 OA
ATOM     18  N   UNL     1       8.400   9.895  18.027  0.00  0.00    +0.000 N 
ATOM     19  H   UNL     1       7.885  10.447  17.351  0.00  0.00    +0.000 HD
BRANCH  18  20
ATOM     20  C   UNL     1       9.554  10.463  18.708  0.00  0.00    +0.000 C 
ATOM     21  C   UNL     1       9.198  11.217  19.992  0.00  0.00    +0.000 C 
ATOM     22  C   UNL     1      10.488  11.544  20.753  0.00  0.00    +0.000 C 
ATOM     23  C   UNL     1      11.500  12.312  19.899  0.00  0.00    +0.000 C 
ATOM     24  C   UNL     1      11.695  11.731  18.494  0.00  0.00    +0.000 C 
ATOM     25  C   UNL     1      10.369  11.400  17.809  0.00  0.00    +0.000 C 
ENDBRANCH  18  20
ENDBRANCH  15  16
ENDBRANCH  14  15
ENDBRANCH   2  14
TORSDOF 7
ENDMDL
MODEL 4
REMARK VINA RESULT:      -6.8      3.610      6.801
REMARK  Name = 
REMARK  8 active torsions:
REMARK  status: ('A' for Active; 'I' for Inactive)
REMARK    1  A    between atoms: C_1  and  C_2
REMARK    2  A    between atoms: C_2  and  C_3
REMARK    3  A    between atoms: C_3  and  N_4
REMARK    4  A    between atoms: C_5  and  S_6
REMARK    5  A    between atoms: S_6  and  C_7
REMARK    6  A    between atoms: C_7  and  C_8
REMARK    7  A    between atoms: N_10  and  C_11
REMARK    8  A    between atoms: C_19  and  C_20
REMARK                            x       y       z     vdW  Elec       q    Type
REMARK                         _______ _______ _______ _____ _____    ______ ____
ROOT
ATOM      1  N   UNL     1       5.244   5.203  17.757  0.00  0.00    +0.000 N 
ATOM      2  C   UNL     1       6.395   5.743  18.280  0.00  0.00    +0.000 A 
ATOM      3  N   UNL     1       6.539   5.350  19.524  0.00  0.00    +0.000 NA
ATOM      4  N   UNL     1       5.493   4.509  19.826  0.00  0.00    +0.000 NA
ATOM      5  C   UNL     1       4.717   4.418  18.764  0.00  0.00    +0.000 A 
ENDROOT
BRANCH   5   6
ATOM      6  C   UNL     1       3.547   3.592  18.683  0.00  0.00    +0.000 A 
ATOM      7  C   UNL     1       2.215   3.982  18.703  0.00  0.00    +0.000 A 
ATOM      8  C   UNL     1       1.425   2.808  18.620  0.00  0.00    +0.000 A 
ATOM      9  C   UNL     1       2.309   1.763  18.531  0.00  0.00    +0.000 A 
ATOM     10  O   UNL     1       3.582   2.223  18.582  0.00  0.00    +0.000 OA
ENDBRANCH   5   6
BRANCH   1  11
ATOM     11  C   UNL     1       4.737   5.282  16.401  0.00  0.00    +0.000 C 
BRANCH  11  13
ATOM     12  C   UNL     1       6.235   4.674  14.430  0.00  0.00    +0.000 C 
ATOM     13  C   UNL     1       5.244   4.179  15.469  0.00  0.00    +0.000 C 
ENDBRANCH  11  13
ENDBRANCH   1  11
BRANCH   2  14
ATOM     14  S   UNL     1       7.511   6.752  17.410  0.00  0.00    +0.000 S 
BRANCH  14  15
ATOM     15  C   UNL     1       8.379   7.573  18.788  0.00  0.00    +0.000 C 
BRANCH  15  16
ATOM     16  C   UNL     1       8.566   9.074  18.589  0.00  0.00    +0.000 C 
ATOM     17  O   UNL     1       7.891   9.678  17.759  0.00  0.00    +0.000 OA
ATOM     18  N   UNL     1       9.456   9.726  19.430  0.00  0.00    +0.000 N 
ATOM     19  H   UNL     1       9.910   9.202  20.169  0.00  0.00    +0.000 HD
BRANCH  18  20
ATOM     20  C   UNL     1       9.642  11.166  19.334  0.00  0.00    +0.000 C 
ATOM     21  C   UNL     1      10.606  11.586  18.221  0.00  0.00    +0.000 C 
ATOM     22  C   UNL     1      10.528  13.107  18.042  0.00  0.00    +0.000 C 
ATOM     23  C   UNL     1      10.788  13.870  19.344  0.00  0.00    +0.000 C 
ATOM     24  C   UNL     1      10.030  13.311  20.552  0.00  0.00    +0.000 C 
ATOM     25  C   UNL     1      10.124  11.789  20.650  0.00  0.00    +0.000 C 
ENDBRANCH  18  20
ENDBRANCH  15  16
ENDBRANCH  14  15
ENDBRANCH   2  14
TORSDOF 7
ENDMDL
MODEL 5
REMARK VINA RESULT:      -6.5      3.735      7.083
REMARK  Name = 
REMARK  8 active torsions:
REMARK  status: ('A' for Active; 'I' for Inactive)
REMARK    1  A    between atoms: C_1  and  C_2
REMARK    2  A    between atoms: C_2  and  C_3
REMARK    3  A    between atoms: C_3  and  N_4
REMARK    4  A    between atoms: C_5  and  S_6
REMARK    5  A    between atoms: S_6  and  C_7
REMARK    6  A    between atoms: C_7  and  C_8
REMARK    7  A    between atoms: N_10  and  C_11
REMARK    8  A    between atoms: C_19  and  C_20
REMARK                            x       y       z     vdW  Elec       q    Type
REMARK                         _______ _______ _______ _____ _____    ______ ____
ROOT
ATOM      1  N   UNL     1       4.917   5.835  17.992  0.00  0.00    +0.000 N 
ATOM      2  C   UNL     1       6.284   5.978  17.982  0.00  0.00    +0.000 A 
ATOM      3  N   UNL     1       6.835   4.987  18.644  0.00  0.00    +0.000 NA
ATOM      4  N   UNL     1       5.828   4.152  19.070  0.00  0.00    +0.000 NA
ATOM      5  C   UNL     1       4.676   4.660  18.676  0.00  0.00    +0.000 A 
ENDROOT
BRANCH   5   6
ATOM      6  C   UNL     1       3.400   4.041  18.896  0.00  0.00    +0.000 A 
ATOM      7  C   UNL     1       2.637   3.303  18.003  0.00  0.00    +0.000 A 
ATOM      8  C   UNL     1       1.448   2.920  18.673  0.00  0.00    +0.000 A 
ATOM      9  C   UNL     1       1.553   3.422  19.945  0.00  0.00    +0.000 A 
ATOM     10  O   UNL     1       2.713   4.107  20.083  0.00  0.00    +0.000 OA
ENDBRANCH   5   6
BRANCH   1  11
ATOM     11  C   UNL     1       3.915   6.631  17.312  0.00  0.00    +0.000 C 
BRANCH  11  13
ATOM     12  C   UNL     1       1.824   7.972  17.888  0.00  0.00    +0.000 C 
ATOM     13  C   UNL     1       3.298   7.741  18.167  0.00  0.00    +0.000 C 
ENDBRANCH  11  13
ENDBRANCH   1  11
BRANCH   2  14
ATOM     14  S   UNL     1       7.150   7.251  17.175  0.00  0.00    +0.000 S 
BRANCH  14  15
ATOM     15  C   UNL     1       8.295   7.778  18.494  0.00  0.00    +0.000 C 
BRANCH  15  16
ATOM     16  C   UNL     1       8.600   9.272  18.483  0.00  0.00    +0.000 C 
ATOM     17  O   UNL     1       8.101  10.000  17.628  0.00  0.00    +0.000 OA
ATOM     18  N   UNL     1       9.385   9.774  19.510  0.00  0.00    +0.000 N 
ATOM     19  H   UNL     1       9.686   9.150  20.250  0.00  0.00    +0.000 HD
BRANCH  18  20
ATOM     20  C   UNL     1       9.670  11.199  19.593  0.00  0.00    +0.000 C 
ATOM     21  C   UNL     1      11.122  11.553  19.261  0.00  0.00    +0.000 C 
ATOM     22  C   UNL     1      11.245  13.076  19.127  0.00  0.00    +0.000 C 
ATOM     23  C   UNL     1      10.742  13.822  20.365  0.00  0.00    +0.000 C 
ATOM     24  C   UNL     1       9.395  13.315  20.890  0.00  0.00    +0.000 C 
ATOM     25  C   UNL     1       9.332  11.790  20.967  0.00  0.00    +0.000 C 
ENDBRANCH  18  20
ENDBRANCH  15  16
ENDBRANCH  14  15
ENDBRANCH   2  14
TORSDOF 7
ENDMDL
MODEL 6
REMARK VINA RESULT:      -6.5      2.634      6.814
REMARK  Name = 
REMARK  8 active torsions:
REMARK  status: ('A' for Active; 'I' for Inactive)
REMARK    1  A    between atoms: C_1  and  C_2
REMARK    2  A    between atoms: C_2  and  C_3
REMARK    3  A    between atoms: C_3  and  N_4
REMARK    4  A    between atoms: C_5  and  S_6
REMARK    5  A    between atoms: S_6  and  C_7
REMARK    6  A    between atoms: C_7  and  C_8
REMARK    7  A    between atoms: N_10  and  C_11
REMARK    8  A    between atoms: C_19  and  C_20
REMARK                            x       y       z     vdW  Elec       q    Type
REMARK                         _______ _______ _______ _____ _____    ______ ____
ROOT
ATOM      1  N   UNL     1       4.226   5.175  18.422  0.00  0.00    +0.000 N 
ATOM      2  C   UNL     1       5.568   5.362  18.189  0.00  0.00    +0.000 A 
ATOM      3  N   UNL     1       6.264   4.559  18.960  0.00  0.00    +0.000 NA
ATOM      4  N   UNL     1       5.379   3.802  19.691  0.00  0.00    +0.000 NA
ATOM      5  C   UNL     1       4.154   4.170  19.366  0.00  0.00    +0.000 A 
ENDROOT
BRANCH   5   6
ATOM      6  C   UNL     1       2.962   3.569  19.891  0.00  0.00    +0.000 A 
ATOM      7  C   UNL     1       2.381   3.759  21.138  0.00  0.00    +0.000 A 
ATOM      8  C   UNL     1       1.230   2.934  21.201  0.00  0.00    +0.000 A 
ATOM      9  C   UNL     1       1.151   2.301  19.987  0.00  0.00    +0.000 A 
ATOM     10  O   UNL     1       2.192   2.665  19.201  0.00  0.00    +0.000 OA
ENDBRANCH   5   6
BRANCH   1  11
ATOM     11  C   UNL     1       3.094   5.767  17.739  0.00  0.00    +0.000 C 
BRANCH  11  13
ATOM     12  C   UNL     1       2.367   7.200  19.719  0.00  0.00    +0.000 C 
ATOM     13  C   UNL     1       2.708   7.162  18.240  0.00  0.00    +0.000 C 
ENDBRANCH  11  13
ENDBRANCH   1  11
BRANCH   2  14
ATOM     14  S   UNL     1       6.236   6.458  17.017  0.00  0.00    +0.000 S 
BRANCH  14  15
ATOM     15  C   UNL     1       7.319   5.334  16.072  0.00  0.00    +0.000 C 
BRANCH  15  16
ATOM     16  C   UNL     1       6.560   4.327  15.214  0.00  0.00    +0.000 C 
ATOM     17  O   UNL     1       5.791   3.523  15.735  0.00  0.00    +0.000 OA
ATOM     18  N   UNL     1       6.712   4.414  13.838  0.00  0.00    +0.000 N 
ATOM     19  H   UNL     1       7.275   5.162  13.451  0.00  0.00    +0.000 HD
BRANCH  18  20
ATOM     20  C   UNL     1       5.975   3.521  12.956  0.00  0.00    +0.000 C 
ATOM     21  C   UNL     1       6.865   2.776  11.957  0.00  0.00    +0.000 C 
ATOM     22  C   UNL     1       6.034   1.689  11.264  0.00  0.00    +0.000 C 
ATOM     23  C   UNL     1       4.768   2.242  10.605  0.00  0.00    +0.000 C 
ATOM     24  C   UNL     1       3.977   3.208  11.492  0.00  0.00    +0.000 C 
ATOM     25  C   UNL     1       4.871   4.243  12.174  0.00  0.00    +0.000 C 
ENDBRANCH  18  20
ENDBRANCH  15  16
ENDBRANCH  14  15
ENDBRANCH   2  14
TORSDOF 7
ENDMDL
MODEL 7
REMARK VINA RESULT:      -6.5      3.298      6.552
REMARK  Name = 
REMARK  8 active torsions:
REMARK  status: ('A' for Active; 'I' for Inactive)
REMARK    1  A    between atoms: C_1  and  C_2
REMARK    2  A    between atoms: C_2  and  C_3
REMARK    3  A    between atoms: C_3  and  N_4
REMARK    4  A    between atoms: C_5  and  S_6
REMARK    5  A    between atoms: S_6  and  C_7
REMARK    6  A    between atoms: C_7  and  C_8
REMARK    7  A    between atoms: N_10  and  C_11
REMARK    8  A    between atoms: C_19  and  C_20
REMARK                            x       y       z     vdW  Elec       q    Type
REMARK                         _______ _______ _______ _____ _____    ______ ____
ROOT
ATOM      1  N   UNL     1       4.558   5.027  18.124  0.00  0.00    +0.000 N 
ATOM      2  C   UNL     1       5.146   6.129  17.549  0.00  0.00    +0.000 A 
ATOM      3  N   UNL     1       4.384   7.182  17.736  0.00  0.00    +0.000 NA
ATOM      4  N   UNL     1       3.292   6.788  18.475  0.00  0.00    +0.000 NA
ATOM      5  C   UNL     1       3.398   5.494  18.710  0.00  0.00    +0.000 A 
ENDROOT
BRANCH   5   6
ATOM      6  C   UNL     1       2.466   4.734  19.493  0.00  0.00    +0.000 A 
ATOM      7  C   UNL     1       1.267   4.164  19.088  0.00  0.00    +0.000 A 
ATOM      8  C   UNL     1       0.691   3.534  20.219  0.00  0.00    +0.000 A 
ATOM      9  C   UNL     1       1.574   3.730  21.251  0.00  0.00    +0.000 A 
ATOM     10  O   UNL     1       2.633   4.460  20.828  0.00  0.00    +0.000 OA
ENDBRANCH   5   6
BRANCH   1  11
ATOM     11  C   UNL     1       5.079   3.681  18.250  0.00  0.00    +0.000 C 
BRANCH  11  13
ATOM     12  C   UNL     1       3.725   1.530  18.457  0.00  0.00    +0.000 C 
ATOM     13  C   UNL     1       4.254   2.611  17.530  0.00  0.00    +0.000 C 
ENDBRANCH  11  13
ENDBRANCH   1  11
BRANCH   2  14
ATOM     14  S   UNL     1       6.685   6.134  16.742  0.00  0.00    +0.000 S 
BRANCH  14  15
ATOM     15  C   UNL     1       7.764   6.779  18.064  0.00  0.00    +0.000 C 
BRANCH  15  16
ATOM     16  C   UNL     1       7.959   8.291  18.016  0.00  0.00    +0.000 C 
ATOM     17  O   UNL     1       7.295   8.977  17.242  0.00  0.00    +0.000 OA
ATOM     18  N   UNL     1       8.843   8.854  18.925  0.00  0.00    +0.000 N 
ATOM     19  H   UNL     1       9.288   8.257  19.613  0.00  0.00    +0.000 HD
BRANCH  18  20
ATOM     20  C   UNL     1       9.036  10.295  18.972  0.00  0.00    +0.000 C 
ATOM     21  C   UNL     1      10.049  10.811  17.947  0.00  0.00    +0.000 C 
ATOM     22  C   UNL     1       9.982  12.343  17.908  0.00  0.00    +0.000 C 
ATOM     23  C   UNL     1      10.185  12.979  19.286  0.00  0.00    +0.000 C 
ATOM     24  C   UNL     1       9.373  12.314  20.402  0.00  0.00    +0.000 C 
ATOM     25  C   UNL     1       9.460  10.789  20.360  0.00  0.00    +0.000 C 
ENDBRANCH  18  20
ENDBRANCH  15  16
ENDBRANCH  14  15
ENDBRANCH   2  14
TORSDOF 7
ENDMDL
MODEL 8
REMARK VINA RESULT:      -6.4      3.293      6.891
REMARK  Name = 
REMARK  8 active torsions:
REMARK  status: ('A' for Active; 'I' for Inactive)
REMARK    1  A    between atoms: C_1  and  C_2
REMARK    2  A    between atoms: C_2  and  C_3
REMARK    3  A    between atoms: C_3  and  N_4
REMARK    4  A    between atoms: C_5  and  S_6
REMARK    5  A    between atoms: S_6  and  C_7
REMARK    6  A    between atoms: C_7  and  C_8
REMARK    7  A    between atoms: N_10  and  C_11
REMARK    8  A    between atoms: C_19  and  C_20
REMARK                            x       y       z     vdW  Elec       q    Type
REMARK                         _______ _______ _______ _____ _____    ______ ____
ROOT
ATOM      1  N   UNL     1       4.480   5.363  18.285  0.00  0.00    +0.000 N 
ATOM      2  C   UNL     1       5.850   5.364  18.183  0.00  0.00    +0.000 A 
ATOM      3  N   UNL     1       6.342   4.347  18.853  0.00  0.00    +0.000 NA
ATOM      4  N   UNL     1       5.288   3.638  19.379  0.00  0.00    +0.000 NA
ATOM      5  C   UNL     1       4.168   4.246  19.035  0.00  0.00    +0.000 A 
ENDROOT
BRANCH   5   6
ATOM      6  C   UNL     1       2.855   3.772  19.363  0.00  0.00    +0.000 A 
ATOM      7  C   UNL     1       2.102   2.805  18.711  0.00  0.00    +0.000 A 
ATOM      8  C   UNL     1       0.864   2.698  19.392  0.00  0.00    +0.000 A 
ATOM      9  C   UNL     1       0.929   3.584  20.437  0.00  0.00    +0.000 A 
ATOM     10  O   UNL     1       2.112   4.242  20.419  0.00  0.00    +0.000 OA
ENDBRANCH   5   6
BRANCH   1  11
ATOM     11  C   UNL     1       3.519   6.231  17.633  0.00  0.00    +0.000 C 
BRANCH  11  13
ATOM     12  C   UNL     1       2.117   8.353  17.815  0.00  0.00    +0.000 C 
ATOM     13  C   UNL     1       2.865   7.260  18.558  0.00  0.00    +0.000 C 
ENDBRANCH  11  13
ENDBRANCH   1  11
BRANCH   2  14
ATOM     14  S   UNL     1       6.785   6.508  17.266  0.00  0.00    +0.000 S 
BRANCH  14  15
ATOM     15  C   UNL     1       7.872   7.184  18.566  0.00  0.00    +0.000 C 
BRANCH  15  16
ATOM     16  C   UNL     1       8.461   8.549  18.226  0.00  0.00    +0.000 C 
ATOM     17  O   UNL     1       8.317   9.024  17.102  0.00  0.00    +0.000 OA
ATOM     18  N   UNL     1       9.084   9.252  19.247  0.00  0.00    +0.000 N 
ATOM     19  H   UNL     1       9.085   8.862  20.183  0.00  0.00    +0.000 HD
BRANCH  18  20
ATOM     20  C   UNL     1       9.619  10.583  19.007  0.00  0.00    +0.000 C 
ATOM     21  C   UNL     1      10.213  11.238  20.257  0.00  0.00    +0.000 C 
ATOM     22  C   UNL     1      10.969  12.507  19.844  0.00  0.00    +0.000 C 
ATOM     23  C   UNL     1      10.098  13.480  19.045  0.00  0.00    +0.000 C 
ATOM     24  C   UNL     1       9.278  12.813  17.936  0.00  0.00    +0.000 C 
ATOM     25  C   UNL     1       8.580  11.539  18.410  0.00  0.00    +0.000 C 
ENDBRANCH  18  20
ENDBRANCH  15  16
ENDBRANCH  14  15
ENDBRANCH   2  14
TORSDOF 7
ENDMDL
MODEL 9
REMARK VINA RESULT:      -6.3      4.042      6.228
REMARK  Name = 
REMARK  8 active torsions:
REMARK  status: ('A' for Active; 'I' for Inactive)
REMARK    1  A    between atoms: C_1  and  C_2
REMARK    2  A    between atoms: C_2  and  C_3
REMARK    3  A    between atoms: C_3  and  N_4
REMARK    4  A    between atoms: C_5  and  S_6
REMARK    5  A    between atoms: S_6  and  C_7
REMARK    6  A    between atoms: C_7  and  C_8
REMARK    7  A    between atoms: N_10  and  C_11
REMARK    8  A    between atoms: C_19  and  C_20
REMARK                            x       y       z     vdW  Elec       q    Type
REMARK                         _______ _______ _______ _____ _____    ______ ____
ROOT
ATOM      1  N   UNL     1       2.382   6.572  19.752  0.00  0.00    +0.000 N 
ATOM      2  C   UNL     1       1.840   7.825  19.911  0.00  0.00    +0.000 A 
ATOM      3  N   UNL     1       2.023   8.526  18.817  0.00  0.00    +0.000 NA
ATOM      4  N   UNL     1       2.663   7.723  17.902  0.00  0.00    +0.000 NA
ATOM      5  C   UNL     1       2.877   6.548  18.462  0.00  0.00    +0.000 A 
ENDROOT
BRANCH   5   6
ATOM      6  C   UNL     1       3.483   5.431  17.797  0.00  0.00    +0.000 A 
ATOM      7  C   UNL     1       4.788   5.307  17.340  0.00  0.00    +0.000 A 
ATOM      8  C   UNL     1       4.908   4.032  16.732  0.00  0.00    +0.000 A 
ATOM      9  C   UNL     1       3.681   3.432  16.868  0.00  0.00    +0.000 A 
ATOM     10  O   UNL     1       2.818   4.268  17.492  0.00  0.00    +0.000 OA
ENDBRANCH   5   6
BRANCH   1  11
ATOM     11  C   UNL     1       2.331   5.438  20.653  0.00  0.00    +0.000 C 
BRANCH  11  13
ATOM     12  C   UNL     1       1.369   3.081  20.506  0.00  0.00    +0.000 C 
ATOM     13  C   UNL     1       1.077   4.571  20.512  0.00  0.00    +0.000 C 
ENDBRANCH  11  13
ENDBRANCH   1  11
BRANCH   2  14
ATOM     14  S   UNL     1       0.998   8.377  21.328  0.00  0.00    +0.000 S 
BRANCH  14  15
ATOM     15  C   UNL     1      -0.093   9.648  20.607  0.00  0.00    +0.000 C 
BRANCH  15  16
ATOM     16  C   UNL     1       0.528  11.041  20.567  0.00  0.00    +0.000 C 
ATOM     17  O   UNL     1       0.759  11.646  21.611  0.00  0.00    +0.000 OA
ATOM     18  N   UNL     1       0.889  11.547  19.328  0.00  0.00    +0.000 N 
ATOM     19  H   UNL     1       0.775  10.965  18.506  0.00  0.00    +0.000 HD
BRANCH  18  20
ATOM     20  C   UNL     1       1.538  12.845  19.221  0.00  0.00    +0.000 C 
ATOM     21  C   UNL     1       0.573  13.985  18.882  0.00  0.00    +0.000 C 
ATOM     22  C   UNL     1       1.305  15.323  19.048  0.00  0.00    +0.000 C 
ATOM     23  C   UNL     1       2.594  15.398  18.225  0.00  0.00    +0.000 C 
ATOM     24  C   UNL     1       3.474  14.150  18.335  0.00  0.00    +0.000 C 
ATOM     25  C   UNL     1       2.675  12.855  18.192  0.00  0.00    +0.000 C 
ENDBRANCH  18  20
ENDBRANCH  15  16
ENDBRANCH  14  15
ENDBRANCH   2  14
TORSDOF 7
ENDMDL
