MODEL 1
REMARK VINA RESULT:      -9.0      0.000      0.000
REMARK  Name = 
REMARK  9 active torsions:
REMARK  status: ('A' for Active; 'I' for Inactive)
REMARK    1  A    between atoms: C_1  and  O_2
REMARK    2  A    between atoms: O_2  and  C_3
REMARK    3  A    between atoms: C_6  and  N_7
REMARK    4  A    between atoms: C_14  and  S_15
REMARK    5  A    between atoms: S_15  and  C_16
REMARK    6  A    between atoms: C_16  and  C_17
REMARK    7  A    between atoms: C_25  and  C_26
REMARK    8  A    between atoms: C_31  and  O_32
REMARK    9  A    between atoms: O_32  and  C_33
REMARK                            x       y       z     vdW  Elec       q    Type
REMARK                         _______ _______ _______ _____ _____    ______ ____
ROOT
ATOM      1  N   UNL     1       2.682   6.022  20.187  0.00  0.00    +0.000 N 
ATOM      2  C   UNL     1       2.210   7.324  20.050  0.00  0.00    +0.000 C 
ATOM      3  O   UNL     1       2.340   7.995  19.033  0.00  0.00    +0.000 OA
ATOM      4  N   UNL     1       1.592   7.802  21.188  0.00  0.00    +0.000 N 
ATOM      5  C   UNL     1       1.019   9.066  21.246  0.00  0.00    +0.000 A 
ATOM      6  N   UNL     1       0.851   9.749  22.360  0.00  0.00    +0.000 NA
ATOM      7  N   UNL     1       0.313  11.012  22.121  0.00  0.00    +0.000 NA
ATOM      8  C   UNL     1       0.043  11.199  20.845  0.00  0.00    +0.000 A 
ATOM      9  S   UNL     1       0.366   9.839  19.864  0.00  0.00    +0.000 S 
ATOM     10  H   UNL     1       2.533   5.552  21.067  0.00  0.00    +0.000 HD
ATOM     11  H   UNL     1       1.889   7.446  22.085  0.00  0.00    +0.000 HD
ENDROOT
BRANCH   1  15
ATOM     12  C   UNL     1       4.903   4.048  17.138  0.00  0.00    +0.000 A 
ATOM     13  C   UNL     1       3.508   4.078  17.092  0.00  0.00    +0.000 A 
ATOM     14  C   UNL     1       2.768   4.708  18.092  0.00  0.00    +0.000 A 
ATOM     15  C   UNL     1       3.393   5.298  19.192  0.00  0.00    +0.000 A 
ATOM     16  C   UNL     1       4.782   5.166  19.295  0.00  0.00    +0.000 A 
ATOM     17  C   UNL     1       5.548   4.542  18.282  0.00  0.00    +0.000 A 
BRANCH  12  19
ATOM     18  C   UNL     1       5.664   4.370  14.925  0.00  0.00    +0.000 C 
ATOM     19  O   UNL     1       5.620   3.538  16.089  0.00  0.00    +0.000 OA
ENDBRANCH  12  19
BRANCH  17  20
ATOM     20  O   UNL     1       6.888   4.535  18.575  0.00  0.00    +0.000 OA
ATOM     21  C   UNL     1       7.555   5.771  18.793  0.00  0.00    +0.000 C 
ENDBRANCH  17  20
ENDBRANCH   1  15
BRANCH   8  22
ATOM     22  S   UNL     1      -0.635  12.678  20.189  0.00  0.00    +0.000 S 
BRANCH  22  23
ATOM     23  C   UNL     1      -2.000  12.028  19.190  0.00  0.00    +0.000 C 
BRANCH  23  24
ATOM     24  C   UNL     1      -3.346  12.310  19.840  0.00  0.00    +0.000 A 
ATOM     25  C   UNL     1      -4.477  12.127  19.148  0.00  0.00    +0.000 A 
ATOM     26  C   UNL     1      -5.771  12.252  19.833  0.00  0.00    +0.000 A 
ATOM     27  O   UNL     1      -6.802  12.111  19.175  0.00  0.00    +0.000 OA
ATOM     28  N   UNL     1      -5.708  12.490  21.198  0.00  0.00    +0.000 N 
ATOM     29  C   UNL     1      -6.886  12.467  21.937  0.00  0.00    +0.000 A 
ATOM     30  C   UNL     1      -6.893  12.675  23.257  0.00  0.00    +0.000 A 
ATOM     31  C   UNL     1      -5.668  13.001  23.935  0.00  0.00    +0.000 A 
ATOM     32  C   UNL     1      -4.503  13.064  23.272  0.00  0.00    +0.000 A 
ATOM     33  C   UNL     1      -3.221  13.483  23.917  0.00  0.00    +0.000 C 
ATOM     34  C   UNL     1      -4.473  12.721  21.802  0.00  0.00    +0.000 A 
ATOM     35  N   UNL     1      -3.336  12.652  21.173  0.00  0.00    +0.000 NA
ENDBRANCH  23  24
ENDBRANCH  22  23
ENDBRANCH   8  22
TORSDOF 6
ENDMDL
MODEL 2
REMARK VINA RESULT:      -8.9      6.419      9.930
REMARK  Name = 
REMARK  9 active torsions:
REMARK  status: ('A' for Active; 'I' for Inactive)
REMARK    1  A    between atoms: C_1  and  O_2
REMARK    2  A    between atoms: O_2  and  C_3
REMARK    3  A    between atoms: C_6  and  N_7
REMARK    4  A    between atoms: C_14  and  S_15
REMARK    5  A    between atoms: S_15  and  C_16
REMARK    6  A    between atoms: C_16  and  C_17
REMARK    7  A    between atoms: C_25  and  C_26
REMARK    8  A    between atoms: C_31  and  O_32
REMARK    9  A    between atoms: O_32  and  C_33
REMARK                            x       y       z     vdW  Elec       q    Type
REMARK                         _______ _______ _______ _____ _____    ______ ____
ROOT
ATOM      1  N   UNL     1       9.415   9.760  19.164  0.00  0.00    +0.000 N 
ATOM      2  C   UNL     1       8.468   8.896  18.622  0.00  0.00    +0.000 C 
ATOM      3  O   UNL     1       7.538   9.259  17.913  0.00  0.00    +0.000 OA
ATOM      4  N   UNL     1       8.667   7.577  18.979  0.00  0.00    +0.000 N 
ATOM      5  C   UNL     1       7.854   6.552  18.513  0.00  0.00    +0.000 A 
ATOM      6  N   UNL     1       7.677   5.407  19.141  0.00  0.00    +0.000 NA
ATOM      7  N   UNL     1       6.761   4.588  18.484  0.00  0.00    +0.000 NA
ATOM      8  C   UNL     1       6.337   5.127  17.359  0.00  0.00    +0.000 A 
ATOM      9  S   UNL     1       7.065   6.628  16.994  0.00  0.00    +0.000 S 
ATOM     10  H   UNL     1      10.142   9.367  19.742  0.00  0.00    +0.000 HD
ATOM     11  H   UNL     1       9.110   7.378  19.864  0.00  0.00    +0.000 HD
ENDROOT
BRANCH   1  15
ATOM     12  C   UNL     1       9.677  13.984  18.711  0.00  0.00    +0.000 A 
ATOM     13  C   UNL     1       8.910  13.428  19.735  0.00  0.00    +0.000 A 
ATOM     14  C   UNL     1       8.803  12.046  19.885  0.00  0.00    +0.000 A 
ATOM     15  C   UNL     1       9.429  11.171  18.996  0.00  0.00    +0.000 A 
ATOM     16  C   UNL     1      10.102  11.730  17.904  0.00  0.00    +0.000 A 
ATOM     17  C   UNL     1      10.231  13.130  17.745  0.00  0.00    +0.000 A 
BRANCH  12  19
ATOM     18  C   UNL     1      11.171  15.779  19.072  0.00  0.00    +0.000 C 
ATOM     19  O   UNL     1       9.876  15.338  18.650  0.00  0.00    +0.000 OA
ENDBRANCH  12  19
BRANCH  17  20
ATOM     20  O   UNL     1      10.939  13.462  16.619  0.00  0.00    +0.000 OA
ATOM     21  C   UNL     1      12.333  13.186  16.573  0.00  0.00    +0.000 C 
ENDBRANCH  17  20
ENDBRANCH   1  15
BRANCH   8  22
ATOM     22  S   UNL     1       5.174   4.373  16.284  0.00  0.00    +0.000 S 
BRANCH  22  23
ATOM     23  C   UNL     1       4.321   3.248  17.419  0.00  0.00    +0.000 C 
BRANCH  23  24
ATOM     24  C   UNL     1       3.356   3.999  18.323  0.00  0.00    +0.000 A 
ATOM     25  C   UNL     1       2.757   3.365  19.339  0.00  0.00    +0.000 A 
ATOM     26  C   UNL     1       1.951   4.135  20.296  0.00  0.00    +0.000 A 
ATOM     27  O   UNL     1       1.383   3.532  21.207  0.00  0.00    +0.000 OA
ATOM     28  N   UNL     1       1.934   5.508  20.100  0.00  0.00    +0.000 N 
ATOM     29  C   UNL     1       1.322   6.313  21.053  0.00  0.00    +0.000 A 
ATOM     30  C   UNL     1       1.282   7.644  20.931  0.00  0.00    +0.000 A 
ATOM     31  C   UNL     1       1.822   8.269  19.754  0.00  0.00    +0.000 A 
ATOM     32  C   UNL     1       2.403   7.542  18.787  0.00  0.00    +0.000 A 
ATOM     33  C   UNL     1       2.899   8.138  17.508  0.00  0.00    +0.000 C 
ATOM     34  C   UNL     1       2.549   6.052  18.973  0.00  0.00    +0.000 A 
ATOM     35  N   UNL     1       3.221   5.350  18.106  0.00  0.00    +0.000 NA
ENDBRANCH  23  24
ENDBRANCH  22  23
ENDBRANCH   8  22
TORSDOF 6
ENDMDL
MODEL 3
REMARK VINA RESULT:      -8.8      1.552      2.271
REMARK  Name = 
REMARK  9 active torsions:
REMARK  status: ('A' for Active; 'I' for Inactive)
REMARK    1  A    between atoms: C_1  and  O_2
REMARK    2  A    between atoms: O_2  and  C_3
REMARK    3  A    between atoms: C_6  and  N_7
REMARK    4  A    between atoms: C_14  and  S_15
REMARK    5  A    between atoms: S_15  and  C_16
REMARK    6  A    between atoms: C_16  and  C_17
REMARK    7  A    between atoms: C_25  and  C_26
REMARK    8  A    between atoms: C_31  and  O_32
REMARK    9  A    between atoms: O_32  and  C_33
REMARK                            x       y       z     vdW  Elec       q    Type
REMARK                         _______ _______ _______ _____ _____    ______ ____
ROOT
ATOM      1  N   UNL     1       2.279   6.245  20.598  0.00  0.00    +0.000 N 
ATOM      2  C   UNL     1       1.817   7.547  20.437  0.00  0.00    +0.000 C 
ATOM      3  O   UNL     1       1.889   8.173  19.388  0.00  0.00    +0.000 OA
ATOM      4  N   UNL     1       1.280   8.082  21.593  0.00  0.00    +0.000 N 
ATOM      5  C   UNL     1       0.730   9.356  21.634  0.00  0.00    +0.000 A 
ATOM      6  N   UNL     1       0.644  10.087  22.727  0.00  0.00    +0.000 NA
ATOM      7  N   UNL     1       0.109  11.347  22.470  0.00  0.00    +0.000 NA
ATOM      8  C   UNL     1      -0.240  11.487  21.208  0.00  0.00    +0.000 A 
ATOM      9  S   UNL     1      -0.001  10.082  20.266  0.00  0.00    +0.000 S 
ATOM     10  H   UNL     1       2.181   5.813  21.505  0.00  0.00    +0.000 HD
ATOM     11  H   UNL     1       1.630   7.758  22.482  0.00  0.00    +0.000 HD
ENDROOT
BRANCH   1  15
ATOM     12  C   UNL     1       4.278   4.109  17.506  0.00  0.00    +0.000 A 
ATOM     13  C   UNL     1       2.887   4.214  17.508  0.00  0.00    +0.000 A 
ATOM     14  C   UNL     1       2.218   4.897  18.524  0.00  0.00    +0.000 A 
ATOM     15  C   UNL     1       2.913   5.469  19.591  0.00  0.00    +0.000 A 
ATOM     16  C   UNL     1       4.296   5.263  19.647  0.00  0.00    +0.000 A 
ATOM     17  C   UNL     1       4.991   4.584  18.618  0.00  0.00    +0.000 A 
BRANCH  12  19
ATOM     18  C   UNL     1       5.541   4.480  15.543  0.00  0.00    +0.000 C 
ATOM     19  O   UNL     1       4.929   3.546  16.440  0.00  0.00    +0.000 OA
ENDBRANCH  12  19
BRANCH  17  20
ATOM     20  O   UNL     1       6.338   4.508  18.863  0.00  0.00    +0.000 OA
ATOM     21  C   UNL     1       7.096   5.708  18.933  0.00  0.00    +0.000 C 
ENDBRANCH  17  20
ENDBRANCH   1  15
BRANCH   8  22
ATOM     22  S   UNL     1      -0.939  12.948  20.535  0.00  0.00    +0.000 S 
BRANCH  22  23
ATOM     23  C   UNL     1      -1.503  13.793  22.036  0.00  0.00    +0.000 C 
BRANCH  23  24
ATOM     24  C   UNL     1      -2.868  13.287  22.478  0.00  0.00    +0.000 A 
ATOM     25  C   UNL     1      -3.077  12.955  23.757  0.00  0.00    +0.000 A 
ATOM     26  C   UNL     1      -4.437  12.618  24.203  0.00  0.00    +0.000 A 
ATOM     27  O   UNL     1      -4.607  12.286  25.376  0.00  0.00    +0.000 OA
ATOM     28  N   UNL     1      -5.431  12.742  23.245  0.00  0.00    +0.000 N 
ATOM     29  C   UNL     1      -6.758  12.590  23.632  0.00  0.00    +0.000 A 
ATOM     30  C   UNL     1      -7.764  12.710  22.760  0.00  0.00    +0.000 A 
ATOM     31  C   UNL     1      -7.481  12.934  21.368  0.00  0.00    +0.000 A 
ATOM     32  C   UNL     1      -6.219  13.065  20.929  0.00  0.00    +0.000 A 
ATOM     33  C   UNL     1      -5.872  13.212  19.482  0.00  0.00    +0.000 C 
ATOM     34  C   UNL     1      -5.087  13.040  21.927  0.00  0.00    +0.000 A 
ATOM     35  N   UNL     1      -3.870  13.292  21.536  0.00  0.00    +0.000 NA
ENDBRANCH  23  24
ENDBRANCH  22  23
ENDBRANCH   8  22
TORSDOF 6
ENDMDL
MODEL 4
REMARK VINA RESULT:      -8.7      1.590      2.157
REMARK  Name = 
REMARK  9 active torsions:
REMARK  status: ('A' for Active; 'I' for Inactive)
REMARK    1  A    between atoms: C_1  and  O_2
REMARK    2  A    between atoms: O_2  and  C_3
REMARK    3  A    between atoms: C_6  and  N_7
REMARK    4  A    between atoms: C_14  and  S_15
REMARK    5  A    between atoms: S_15  and  C_16
REMARK    6  A    between atoms: C_16  and  C_17
REMARK    7  A    between atoms: C_25  and  C_26
REMARK    8  A    between atoms: C_31  and  O_32
REMARK    9  A    between atoms: O_32  and  C_33
REMARK                            x       y       z     vdW  Elec       q    Type
REMARK                         _______ _______ _______ _____ _____    ______ ____
ROOT
ATOM      1  N   UNL     1       2.813   6.069  19.826  0.00  0.00    +0.000 N 
ATOM      2  C   UNL     1       2.278   7.349  19.935  0.00  0.00    +0.000 C 
ATOM      3  O   UNL     1       2.301   8.179  19.035  0.00  0.00    +0.000 OA
ATOM      4  N   UNL     1       1.730   7.605  21.177  0.00  0.00    +0.000 N 
ATOM      5  C   UNL     1       1.110   8.811  21.479  0.00  0.00    +0.000 A 
ATOM      6  N   UNL     1       1.000   9.298  22.698  0.00  0.00    +0.000 NA
ATOM      7  N   UNL     1       0.392  10.552  22.705  0.00  0.00    +0.000 NA
ATOM      8  C   UNL     1       0.018  10.925  21.499  0.00  0.00    +0.000 A 
ATOM      9  S   UNL     1       0.320   9.758  20.289  0.00  0.00    +0.000 S 
ATOM     10  H   UNL     1       2.753   5.458  20.626  0.00  0.00    +0.000 HD
ATOM     11  H   UNL     1       2.109   7.128  21.980  0.00  0.00    +0.000 HD
ENDROOT
BRANCH   1  15
ATOM     12  C   UNL     1       4.699   4.683  16.269  0.00  0.00    +0.000 A 
ATOM     13  C   UNL     1       3.758   3.889  16.928  0.00  0.00    +0.000 A 
ATOM     14  C   UNL     1       3.145   4.325  18.102  0.00  0.00    +0.000 A 
ATOM     15  C   UNL     1       3.475   5.552  18.679  0.00  0.00    +0.000 A 
ATOM     16  C   UNL     1       4.501   6.293  18.081  0.00  0.00    +0.000 A 
ATOM     17  C   UNL     1       5.123   5.872  16.882  0.00  0.00    +0.000 A 
BRANCH  12  19
ATOM     18  C   UNL     1       6.579   3.917  15.061  0.00  0.00    +0.000 C 
ATOM     19  O   UNL     1       5.199   4.300  15.054  0.00  0.00    +0.000 OA
ENDBRANCH  12  19
BRANCH  17  20
ATOM     20  O   UNL     1       6.087   6.751  16.461  0.00  0.00    +0.000 OA
ATOM     21  C   UNL     1       7.078   7.184  17.383  0.00  0.00    +0.000 C 
ENDBRANCH  17  20
ENDBRANCH   1  15
BRANCH   8  22
ATOM     22  S   UNL     1      -0.771  12.450  21.140  0.00  0.00    +0.000 S 
BRANCH  22  23
ATOM     23  C   UNL     1      -0.900  12.366  19.335  0.00  0.00    +0.000 C 
BRANCH  23  24
ATOM     24  C   UNL     1      -2.341  12.168  18.891  0.00  0.00    +0.000 A 
ATOM     25  C   UNL     1      -2.606  11.641  17.689  0.00  0.00    +0.000 A 
ATOM     26  C   UNL     1      -3.994  11.311  17.336  0.00  0.00    +0.000 A 
ATOM     27  O   UNL     1      -4.224  10.855  16.216  0.00  0.00    +0.000 OA
ATOM     28  N   UNL     1      -4.934  11.517  18.334  0.00  0.00    +0.000 N 
ATOM     29  C   UNL     1      -6.239  11.084  18.127  0.00  0.00    +0.000 A 
ATOM     30  C   UNL     1      -7.189  11.240  19.053  0.00  0.00    +0.000 A 
ATOM     31  C   UNL     1      -6.887  11.935  20.276  0.00  0.00    +0.000 A 
ATOM     32  C   UNL     1      -5.652  12.398  20.524  0.00  0.00    +0.000 A 
ATOM     33  C   UNL     1      -5.312  13.200  21.740  0.00  0.00    +0.000 C 
ATOM     34  C   UNL     1      -4.550  12.126  19.529  0.00  0.00    +0.000 A 
ATOM     35  N   UNL     1      -3.323  12.456  19.811  0.00  0.00    +0.000 NA
ENDBRANCH  23  24
ENDBRANCH  22  23
ENDBRANCH   8  22
TORSDOF 6
ENDMDL
MODEL 5
REMARK VINA RESULT:      -8.7      1.463      2.225
REMARK  Name = 
REMARK  9 active torsions:
REMARK  status: ('A' for Active; 'I' for Inactive)
REMARK    1  A    between atoms: C_1  and  O_2
REMARK    2  A    between atoms: O_2  and  C_3
REMARK    3  A    between atoms: C_6  and  N_7
REMARK    4  A    between atoms: C_14  and  S_15
REMARK    5  A    between atoms: S_15  and  C_16
REMARK    6  A    between atoms: C_16  and  C_17
REMARK    7  A    between atoms: C_25  and  C_26
REMARK    8  A    between atoms: C_31  and  O_32
REMARK    9  A    between atoms: O_32  and  C_33
REMARK                            x       y       z     vdW  Elec       q    Type
REMARK                         _______ _______ _______ _____ _____    ______ ____
ROOT
ATOM      1  N   UNL     1       3.070   5.765  19.810  0.00  0.00    +0.000 N 
ATOM      2  C   UNL     1       2.553   7.056  19.747  0.00  0.00    +0.000 C 
ATOM      3  O   UNL     1       2.720   7.813  18.800  0.00  0.00    +0.000 OA
ATOM      4  N   UNL     1       1.840   7.413  20.875  0.00  0.00    +0.000 N 
ATOM      5  C   UNL     1       1.211   8.645  20.995  0.00  0.00    +0.000 A 
ATOM      6  N   UNL     1       0.940   9.225  22.147  0.00  0.00    +0.000 NA
ATOM      7  N   UNL     1       0.366  10.483  21.974  0.00  0.00    +0.000 NA
ATOM      8  C   UNL     1       0.174  10.767  20.702  0.00  0.00    +0.000 A 
ATOM      9  S   UNL     1       0.618   9.506  19.638  0.00  0.00    +0.000 S 
ATOM     10  H   UNL     1       2.883   5.217  20.637  0.00  0.00    +0.000 HD
ATOM     11  H   UNL     1       2.092   6.994  21.758  0.00  0.00    +0.000 HD
ENDROOT
BRANCH   1  15
ATOM     12  C   UNL     1       5.564   4.139  16.768  0.00  0.00    +0.000 A 
ATOM     13  C   UNL     1       4.175   4.084  16.649  0.00  0.00    +0.000 A 
ATOM     14  C   UNL     1       3.346   4.599  17.646  0.00  0.00    +0.000 A 
ATOM     15  C   UNL     1       3.875   5.154  18.812  0.00  0.00    +0.000 A 
ATOM     16  C   UNL     1       5.264   5.103  18.980  0.00  0.00    +0.000 A 
ATOM     17  C   UNL     1       6.118   4.597  17.973  0.00  0.00    +0.000 A 
BRANCH  12  19
ATOM     18  C   UNL     1       5.932   4.177  14.435  0.00  0.00    +0.000 C 
ATOM     19  O   UNL     1       6.365   3.746  15.729  0.00  0.00    +0.000 OA
ENDBRANCH  12  19
BRANCH  17  20
ATOM     20  O   UNL     1       7.439   4.655  18.336  0.00  0.00    +0.000 OA
ATOM     21  C   UNL     1       7.893   5.747  19.124  0.00  0.00    +0.000 C 
ENDBRANCH  17  20
ENDBRANCH   1  15
BRANCH   8  22
ATOM     22  S   UNL     1      -0.522  12.268  20.123  0.00  0.00    +0.000 S 
BRANCH  22  23
ATOM     23  C   UNL     1      -0.855  13.129  21.683  0.00  0.00    +0.000 C 
BRANCH  23  24
ATOM     24  C   UNL     1      -2.277  12.879  22.162  0.00  0.00    +0.000 A 
ATOM     25  C   UNL     1      -2.559  12.908  23.470  0.00  0.00    +0.000 A 
ATOM     26  C   UNL     1      -3.958  12.821  23.910  0.00  0.00    +0.000 A 
ATOM     27  O   UNL     1      -4.198  12.819  25.117  0.00  0.00    +0.000 OA
ATOM     28  N   UNL     1      -4.905  12.783  22.897  0.00  0.00    +0.000 N 
ATOM     29  C   UNL     1      -6.251  12.856  23.235  0.00  0.00    +0.000 A 
ATOM     30  C   UNL     1      -7.213  12.838  22.307  0.00  0.00    +0.000 A 
ATOM     31  C   UNL     1      -6.865  12.669  20.921  0.00  0.00    +0.000 A 
ATOM     32  C   UNL     1      -5.584  12.568  20.535  0.00  0.00    +0.000 A 
ATOM     33  C   UNL     1      -5.179  12.305  19.120  0.00  0.00    +0.000 C 
ATOM     34  C   UNL     1      -4.491  12.699  21.568  0.00  0.00    +0.000 A 
ATOM     35  N   UNL     1      -3.244  12.731  21.195  0.00  0.00    +0.000 NA
ENDBRANCH  23  24
ENDBRANCH  22  23
ENDBRANCH   8  22
TORSDOF 6
ENDMDL
MODEL 6
REMARK VINA RESULT:      -8.7      6.443      9.843
REMARK  Name = 
REMARK  9 active torsions:
REMARK  status: ('A' for Active; 'I' for Inactive)
REMARK    1  A    between atoms: C_1  and  O_2
REMARK    2  A    between atoms: O_2  and  C_3
REMARK    3  A    between atoms: C_6  and  N_7
REMARK    4  A    between atoms: C_14  and  S_15
REMARK    5  A    between atoms: S_15  and  C_16
REMARK    6  A    between atoms: C_16  and  C_17
REMARK    7  A    between atoms: C_25  and  C_26
REMARK    8  A    between atoms: C_31  and  O_32
REMARK    9  A    between atoms: O_32  and  C_33
REMARK                            x       y       z     vdW  Elec       q    Type
REMARK                         _______ _______ _______ _____ _____    ______ ____
ROOT
ATOM      1  N   UNL     1       9.359   9.573  19.245  0.00  0.00    +0.000 N 
ATOM      2  C   UNL     1       8.417   8.724  18.673  0.00  0.00    +0.000 C 
ATOM      3  O   UNL     1       7.542   9.094  17.900  0.00  0.00    +0.000 OA
ATOM      4  N   UNL     1       8.550   7.410  19.079  0.00  0.00    +0.000 N 
ATOM      5  C   UNL     1       7.731   6.398  18.595  0.00  0.00    +0.000 A 
ATOM      6  N   UNL     1       7.480   5.279  19.244  0.00  0.00    +0.000 NA
ATOM      7  N   UNL     1       6.577   4.470  18.557  0.00  0.00    +0.000 NA
ATOM      8  C   UNL     1       6.238   4.987  17.394  0.00  0.00    +0.000 A 
ATOM      9  S   UNL     1       7.036   6.453  17.030  0.00  0.00    +0.000 S 
ATOM     10  H   UNL     1      10.037   9.175  19.877  0.00  0.00    +0.000 HD
ATOM     11  H   UNL     1       8.933   7.224  19.994  0.00  0.00    +0.000 HD
ENDROOT
BRANCH   1  15
ATOM     12  C   UNL     1       9.408  13.804  18.779  0.00  0.00    +0.000 A 
ATOM     13  C   UNL     1       9.014  12.980  17.724  0.00  0.00    +0.000 A 
ATOM     14  C   UNL     1       9.008  11.592  17.858  0.00  0.00    +0.000 A 
ATOM     15  C   UNL     1       9.430  10.977  19.038  0.00  0.00    +0.000 A 
ATOM     16  C   UNL     1       9.934  11.800  20.052  0.00  0.00    +0.000 A 
ATOM     17  C   UNL     1       9.933  13.210  19.937  0.00  0.00    +0.000 A 
BRANCH  12  19
ATOM     18  C   UNL     1       8.023  15.694  19.083  0.00  0.00    +0.000 C 
ATOM     19  O   UNL     1       9.290  15.165  18.677  0.00  0.00    +0.000 OA
ENDBRANCH  12  19
BRANCH  17  20
ATOM     20  O   UNL     1      10.454  13.822  21.048  0.00  0.00    +0.000 OA
ATOM     21  C   UNL     1       9.581  14.191  22.107  0.00  0.00    +0.000 C 
ENDBRANCH  17  20
ENDBRANCH   1  15
BRANCH   8  22
ATOM     22  S   UNL     1       5.115   4.238  16.274  0.00  0.00    +0.000 S 
BRANCH  22  23
ATOM     23  C   UNL     1       4.202   3.129  17.377  0.00  0.00    +0.000 C 
BRANCH  23  24
ATOM     24  C   UNL     1       3.267   3.904  18.293  0.00  0.00    +0.000 A 
ATOM     25  C   UNL     1       2.669   3.287  19.319  0.00  0.00    +0.000 A 
ATOM     26  C   UNL     1       1.894   4.078  20.286  0.00  0.00    +0.000 A 
ATOM     27  O   UNL     1       1.326   3.491  21.207  0.00  0.00    +0.000 OA
ATOM     28  N   UNL     1       1.905   5.450  20.085  0.00  0.00    +0.000 N 
ATOM     29  C   UNL     1       1.325   6.272  21.045  0.00  0.00    +0.000 A 
ATOM     30  C   UNL     1       1.313   7.603  20.918  0.00  0.00    +0.000 A 
ATOM     31  C   UNL     1       1.849   8.212  19.731  0.00  0.00    +0.000 A 
ATOM     32  C   UNL     1       2.400   7.469  18.758  0.00  0.00    +0.000 A 
ATOM     33  C   UNL     1       2.891   8.050  17.471  0.00  0.00    +0.000 C 
ATOM     34  C   UNL     1       2.515   5.977  18.948  0.00  0.00    +0.000 A 
ATOM     35  N   UNL     1       3.159   5.258  18.074  0.00  0.00    +0.000 NA
ENDBRANCH  23  24
ENDBRANCH  22  23
ENDBRANCH   8  22
TORSDOF 6
ENDMDL
MODEL 7
REMARK VINA RESULT:      -8.6      1.213      2.128
REMARK  Name = 
REMARK  9 active torsions:
REMARK  status: ('A' for Active; 'I' for Inactive)
REMARK    1  A    between atoms: C_1  and  O_2
REMARK    2  A    between atoms: O_2  and  C_3
REMARK    3  A    between atoms: C_6  and  N_7
REMARK    4  A    between atoms: C_14  and  S_15
REMARK    5  A    between atoms: S_15  and  C_16
REMARK    6  A    between atoms: C_16  and  C_17
REMARK    7  A    between atoms: C_25  and  C_26
REMARK    8  A    between atoms: C_31  and  O_32
REMARK    9  A    between atoms: O_32  and  C_33
REMARK                            x       y       z     vdW  Elec       q    Type
REMARK                         _______ _______ _______ _____ _____    ______ ____
ROOT
ATOM      1  N   UNL     1       2.238   6.016  20.362  0.00  0.00    +0.000 N 
ATOM      2  C   UNL     1       1.951   7.376  20.281  0.00  0.00    +0.000 C 
ATOM      3  O   UNL     1       2.280   8.089  19.342  0.00  0.00    +0.000 OA
ATOM      4  N   UNL     1       1.268   7.855  21.382  0.00  0.00    +0.000 N 
ATOM      5  C   UNL     1       0.855   9.177  21.480  0.00  0.00    +0.000 A 
ATOM      6  N   UNL     1       0.644   9.801  22.621  0.00  0.00    +0.000 NA
ATOM      7  N   UNL     1       0.299  11.137  22.429  0.00  0.00    +0.000 NA
ATOM      8  C   UNL     1       0.205  11.443  21.151  0.00  0.00    +0.000 A 
ATOM      9  S   UNL     1       0.468  10.119  20.103  0.00  0.00    +0.000 S 
ATOM     10  H   UNL     1       1.930   5.513  21.180  0.00  0.00    +0.000 HD
ATOM     11  H   UNL     1       1.412   7.404  22.273  0.00  0.00    +0.000 HD
ENDROOT
BRANCH   1  15
ATOM     12  C   UNL     1       4.506   3.980  17.390  0.00  0.00    +0.000 A 
ATOM     13  C   UNL     1       3.112   4.013  17.318  0.00  0.00    +0.000 A 
ATOM     14  C   UNL     1       2.357   4.663  18.294  0.00  0.00    +0.000 A 
ATOM     15  C   UNL     1       2.964   5.272  19.393  0.00  0.00    +0.000 A 
ATOM     16  C   UNL     1       4.351   5.138  19.523  0.00  0.00    +0.000 A 
ATOM     17  C   UNL     1       5.133   4.493  18.536  0.00  0.00    +0.000 A 
BRANCH  12  19
ATOM     18  C   UNL     1       5.900   4.409  15.532  0.00  0.00    +0.000 C 
ATOM     19  O   UNL     1       5.240   3.449  16.364  0.00  0.00    +0.000 OA
ENDBRANCH  12  19
BRANCH  17  20
ATOM     20  O   UNL     1       6.467   4.487  18.853  0.00  0.00    +0.000 OA
ATOM     21  C   UNL     1       7.166   5.722  18.924  0.00  0.00    +0.000 C 
ENDBRANCH  17  20
ENDBRANCH   1  15
BRANCH   8  22
ATOM     22  S   UNL     1      -0.202  13.038  20.548  0.00  0.00    +0.000 S 
BRANCH  22  23
ATOM     23  C   UNL     1      -1.602  12.658  19.461  0.00  0.00    +0.000 C 
BRANCH  23  24
ATOM     24  C   UNL     1      -2.895  12.522  20.249  0.00  0.00    +0.000 A 
ATOM     25  C   UNL     1      -2.923  12.830  21.551  0.00  0.00    +0.000 A 
ATOM     26  C   UNL     1      -4.209  12.844  22.264  0.00  0.00    +0.000 A 
ATOM     27  O   UNL     1      -4.212  13.100  23.467  0.00  0.00    +0.000 OA
ATOM     28  N   UNL     1      -5.329  12.596  21.485  0.00  0.00    +0.000 N 
ATOM     29  C   UNL     1      -6.588  12.745  22.056  0.00  0.00    +0.000 A 
ATOM     30  C   UNL     1      -7.708  12.534  21.358  0.00  0.00    +0.000 A 
ATOM     31  C   UNL     1      -7.625  12.074  19.998  0.00  0.00    +0.000 A 
ATOM     32  C   UNL     1      -6.438  11.887  19.399  0.00  0.00    +0.000 A 
ATOM     33  C   UNL     1      -6.303  11.327  18.019  0.00  0.00    +0.000 C 
ATOM     34  C   UNL     1      -5.174  12.230  20.149  0.00  0.00    +0.000 A 
ATOM     35  N   UNL     1      -4.023  12.176  19.542  0.00  0.00    +0.000 NA
ENDBRANCH  23  24
ENDBRANCH  22  23
ENDBRANCH   8  22
TORSDOF 6
ENDMDL
MODEL 8
REMARK VINA RESULT:      -8.6      1.410      2.507
REMARK  Name = 
REMARK  9 active torsions:
REMARK  status: ('A' for Active; 'I' for Inactive)
REMARK    1  A    between atoms: C_1  and  O_2
REMARK    2  A    between atoms: O_2  and  C_3
REMARK    3  A    between atoms: C_6  and  N_7
REMARK    4  A    between atoms: C_14  and  S_15
REMARK    5  A    between atoms: S_15  and  C_16
REMARK    6  A    between atoms: C_16  and  C_17
REMARK    7  A    between atoms: C_25  and  C_26
REMARK    8  A    between atoms: C_31  and  O_32
REMARK    9  A    between atoms: O_32  and  C_33
REMARK                            x       y       z     vdW  Elec       q    Type
REMARK                         _______ _______ _______ _____ _____    ______ ____
ROOT
ATOM      1  N   UNL     1       2.332   5.647  20.008  0.00  0.00    +0.000 N 
ATOM      2  C   UNL     1       2.105   7.016  20.112  0.00  0.00    +0.000 C 
ATOM      3  O   UNL     1       2.565   7.846  19.340  0.00  0.00    +0.000 OA
ATOM      4  N   UNL     1       1.317   7.356  21.195  0.00  0.00    +0.000 N 
ATOM      5  C   UNL     1       0.941   8.667  21.455  0.00  0.00    +0.000 A 
ATOM      6  N   UNL     1       0.622   9.119  22.651  0.00  0.00    +0.000 NA
ATOM      7  N   UNL     1       0.349  10.485  22.636  0.00  0.00    +0.000 NA
ATOM      8  C   UNL     1       0.414  10.988  21.421  0.00  0.00    +0.000 A 
ATOM      9  S   UNL     1       0.749   9.829  20.211  0.00  0.00    +0.000 S 
ATOM     10  H   UNL     1       1.914   5.041  20.698  0.00  0.00    +0.000 HD
ATOM     11  H   UNL     1       1.341   6.767  22.013  0.00  0.00    +0.000 HD
ENDROOT
BRANCH   1  15
ATOM     12  C   UNL     1       4.836   3.979  16.996  0.00  0.00    +0.000 A 
ATOM     13  C   UNL     1       3.447   3.960  16.853  0.00  0.00    +0.000 A 
ATOM     14  C   UNL     1       2.616   4.489  17.840  0.00  0.00    +0.000 A 
ATOM     15  C   UNL     1       3.139   5.023  19.019  0.00  0.00    +0.000 A 
ATOM     16  C   UNL     1       4.522   4.936  19.210  0.00  0.00    +0.000 A 
ATOM     17  C   UNL     1       5.381   4.415  18.213  0.00  0.00    +0.000 A 
BRANCH  12  19
ATOM     18  C   UNL     1       6.098   4.620  15.104  0.00  0.00    +0.000 C 
ATOM     19  O   UNL     1       5.644   3.573  15.968  0.00  0.00    +0.000 OA
ENDBRANCH  12  19
BRANCH  17  20
ATOM     20  O   UNL     1       6.697   4.437  18.599  0.00  0.00    +0.000 OA
ATOM     21  C   UNL     1       7.444   5.635  18.439  0.00  0.00    +0.000 C 
ENDBRANCH  17  20
ENDBRANCH   1  15
BRANCH   8  22
ATOM     22  S   UNL     1       0.135  12.676  21.037  0.00  0.00    +0.000 S 
BRANCH  22  23
ATOM     23  C   UNL     1      -0.817  12.537  19.501  0.00  0.00    +0.000 C 
BRANCH  23  24
ATOM     24  C   UNL     1      -2.301  12.364  19.783  0.00  0.00    +0.000 A 
ATOM     25  C   UNL     1      -2.801  12.700  20.979  0.00  0.00    +0.000 A 
ATOM     26  C   UNL     1      -4.256  12.676  21.187  0.00  0.00    +0.000 A 
ATOM     27  O   UNL     1      -4.696  12.958  22.301  0.00  0.00    +0.000 OA
ATOM     28  N   UNL     1      -5.017  12.363  20.071  0.00  0.00    +0.000 N 
ATOM     29  C   UNL     1      -6.400  12.472  20.152  0.00  0.00    +0.000 A 
ATOM     30  C   UNL     1      -7.191  12.199  19.109  0.00  0.00    +0.000 A 
ATOM     31  C   UNL     1      -6.615  11.712  17.885  0.00  0.00    +0.000 A 
ATOM     32  C   UNL     1      -5.288  11.562  17.754  0.00  0.00    +0.000 A 
ATOM     33  C   UNL     1      -4.652  10.978  16.533  0.00  0.00    +0.000 C 
ATOM     34  C   UNL     1      -4.385  11.975  18.891  0.00  0.00    +0.000 A 
ATOM     35  N   UNL     1      -3.092  11.956  18.734  0.00  0.00    +0.000 NA
ENDBRANCH  23  24
ENDBRANCH  22  23
ENDBRANCH   8  22
TORSDOF 6
ENDMDL
MODEL 9
REMARK VINA RESULT:      -8.6      1.290      1.763
REMARK  Name = 
REMARK  9 active torsions:
REMARK  status: ('A' for Active; 'I' for Inactive)
REMARK    1  A    between atoms: C_1  and  O_2
REMARK    2  A    between atoms: O_2  and  C_3
REMARK    3  A    between atoms: C_6  and  N_7
REMARK    4  A    between atoms: C_14  and  S_15
REMARK    5  A    between atoms: S_15  and  C_16
REMARK    6  A    between atoms: C_16  and  C_17
REMARK    7  A    between atoms: C_25  and  C_26
REMARK    8  A    between atoms: C_31  and  O_32
REMARK    9  A    between atoms: O_32  and  C_33
REMARK                            x       y       z     vdW  Elec       q    Type
REMARK                         _______ _______ _______ _____ _____    ______ ____
ROOT
ATOM      1  N   UNL     1       2.163   6.711  20.184  0.00  0.00    +0.000 N 
ATOM      2  C   UNL     1       1.616   7.991  20.167  0.00  0.00    +0.000 C 
ATOM      3  O   UNL     1       1.586   8.708  19.175  0.00  0.00    +0.000 OA
ATOM      4  N   UNL     1       1.120   8.387  21.393  0.00  0.00    +0.000 N 
ATOM      5  C   UNL     1       0.498   9.615  21.580  0.00  0.00    +0.000 A 
ATOM      6  N   UNL     1       0.436  10.242  22.737  0.00  0.00    +0.000 NA
ATOM      7  N   UNL     1      -0.188  11.483  22.625  0.00  0.00    +0.000 NA
ATOM      8  C   UNL     1      -0.622  11.707  21.401  0.00  0.00    +0.000 A 
ATOM      9  S   UNL     1      -0.358  10.408  20.325  0.00  0.00    +0.000 S 
ATOM     10  H   UNL     1       2.147   6.198  21.053  0.00  0.00    +0.000 HD
ATOM     11  H   UNL     1       1.542   8.011  22.229  0.00  0.00    +0.000 HD
ENDROOT
BRANCH   1  15
ATOM     12  C   UNL     1       4.127   4.657  17.014  0.00  0.00    +0.000 A 
ATOM     13  C   UNL     1       4.350   6.019  17.221  0.00  0.00    +0.000 A 
ATOM     14  C   UNL     1       3.701   6.707  18.246  0.00  0.00    +0.000 A 
ATOM     15  C   UNL     1       2.780   6.068  19.077  0.00  0.00    +0.000 A 
ATOM     16  C   UNL     1       2.472   4.732  18.795  0.00  0.00    +0.000 A 
ATOM     17  C   UNL     1       3.131   4.017  17.768  0.00  0.00    +0.000 A 
BRANCH  12  19
ATOM     18  C   UNL     1       6.279   4.145  16.186  0.00  0.00    +0.000 C 
ATOM     19  O   UNL     1       4.862   3.967  16.088  0.00  0.00    +0.000 OA
ENDBRANCH  12  19
BRANCH  17  20
ATOM     20  O   UNL     1       2.691   2.722  17.673  0.00  0.00    +0.000 OA
ATOM     21  C   UNL     1       3.432   1.691  18.312  0.00  0.00    +0.000 C 
ENDBRANCH  17  20
ENDBRANCH   1  15
BRANCH   8  22
ATOM     22  S   UNL     1      -1.446  13.173  20.903  0.00  0.00    +0.000 S 
BRANCH  22  23
ATOM     23  C   UNL     1      -2.611  12.523  19.676  0.00  0.00    +0.000 C 
BRANCH  23  24
ATOM     24  C   UNL     1      -4.042  12.568  20.191  0.00  0.00    +0.000 A 
ATOM     25  C   UNL     1      -5.050  12.173  19.405  0.00  0.00    +0.000 A 
ATOM     26  C   UNL     1      -6.406  12.073  19.964  0.00  0.00    +0.000 A 
ATOM     27  O   UNL     1      -7.327  11.738  19.220  0.00  0.00    +0.000 OA
ATOM     28  N   UNL     1      -6.517  12.339  21.320  0.00  0.00    +0.000 N 
ATOM     29  C   UNL     1      -7.736  12.115  21.949  0.00  0.00    +0.000 A 
ATOM     30  C   UNL     1      -7.907  12.339  23.256  0.00  0.00    +0.000 A 
ATOM     31  C   UNL     1      -6.830  12.891  24.033  0.00  0.00    +0.000 A 
ATOM     32  C   UNL     1      -5.637  13.153  23.476  0.00  0.00    +0.000 A 
ATOM     33  C   UNL     1      -4.518  13.807  24.222  0.00  0.00    +0.000 C 
ATOM     34  C   UNL     1      -5.406  12.798  22.028  0.00  0.00    +0.000 A 
ATOM     35  N   UNL     1      -4.220  12.926  21.507  0.00  0.00    +0.000 NA
ENDBRANCH  23  24
ENDBRANCH  22  23
ENDBRANCH   8  22
TORSDOF 6
ENDMDL
