MODEL 1
REMARK VINA RESULT:      -7.0      0.000      0.000
REMARK  Name = 
REMARK  7 active torsions:
REMARK  status: ('A' for Active; 'I' for Inactive)
REMARK    1  A    between atoms: C_1  and  O_2
REMARK    2  A    between atoms: O_2  and  C_3
REMARK    3  A    between atoms: C_7  and  O_8
REMARK    4  A    between atoms: O_8  and  C_9
REMARK    5  A    between atoms: C_14  and  C_15
REMARK    6  A    between atoms: C_18  and  S_19
REMARK    7  A    between atoms: S_19  and  C_20
REMARK                            x       y       z     vdW  Elec       q    Type
REMARK                         _______ _______ _______ _____ _____    ______ ____
ROOT
ATOM      1  C   UNL     1       3.184   3.529  20.284  0.00  0.00    +0.000 A 
ATOM      2  C   UNL     1       2.352   4.646  20.246  0.00  0.00    +0.000 A 
ATOM      3  C   UNL     1       2.639   5.649  19.340  0.00  0.00    +0.000 A 
ATOM      4  C   UNL     1       3.762   5.581  18.482  0.00  0.00    +0.000 A 
ATOM      5  C   UNL     1       4.609   4.484  18.512  0.00  0.00    +0.000 A 
ATOM      6  C   UNL     1       4.301   3.460  19.434  0.00  0.00    +0.000 A 
ATOM      7  C   UNL     1       3.716   6.853  17.689  0.00  0.00    +0.000 C 
ATOM      8  O   UNL     1       4.440   7.257  16.808  0.00  0.00    +0.000 OA
ATOM      9  C   UNL     1       2.525   7.610  18.231  0.00  0.00    +0.000 C 
ATOM     10  C   UNL     1       2.190   8.802  17.743  0.00  0.00    +0.000 C 
ATOM     11  N   UNL     1       1.970   6.862  19.240  0.00  0.00    +0.000 N 
ATOM     12  H   UNL     1       1.025   7.028  19.550  0.00  0.00    +0.000 HD
ENDROOT
BRANCH  10  13
ATOM     13  C   UNL     1       1.122   9.598  18.340  0.00  0.00    +0.000 A 
ATOM     14  C   UNL     1       1.343  10.319  19.515  0.00  0.00    +0.000 A 
ATOM     15  C   UNL     1       0.320  11.113  20.046  0.00  0.00    +0.000 A 
ATOM     16  C   UNL     1      -0.926  11.205  19.410  0.00  0.00    +0.000 A 
ATOM     17  C   UNL     1      -1.149  10.439  18.262  0.00  0.00    +0.000 A 
ATOM     18  C   UNL     1      -0.135   9.634  17.737  0.00  0.00    +0.000 A 
BRANCH  16  19
ATOM     19  S   UNL     1      -2.150  12.283  20.140  0.00  0.00    +0.000 S 
ATOM     20  C   UNL     1      -3.608  11.993  19.098  0.00  0.00    +0.000 C 
ENDBRANCH  16  19
ENDBRANCH  10  13
BRANCH   1  22
ATOM     21  C   UNL     1       1.493   2.699  21.721  0.00  0.00    +0.000 C 
ATOM     22  O   UNL     1       2.794   2.556  21.164  0.00  0.00    +0.000 OA
ENDBRANCH   1  22
BRANCH   5  23
ATOM     23  O   UNL     1       5.723   4.203  17.776  0.00  0.00    +0.000 OA
ATOM     24  C   UNL     1       6.929   4.880  18.087  0.00  0.00    +0.000 C 
ENDBRANCH   5  23
TORSDOF 4
ENDMDL
MODEL 2
REMARK VINA RESULT:      -6.8      0.805      1.362
REMARK  Name = 
REMARK  7 active torsions:
REMARK  status: ('A' for Active; 'I' for Inactive)
REMARK    1  A    between atoms: C_1  and  O_2
REMARK    2  A    between atoms: O_2  and  C_3
REMARK    3  A    between atoms: C_7  and  O_8
REMARK    4  A    between atoms: O_8  and  C_9
REMARK    5  A    between atoms: C_14  and  C_15
REMARK    6  A    between atoms: C_18  and  S_19
REMARK    7  A    between atoms: S_19  and  C_20
REMARK                            x       y       z     vdW  Elec       q    Type
REMARK                         _______ _______ _______ _____ _____    ______ ____
ROOT
ATOM      1  C   UNL     1       3.176   3.654  20.376  0.00  0.00    +0.000 A 
ATOM      2  C   UNL     1       2.363   4.784  20.335  0.00  0.00    +0.000 A 
ATOM      3  C   UNL     1       2.636   5.757  19.392  0.00  0.00    +0.000 A 
ATOM      4  C   UNL     1       3.728   5.646  18.500  0.00  0.00    +0.000 A 
ATOM      5  C   UNL     1       4.557   4.535  18.532  0.00  0.00    +0.000 A 
ATOM      6  C   UNL     1       4.262   3.542  19.492  0.00  0.00    +0.000 A 
ATOM      7  C   UNL     1       3.676   6.897  17.674  0.00  0.00    +0.000 C 
ATOM      8  O   UNL     1       4.377   7.263  16.758  0.00  0.00    +0.000 OA
ATOM      9  C   UNL     1       2.518   7.689  18.234  0.00  0.00    +0.000 C 
ATOM     10  C   UNL     1       2.187   8.873  17.724  0.00  0.00    +0.000 C 
ATOM     11  N   UNL     1       1.985   6.979  19.281  0.00  0.00    +0.000 N 
ATOM     12  H   UNL     1       1.054   7.170  19.617  0.00  0.00    +0.000 HD
ENDROOT
BRANCH  10  13
ATOM     13  C   UNL     1       1.154   9.704  18.334  0.00  0.00    +0.000 A 
ATOM     14  C   UNL     1      -0.151   9.699  17.837  0.00  0.00    +0.000 A 
ATOM     15  C   UNL     1      -1.137  10.468  18.466  0.00  0.00    +0.000 A 
ATOM     16  C   UNL     1      -0.838  11.239  19.598  0.00  0.00    +0.000 A 
ATOM     17  C   UNL     1       0.483  11.273  20.055  0.00  0.00    +0.000 A 
ATOM     18  C   UNL     1       1.473  10.519  19.421  0.00  0.00    +0.000 A 
BRANCH  16  19
ATOM     19  S   UNL     1      -2.176  12.147  20.358  0.00  0.00    +0.000 S 
ATOM     20  C   UNL     1      -1.559  12.434  22.041  0.00  0.00    +0.000 C 
ENDBRANCH  16  19
ENDBRANCH  10  13
BRANCH   1  22
ATOM     21  C   UNL     1       1.433   2.729  21.687  0.00  0.00    +0.000 C 
ATOM     22  O   UNL     1       2.800   2.713  21.296  0.00  0.00    +0.000 OA
ENDBRANCH   1  22
BRANCH   5  23
ATOM     23  O   UNL     1       5.640   4.214  17.767  0.00  0.00    +0.000 OA
ATOM     24  C   UNL     1       5.431   3.881  16.405  0.00  0.00    +0.000 C 
ENDBRANCH   5  23
TORSDOF 4
ENDMDL
MODEL 3
REMARK VINA RESULT:      -6.7      1.877      3.649
REMARK  Name = 
REMARK  7 active torsions:
REMARK  status: ('A' for Active; 'I' for Inactive)
REMARK    1  A    between atoms: C_1  and  O_2
REMARK    2  A    between atoms: O_2  and  C_3
REMARK    3  A    between atoms: C_7  and  O_8
REMARK    4  A    between atoms: O_8  and  C_9
REMARK    5  A    between atoms: C_14  and  C_15
REMARK    6  A    between atoms: C_18  and  S_19
REMARK    7  A    between atoms: S_19  and  C_20
REMARK                            x       y       z     vdW  Elec       q    Type
REMARK                         _______ _______ _______ _____ _____    ______ ____
ROOT
ATOM      1  C   UNL     1       5.090   5.607  16.379  0.00  0.00    +0.000 A 
ATOM      2  C   UNL     1       4.422   6.704  16.918  0.00  0.00    +0.000 A 
ATOM      3  C   UNL     1       3.679   6.520  18.068  0.00  0.00    +0.000 A 
ATOM      4  C   UNL     1       3.558   5.254  18.685  0.00  0.00    +0.000 A 
ATOM      5  C   UNL     1       4.206   4.146  18.158  0.00  0.00    +0.000 A 
ATOM      6  C   UNL     1       4.971   4.347  16.989  0.00  0.00    +0.000 A 
ATOM      7  C   UNL     1       2.670   5.487  19.870  0.00  0.00    +0.000 C 
ATOM      8  O   UNL     1       2.288   4.724  20.728  0.00  0.00    +0.000 OA
ATOM      9  C   UNL     1       2.293   6.948  19.796  0.00  0.00    +0.000 C 
ATOM     10  C   UNL     1       1.498   7.499  20.711  0.00  0.00    +0.000 C 
ATOM     11  N   UNL     1       2.882   7.482  18.677  0.00  0.00    +0.000 N 
ATOM     12  H   UNL     1       3.001   8.478  18.577  0.00  0.00    +0.000 HD
ENDROOT
BRANCH  10  13
ATOM     13  C   UNL     1       1.025   8.873  20.582  0.00  0.00    +0.000 A 
ATOM     14  C   UNL     1       0.659   9.610  21.710  0.00  0.00    +0.000 A 
ATOM     15  C   UNL     1       0.252  10.942  21.568  0.00  0.00    +0.000 A 
ATOM     16  C   UNL     1       0.216  11.555  20.308  0.00  0.00    +0.000 A 
ATOM     17  C   UNL     1       0.538  10.791  19.182  0.00  0.00    +0.000 A 
ATOM     18  C   UNL     1       0.930   9.457  19.318  0.00  0.00    +0.000 A 
BRANCH  16  19
ATOM     19  S   UNL     1      -0.270  13.273  20.237  0.00  0.00    +0.000 S 
ATOM     20  C   UNL     1      -0.355  13.591  18.452  0.00  0.00    +0.000 C 
ENDBRANCH  16  19
ENDBRANCH  10  13
BRANCH   1  22
ATOM     21  C   UNL     1       6.739   4.862  14.849  0.00  0.00    +0.000 C 
ATOM     22  O   UNL     1       5.852   5.888  15.277  0.00  0.00    +0.000 OA
ENDBRANCH   1  22
BRANCH   5  23
ATOM     23  O   UNL     1       4.244   2.852  18.589  0.00  0.00    +0.000 OA
ATOM     24  C   UNL     1       3.278   1.943  18.090  0.00  0.00    +0.000 C 
ENDBRANCH   5  23
TORSDOF 4
ENDMDL
MODEL 4
REMARK VINA RESULT:      -6.7      1.832      3.733
REMARK  Name = 
REMARK  7 active torsions:
REMARK  status: ('A' for Active; 'I' for Inactive)
REMARK    1  A    between atoms: C_1  and  O_2
REMARK    2  A    between atoms: O_2  and  C_3
REMARK    3  A    between atoms: C_7  and  O_8
REMARK    4  A    between atoms: O_8  and  C_9
REMARK    5  A    between atoms: C_14  and  C_15
REMARK    6  A    between atoms: C_18  and  S_19
REMARK    7  A    between atoms: S_19  and  C_20
REMARK                            x       y       z     vdW  Elec       q    Type
REMARK                         _______ _______ _______ _____ _____    ______ ____
ROOT
ATOM      1  C   UNL     1       5.153   5.605  16.446  0.00  0.00    +0.000 A 
ATOM      2  C   UNL     1       4.458   6.700  16.956  0.00  0.00    +0.000 A 
ATOM      3  C   UNL     1       3.694   6.522  18.093  0.00  0.00    +0.000 A 
ATOM      4  C   UNL     1       3.579   5.262  18.726  0.00  0.00    +0.000 A 
ATOM      5  C   UNL     1       4.252   4.156  18.227  0.00  0.00    +0.000 A 
ATOM      6  C   UNL     1       5.039   4.352  17.071  0.00  0.00    +0.000 A 
ATOM      7  C   UNL     1       2.663   5.499  19.889  0.00  0.00    +0.000 C 
ATOM      8  O   UNL     1       2.275   4.743  20.750  0.00  0.00    +0.000 OA
ATOM      9  C   UNL     1       2.267   6.954  19.787  0.00  0.00    +0.000 C 
ATOM     10  C   UNL     1       1.447   7.506  20.677  0.00  0.00    +0.000 C 
ATOM     11  N   UNL     1       2.872   7.480  18.672  0.00  0.00    +0.000 N 
ATOM     12  H   UNL     1       2.979   8.477  18.560  0.00  0.00    +0.000 HD
ENDROOT
BRANCH  10  13
ATOM     13  C   UNL     1       0.958   8.872  20.519  0.00  0.00    +0.000 A 
ATOM     14  C   UNL     1       0.712   9.398  19.249  0.00  0.00    +0.000 A 
ATOM     15  C   UNL     1       0.199  10.694  19.121  0.00  0.00    +0.000 A 
ATOM     16  C   UNL     1      -0.083  11.473  20.253  0.00  0.00    +0.000 A 
ATOM     17  C   UNL     1       0.215  10.952  21.516  0.00  0.00    +0.000 A 
ATOM     18  C   UNL     1       0.740   9.665  21.646  0.00  0.00    +0.000 A 
BRANCH  16  19
ATOM     19  S   UNL     1      -0.782  13.096  19.986  0.00  0.00    +0.000 S 
ATOM     20  C   UNL     1       0.177  13.716  18.575  0.00  0.00    +0.000 C 
ENDBRANCH  16  19
ENDBRANCH  10  13
BRANCH   1  22
ATOM     21  C   UNL     1       6.526   4.763  14.708  0.00  0.00    +0.000 C 
ATOM     22  O   UNL     1       5.933   5.881  15.356  0.00  0.00    +0.000 OA
ENDBRANCH   1  22
BRANCH   5  23
ATOM     23  O   UNL     1       4.300   2.870  18.678  0.00  0.00    +0.000 OA
ATOM     24  C   UNL     1       3.334   1.949  18.200  0.00  0.00    +0.000 C 
ENDBRANCH   5  23
TORSDOF 4
ENDMDL
MODEL 5
REMARK VINA RESULT:      -6.7      3.929      7.698
REMARK  Name = 
REMARK  7 active torsions:
REMARK  status: ('A' for Active; 'I' for Inactive)
REMARK    1  A    between atoms: C_1  and  O_2
REMARK    2  A    between atoms: O_2  and  C_3
REMARK    3  A    between atoms: C_7  and  O_8
REMARK    4  A    between atoms: O_8  and  C_9
REMARK    5  A    between atoms: C_14  and  C_15
REMARK    6  A    between atoms: C_18  and  S_19
REMARK    7  A    between atoms: S_19  and  C_20
REMARK                            x       y       z     vdW  Elec       q    Type
REMARK                         _______ _______ _______ _____ _____    ______ ____
ROOT
ATOM      1  C   UNL     1      -0.382  10.773  22.049  0.00  0.00    +0.000 A 
ATOM      2  C   UNL     1       0.216   9.552  21.744  0.00  0.00    +0.000 A 
ATOM      3  C   UNL     1       0.873   9.427  20.534  0.00  0.00    +0.000 A 
ATOM      4  C   UNL     1       0.925  10.486  19.599  0.00  0.00    +0.000 A 
ATOM      5  C   UNL     1       0.326  11.705  19.878  0.00  0.00    +0.000 A 
ATOM      6  C   UNL     1      -0.333  11.827  21.120  0.00  0.00    +0.000 A 
ATOM      7  C   UNL     1       1.702   9.936  18.440  0.00  0.00    +0.000 C 
ATOM      8  O   UNL     1       2.040  10.459  17.402  0.00  0.00    +0.000 OA
ATOM      9  C   UNL     1       2.004   8.504  18.813  0.00  0.00    +0.000 C 
ATOM     10  C   UNL     1       2.691   7.711  17.995  0.00  0.00    +0.000 C 
ATOM     11  N   UNL     1       1.437   8.257  20.040  0.00  0.00    +0.000 N 
ATOM     12  H   UNL     1       1.739   7.478  20.604  0.00  0.00    +0.000 HD
ENDROOT
BRANCH  10  13
ATOM     13  C   UNL     1       2.880   6.294  18.286  0.00  0.00    +0.000 A 
ATOM     14  C   UNL     1       1.964   5.344  17.829  0.00  0.00    +0.000 A 
ATOM     15  C   UNL     1       2.188   3.986  18.080  0.00  0.00    +0.000 A 
ATOM     16  C   UNL     1       3.327   3.559  18.776  0.00  0.00    +0.000 A 
ATOM     17  C   UNL     1       4.210   4.523  19.271  0.00  0.00    +0.000 A 
ATOM     18  C   UNL     1       3.982   5.881  19.035  0.00  0.00    +0.000 A 
BRANCH  16  19
ATOM     19  S   UNL     1       3.548   1.800  19.002  0.00  0.00    +0.000 S 
ATOM     20  C   UNL     1       4.709   1.719  20.396  0.00  0.00    +0.000 C 
ENDBRANCH  16  19
ENDBRANCH  10  13
BRANCH   1  22
ATOM     21  C   UNL     1      -2.071  11.705  23.424  0.00  0.00    +0.000 C 
ATOM     22  O   UNL     1      -0.957  10.832  23.290  0.00  0.00    +0.000 OA
ENDBRANCH   1  22
BRANCH   5  23
ATOM     23  O   UNL     1       0.266  12.853  19.143  0.00  0.00    +0.000 OA
ATOM     24  C   UNL     1      -0.724  12.960  18.135  0.00  0.00    +0.000 C 
ENDBRANCH   5  23
TORSDOF 4
ENDMDL
MODEL 6
REMARK VINA RESULT:      -6.5      3.980      7.900
REMARK  Name = 
REMARK  7 active torsions:
REMARK  status: ('A' for Active; 'I' for Inactive)
REMARK    1  A    between atoms: C_1  and  O_2
REMARK    2  A    between atoms: O_2  and  C_3
REMARK    3  A    between atoms: C_7  and  O_8
REMARK    4  A    between atoms: O_8  and  C_9
REMARK    5  A    between atoms: C_14  and  C_15
REMARK    6  A    between atoms: C_18  and  S_19
REMARK    7  A    between atoms: S_19  and  C_20
REMARK                            x       y       z     vdW  Elec       q    Type
REMARK                         _______ _______ _______ _____ _____    ______ ____
ROOT
ATOM      1  C   UNL     1       0.686  10.796  19.132  0.00  0.00    +0.000 A 
ATOM      2  C   UNL     1       1.520   9.964  18.389  0.00  0.00    +0.000 A 
ATOM      3  C   UNL     1       1.802   8.705  18.883  0.00  0.00    +0.000 A 
ATOM      4  C   UNL     1       1.294   8.259  20.125  0.00  0.00    +0.000 A 
ATOM      5  C   UNL     1       0.471   9.076  20.886  0.00  0.00    +0.000 A 
ATOM      6  C   UNL     1       0.180  10.356  20.367  0.00  0.00    +0.000 A 
ATOM      7  C   UNL     1       1.843   6.873  20.290  0.00  0.00    +0.000 C 
ATOM      8  O   UNL     1       1.679   6.063  21.173  0.00  0.00    +0.000 OA
ATOM      9  C   UNL     1       2.715   6.650  19.076  0.00  0.00    +0.000 C 
ATOM     10  C   UNL     1       3.367   5.503  18.901  0.00  0.00    +0.000 C 
ATOM     11  N   UNL     1       2.686   7.794  18.317  0.00  0.00    +0.000 N 
ATOM     12  H   UNL     1       2.957   7.780  17.346  0.00  0.00    +0.000 HD
ENDROOT
BRANCH  10  13
ATOM     13  C   UNL     1       4.309   5.322  17.802  0.00  0.00    +0.000 A 
ATOM     14  C   UNL     1       4.159   4.266  16.901  0.00  0.00    +0.000 A 
ATOM     15  C   UNL     1       5.047   4.137  15.827  0.00  0.00    +0.000 A 
ATOM     16  C   UNL     1       6.084   5.061  15.633  0.00  0.00    +0.000 A 
ATOM     17  C   UNL     1       6.252   6.085  16.570  0.00  0.00    +0.000 A 
ATOM     18  C   UNL     1       5.377   6.208  17.652  0.00  0.00    +0.000 A 
BRANCH  16  19
ATOM     19  S   UNL     1       7.134   4.839  14.204  0.00  0.00    +0.000 S 
ATOM     20  C   UNL     1       6.148   3.736  13.152  0.00  0.00    +0.000 C 
ENDBRANCH  16  19
ENDBRANCH  10  13
BRANCH   1  22
ATOM     21  C   UNL     1      -0.969  12.321  18.392  0.00  0.00    +0.000 C 
ATOM     22  O   UNL     1       0.408  11.999  18.542  0.00  0.00    +0.000 OA
ENDBRANCH   1  22
BRANCH   5  23
ATOM     23  O   UNL     1      -0.139   8.850  22.086  0.00  0.00    +0.000 OA
ATOM     24  C   UNL     1      -0.236   9.923  23.007  0.00  0.00    +0.000 C 
ENDBRANCH   5  23
TORSDOF 4
ENDMDL
MODEL 7
REMARK VINA RESULT:      -6.5      0.972      1.353
REMARK  Name = 
REMARK  7 active torsions:
REMARK  status: ('A' for Active; 'I' for Inactive)
REMARK    1  A    between atoms: C_1  and  O_2
REMARK    2  A    between atoms: O_2  and  C_3
REMARK    3  A    between atoms: C_7  and  O_8
REMARK    4  A    between atoms: O_8  and  C_9
REMARK    5  A    between atoms: C_14  and  C_15
REMARK    6  A    between atoms: C_18  and  S_19
REMARK    7  A    between atoms: S_19  and  C_20
REMARK                            x       y       z     vdW  Elec       q    Type
REMARK                         _______ _______ _______ _____ _____    ______ ____
ROOT
ATOM      1  C   UNL     1       2.605   4.345  20.961  0.00  0.00    +0.000 A 
ATOM      2  C   UNL     1       1.942   5.563  20.830  0.00  0.00    +0.000 A 
ATOM      3  C   UNL     1       2.277   6.382  19.768  0.00  0.00    +0.000 A 
ATOM      4  C   UNL     1       3.285   6.029  18.842  0.00  0.00    +0.000 A 
ATOM      5  C   UNL     1       3.966   4.826  18.961  0.00  0.00    +0.000 A 
ATOM      6  C   UNL     1       3.608   3.992  20.042  0.00  0.00    +0.000 A 
ATOM      7  C   UNL     1       3.342   7.179  17.880  0.00  0.00    +0.000 C 
ATOM      8  O   UNL     1       4.024   7.345  16.895  0.00  0.00    +0.000 OA
ATOM      9  C   UNL     1       2.334   8.176  18.401  0.00  0.00    +0.000 C 
ATOM     10  C   UNL     1       2.125   9.332  17.775  0.00  0.00    +0.000 C 
ATOM     11  N   UNL     1       1.782   7.662  19.549  0.00  0.00    +0.000 N 
ATOM     12  H   UNL     1       0.907   8.012  19.907  0.00  0.00    +0.000 HD
ENDROOT
BRANCH  10  13
ATOM     13  C   UNL     1       1.249  10.355  18.336  0.00  0.00    +0.000 A 
ATOM     14  C   UNL     1      -0.131  10.154  18.403  0.00  0.00    +0.000 A 
ATOM     15  C   UNL     1      -0.948  11.129  18.987  0.00  0.00    +0.000 A 
ATOM     16  C   UNL     1      -0.400  12.306  19.517  0.00  0.00    +0.000 A 
ATOM     17  C   UNL     1       0.977  12.517  19.397  0.00  0.00    +0.000 A 
ATOM     18  C   UNL     1       1.793  11.552  18.802  0.00  0.00    +0.000 A 
BRANCH  16  19
ATOM     19  S   UNL     1      -1.521  13.467  20.285  0.00  0.00    +0.000 S 
ATOM     20  C   UNL     1      -3.118  12.611  20.176  0.00  0.00    +0.000 C 
ENDBRANCH  16  19
ENDBRANCH  10  13
BRANCH   1  22
ATOM     21  C   UNL     1       1.382   2.437  21.653  0.00  0.00    +0.000 C 
ATOM     22  O   UNL     1       2.170   3.568  22.001  0.00  0.00    +0.000 OA
ENDBRANCH   1  22
BRANCH   5  23
ATOM     23  O   UNL     1       4.946   4.281  18.185  0.00  0.00    +0.000 OA
ATOM     24  C   UNL     1       6.293   4.634  18.451  0.00  0.00    +0.000 C 
ENDBRANCH   5  23
TORSDOF 4
ENDMDL
MODEL 8
REMARK VINA RESULT:      -6.5      3.920      7.480
REMARK  Name = 
REMARK  7 active torsions:
REMARK  status: ('A' for Active; 'I' for Inactive)
REMARK    1  A    between atoms: C_1  and  O_2
REMARK    2  A    between atoms: O_2  and  C_3
REMARK    3  A    between atoms: C_7  and  O_8
REMARK    4  A    between atoms: O_8  and  C_9
REMARK    5  A    between atoms: C_14  and  C_15
REMARK    6  A    between atoms: C_18  and  S_19
REMARK    7  A    between atoms: S_19  and  C_20
REMARK                            x       y       z     vdW  Elec       q    Type
REMARK                         _______ _______ _______ _____ _____    ______ ____
ROOT
ATOM      1  C   UNL     1      -0.013  10.581  21.954  0.00  0.00    +0.000 A 
ATOM      2  C   UNL     1       0.570   9.361  21.618  0.00  0.00    +0.000 A 
ATOM      3  C   UNL     1       1.157   9.235  20.373  0.00  0.00    +0.000 A 
ATOM      4  C   UNL     1       1.153  10.293  19.435  0.00  0.00    +0.000 A 
ATOM      5  C   UNL     1       0.567  11.511  19.745  0.00  0.00    +0.000 A 
ATOM      6  C   UNL     1      -0.021  11.633  21.023  0.00  0.00    +0.000 A 
ATOM      7  C   UNL     1       1.864   9.744  18.234  0.00  0.00    +0.000 C 
ATOM      8  O   UNL     1       2.141  10.266  17.178  0.00  0.00    +0.000 OA
ATOM      9  C   UNL     1       2.191   8.313  18.592  0.00  0.00    +0.000 C 
ATOM     10  C   UNL     1       2.833   7.521  17.737  0.00  0.00    +0.000 C 
ATOM     11  N   UNL     1       1.696   8.066  19.849  0.00  0.00    +0.000 N 
ATOM     12  H   UNL     1       2.031   7.289  20.397  0.00  0.00    +0.000 HD
ENDROOT
BRANCH  10  13
ATOM     13  C   UNL     1       3.042   6.104  18.019  0.00  0.00    +0.000 A 
ATOM     14  C   UNL     1       4.278   5.643  18.476  0.00  0.00    +0.000 A 
ATOM     15  C   UNL     1       4.443   4.288  18.785  0.00  0.00    +0.000 A 
ATOM     16  C   UNL     1       3.380   3.383  18.652  0.00  0.00    +0.000 A 
ATOM     17  C   UNL     1       2.163   3.849  18.146  0.00  0.00    +0.000 A 
ATOM     18  C   UNL     1       1.999   5.198  17.823  0.00  0.00    +0.000 A 
BRANCH  16  19
ATOM     19  S   UNL     1       3.678   1.683  19.118  0.00  0.00    +0.000 S 
ATOM     20  C   UNL     1       4.734   1.852  20.585  0.00  0.00    +0.000 C 
ENDBRANCH  16  19
ENDBRANCH  10  13
BRANCH   1  22
ATOM     21  C   UNL     1      -1.738  11.352  23.385  0.00  0.00    +0.000 C 
ATOM     22  O   UNL     1      -0.517  10.641  23.226  0.00  0.00    +0.000 OA
ENDBRANCH   1  22
BRANCH   5  23
ATOM     23  O   UNL     1       0.463  12.658  19.013  0.00  0.00    +0.000 OA
ATOM     24  C   UNL     1       1.635  13.418  18.777  0.00  0.00    +0.000 C 
ENDBRANCH   5  23
TORSDOF 4
ENDMDL
MODEL 9
REMARK VINA RESULT:      -6.5      1.147      1.221
REMARK  Name = 
REMARK  7 active torsions:
REMARK  status: ('A' for Active; 'I' for Inactive)
REMARK    1  A    between atoms: C_1  and  O_2
REMARK    2  A    between atoms: O_2  and  C_3
REMARK    3  A    between atoms: C_7  and  O_8
REMARK    4  A    between atoms: O_8  and  C_9
REMARK    5  A    between atoms: C_14  and  C_15
REMARK    6  A    between atoms: C_18  and  S_19
REMARK    7  A    between atoms: S_19  and  C_20
REMARK                            x       y       z     vdW  Elec       q    Type
REMARK                         _______ _______ _______ _____ _____    ______ ____
ROOT
ATOM      1  C   UNL     1       2.604   4.361  20.969  0.00  0.00    +0.000 A 
ATOM      2  C   UNL     1       1.933   5.578  20.867  0.00  0.00    +0.000 A 
ATOM      3  C   UNL     1       2.235   6.407  19.803  0.00  0.00    +0.000 A 
ATOM      4  C   UNL     1       3.218   6.066  18.846  0.00  0.00    +0.000 A 
ATOM      5  C   UNL     1       3.906   4.865  18.936  0.00  0.00    +0.000 A 
ATOM      6  C   UNL     1       3.582   4.020  20.019  0.00  0.00    +0.000 A 
ATOM      7  C   UNL     1       3.243   7.223  17.892  0.00  0.00    +0.000 C 
ATOM      8  O   UNL     1       3.896   7.401  16.890  0.00  0.00    +0.000 OA
ATOM      9  C   UNL     1       2.246   8.212  18.450  0.00  0.00    +0.000 C 
ATOM     10  C   UNL     1       2.015   9.372  17.840  0.00  0.00    +0.000 C 
ATOM     11  N   UNL     1       1.729   7.686  19.608  0.00  0.00    +0.000 N 
ATOM     12  H   UNL     1       0.863   8.029  19.994  0.00  0.00    +0.000 HD
ENDROOT
BRANCH  10  13
ATOM     13  C   UNL     1       1.152  10.387  18.433  0.00  0.00    +0.000 A 
ATOM     14  C   UNL     1       1.695  11.544  18.996  0.00  0.00    +0.000 A 
ATOM     15  C   UNL     1       0.846  12.527  19.519  0.00  0.00    +0.000 A 
ATOM     16  C   UNL     1      -0.547  12.373  19.477  0.00  0.00    +0.000 A 
ATOM     17  C   UNL     1      -1.075  11.189  18.956  0.00  0.00    +0.000 A 
ATOM     18  C   UNL     1      -0.231  10.199  18.447  0.00  0.00    +0.000 A 
BRANCH  16  19
ATOM     19  S   UNL     1      -1.546  13.706  20.126  0.00  0.00    +0.000 S 
ATOM     20  C   UNL     1      -3.140  12.895  20.435  0.00  0.00    +0.000 C 
ENDBRANCH  16  19
ENDBRANCH  10  13
BRANCH   1  22
ATOM     21  C   UNL     1       1.557   2.354  21.670  0.00  0.00    +0.000 C 
ATOM     22  O   UNL     1       2.202   3.574  22.014  0.00  0.00    +0.000 OA
ENDBRANCH   1  22
BRANCH   5  23
ATOM     23  O   UNL     1       4.866   4.330  18.128  0.00  0.00    +0.000 OA
ATOM     24  C   UNL     1       4.488   3.864  16.844  0.00  0.00    +0.000 C 
ENDBRANCH   5  23
TORSDOF 4
ENDMDL
