MODEL 1
REMARK VINA RESULT:      -7.6      0.000      0.000
REMARK  Name = 
REMARK  9 active torsions:
REMARK  status: ('A' for Active; 'I' for Inactive)
REMARK    1  A    between atoms: C_1  and  C_2
REMARK    2  A    between atoms: C_2  and  S_3
REMARK    3  A    between atoms: S_3  and  C_4
REMARK    4  A    between atoms: N_12  and  C_13
REMARK    5  A    between atoms: N_16  and  C_17
REMARK    6  A    between atoms: C_17  and  C_18
REMARK    7  A    between atoms: C_18  and  C_19
REMARK    8  A    between atoms: C_19  and  C_20
REMARK    9  A    between atoms: C_20  and  C_22
REMARK                            x       y       z     vdW  Elec       q    Type
REMARK                         _______ _______ _______ _____ _____    ______ ____
ROOT
ATOM      1  C   UNL     1      -1.841  12.013  20.116  0.00  0.00    +0.000 C 
ATOM      2  C   UNL     1      -0.965  13.004  19.340  0.00  0.00    +0.000 C 
ATOM      3  C   UNL     1      -0.033  12.281  18.380  0.00  0.00    +0.000 C 
ATOM      4  N   UNL     1       0.896  11.403  19.103  0.00  0.00    +0.000 NA
ATOM      5  C   UNL     1       0.206  10.423  19.949  0.00  0.00    +0.000 C 
ATOM      6  C   UNL     1      -0.934  10.982  20.807  0.00  0.00    +0.000 C 
ENDROOT
BRANCH   1  15
ATOM      7  C   UNL     1      -4.215  12.175  19.337  0.00  0.00    +0.000 A 
ATOM      8  N   UNL     1      -4.806  12.194  18.168  0.00  0.00    +0.000 NA
ATOM      9  C   UNL     1      -3.996  11.451  17.353  0.00  0.00    +0.000 A 
ATOM     10  C   UNL     1      -4.119  11.198  15.978  0.00  0.00    +0.000 A 
ATOM     11  C   UNL     1      -3.200  10.346  15.360  0.00  0.00    +0.000 A 
ATOM     12  C   UNL     1      -2.223   9.701  16.115  0.00  0.00    +0.000 A 
ATOM     13  C   UNL     1      -2.088   9.945  17.485  0.00  0.00    +0.000 A 
ATOM     14  C   UNL     1      -2.927  10.900  18.068  0.00  0.00    +0.000 A 
ATOM     15  N   UNL     1      -2.964  11.573  19.278  0.00  0.00    +0.000 N 
BRANCH   7  16
ATOM     16  S   UNL     1      -4.816  12.973  20.760  0.00  0.00    +0.000 S 
BRANCH  16  18
ATOM     17  C   UNL     1      -7.434  13.174  21.484  0.00  0.00    +0.000 C 
ATOM     18  C   UNL     1      -6.426  12.165  20.960  0.00  0.00    +0.000 C 
ENDBRANCH  16  18
ENDBRANCH   7  16
ENDBRANCH   1  15
BRANCH   4  19
ATOM     19  C   UNL     1       1.775  10.685  18.151  0.00  0.00    +0.000 C 
BRANCH  19  20
ATOM     20  C   UNL     1       1.364   9.230  17.909  0.00  0.00    +0.000 C 
BRANCH  20  21
ATOM     21  C   UNL     1       2.571   8.298  17.903  0.00  0.00    +0.000 C 
BRANCH  21  22
ATOM     22  C   UNL     1       2.426   7.184  18.913  0.00  0.00    +0.000 C 
ATOM     23  O   UNL     1       2.224   7.400  20.108  0.00  0.00    +0.000 OA
BRANCH  22  24
ATOM     24  C   UNL     1       2.530   5.773  18.438  0.00  0.00    +0.000 A 
ATOM     25  C   UNL     1       3.579   5.342  17.615  0.00  0.00    +0.000 A 
ATOM     26  C   UNL     1       3.633   4.008  17.200  0.00  0.00    +0.000 A 
ATOM     27  C   UNL     1       2.648   3.120  17.612  0.00  0.00    +0.000 A 
ATOM     28  F   UNL     1       2.702   1.842  17.211  0.00  0.00    +0.000 F 
ATOM     29  C   UNL     1       1.601   3.537  18.426  0.00  0.00    +0.000 A 
ATOM     30  C   UNL     1       1.543   4.864  18.841  0.00  0.00    +0.000 A 
ENDBRANCH  22  24
ENDBRANCH  21  22
ENDBRANCH  20  21
ENDBRANCH  19  20
ENDBRANCH   4  19
TORSDOF 8
ENDMDL
MODEL 2
REMARK VINA RESULT:      -7.3      5.088     10.386
REMARK  Name = 
REMARK  9 active torsions:
REMARK  status: ('A' for Active; 'I' for Inactive)
REMARK    1  A    between atoms: C_1  and  C_2
REMARK    2  A    between atoms: C_2  and  S_3
REMARK    3  A    between atoms: S_3  and  C_4
REMARK    4  A    between atoms: N_12  and  C_13
REMARK    5  A    between atoms: N_16  and  C_17
REMARK    6  A    between atoms: C_17  and  C_18
REMARK    7  A    between atoms: C_18  and  C_19
REMARK    8  A    between atoms: C_19  and  C_20
REMARK    9  A    between atoms: C_20  and  C_22
REMARK                            x       y       z     vdW  Elec       q    Type
REMARK                         _______ _______ _______ _____ _____    ______ ____
ROOT
ATOM      1  C   UNL     1       4.567   3.490  17.337  0.00  0.00    +0.000 C 
ATOM      2  C   UNL     1       3.255   4.127  16.859  0.00  0.00    +0.000 C 
ATOM      3  C   UNL     1       2.881   5.326  17.715  0.00  0.00    +0.000 C 
ATOM      4  N   UNL     1       2.651   4.931  19.110  0.00  0.00    +0.000 NA
ATOM      5  C   UNL     1       3.807   4.246  19.702  0.00  0.00    +0.000 C 
ATOM      6  C   UNL     1       4.443   3.158  18.832  0.00  0.00    +0.000 C 
ENDROOT
BRANCH   1  15
ATOM      7  C   UNL     1       5.784   4.723  15.529  0.00  0.00    +0.000 A 
ATOM      8  N   UNL     1       6.394   5.880  15.448  0.00  0.00    +0.000 NA
ATOM      9  C   UNL     1       6.870   6.116  16.709  0.00  0.00    +0.000 A 
ATOM     10  C   UNL     1       7.546   7.244  17.201  0.00  0.00    +0.000 A 
ATOM     11  C   UNL     1       8.002   7.237  18.522  0.00  0.00    +0.000 A 
ATOM     12  C   UNL     1       7.853   6.098  19.311  0.00  0.00    +0.000 A 
ATOM     13  C   UNL     1       7.179   4.970  18.833  0.00  0.00    +0.000 A 
ATOM     14  C   UNL     1       6.611   5.035  17.559  0.00  0.00    +0.000 A 
ATOM     15  N   UNL     1       5.710   4.265  16.839  0.00  0.00    +0.000 N 
BRANCH   7  16
ATOM     16  S   UNL     1       4.983   3.934  14.203  0.00  0.00    +0.000 S 
BRANCH  16  18
ATOM     17  C   UNL     1       5.883   2.910  11.846  0.00  0.00    +0.000 C 
ATOM     18  C   UNL     1       6.362   3.702  13.051  0.00  0.00    +0.000 C 
ENDBRANCH  16  18
ENDBRANCH   7  16
ENDBRANCH   1  15
BRANCH   4  19
ATOM     19  C   UNL     1       2.317   6.115  19.935  0.00  0.00    +0.000 C 
BRANCH  19  20
ATOM     20  C   UNL     1       2.617   7.450  19.248  0.00  0.00    +0.000 C 
BRANCH  20  21
ATOM     21  C   UNL     1       1.665   8.547  19.712  0.00  0.00    +0.000 C 
BRANCH  21  22
ATOM     22  C   UNL     1       1.127   9.353  18.552  0.00  0.00    +0.000 C 
ATOM     23  O   UNL     1       1.665   9.352  17.445  0.00  0.00    +0.000 OA
BRANCH  22  24
ATOM     24  C   UNL     1      -0.101  10.174  18.763  0.00  0.00    +0.000 A 
ATOM     25  C   UNL     1      -0.277  10.968  19.904  0.00  0.00    +0.000 A 
ATOM     26  C   UNL     1      -1.445  11.722  20.052  0.00  0.00    +0.000 A 
ATOM     27  C   UNL     1      -2.419  11.682  19.063  0.00  0.00    +0.000 A 
ATOM     28  F   UNL     1      -3.537  12.405  19.209  0.00  0.00    +0.000 F 
ATOM     29  C   UNL     1      -2.256  10.896  17.928  0.00  0.00    +0.000 A 
ATOM     30  C   UNL     1      -1.095  10.143  17.776  0.00  0.00    +0.000 A 
ENDBRANCH  22  24
ENDBRANCH  21  22
ENDBRANCH  20  21
ENDBRANCH  19  20
ENDBRANCH   4  19
TORSDOF 8
ENDMDL
MODEL 3
REMARK VINA RESULT:      -7.3      5.326     10.065
REMARK  Name = 
REMARK  9 active torsions:
REMARK  status: ('A' for Active; 'I' for Inactive)
REMARK    1  A    between atoms: C_1  and  C_2
REMARK    2  A    between atoms: C_2  and  S_3
REMARK    3  A    between atoms: S_3  and  C_4
REMARK    4  A    between atoms: N_12  and  C_13
REMARK    5  A    between atoms: N_16  and  C_17
REMARK    6  A    between atoms: C_17  and  C_18
REMARK    7  A    between atoms: C_18  and  C_19
REMARK    8  A    between atoms: C_19  and  C_20
REMARK    9  A    between atoms: C_20  and  C_22
REMARK                            x       y       z     vdW  Elec       q    Type
REMARK                         _______ _______ _______ _____ _____    ______ ____
ROOT
ATOM      1  C   UNL     1       5.267   3.935  17.290  0.00  0.00    +0.000 C 
ATOM      2  C   UNL     1       3.755   3.778  17.082  0.00  0.00    +0.000 C 
ATOM      3  C   UNL     1       3.009   5.037  17.494  0.00  0.00    +0.000 C 
ATOM      4  N   UNL     1       3.191   5.319  18.923  0.00  0.00    +0.000 NA
ATOM      5  C   UNL     1       4.605   5.440  19.300  0.00  0.00    +0.000 C 
ATOM      6  C   UNL     1       5.529   4.351  18.746  0.00  0.00    +0.000 C 
ENDROOT
BRANCH   1  15
ATOM      7  C   UNL     1       6.944   5.538  16.350  0.00  0.00    +0.000 A 
ATOM      8  N   UNL     1       7.718   5.553  15.292  0.00  0.00    +0.000 NA
ATOM      9  C   UNL     1       7.037   4.834  14.348  0.00  0.00    +0.000 A 
ATOM     10  C   UNL     1       7.434   4.481  13.049  0.00  0.00    +0.000 A 
ATOM     11  C   UNL     1       6.537   3.792  12.229  0.00  0.00    +0.000 A 
ATOM     12  C   UNL     1       5.242   3.527  12.671  0.00  0.00    +0.000 A 
ATOM     13  C   UNL     1       4.834   3.872  13.963  0.00  0.00    +0.000 A 
ATOM     14  C   UNL     1       5.780   4.440  14.821  0.00  0.00    +0.000 A 
ATOM     15  N   UNL     1       5.848   4.701  16.180  0.00  0.00    +0.000 N 
BRANCH   7  16
ATOM     16  S   UNL     1       7.326   6.305  17.862  0.00  0.00    +0.000 S 
BRANCH  16  18
ATOM     17  C   UNL     1       8.283   8.847  18.059  0.00  0.00    +0.000 C 
ATOM     18  C   UNL     1       7.156   8.054  17.419  0.00  0.00    +0.000 C 
ENDBRANCH  16  18
ENDBRANCH   7  16
ENDBRANCH   1  15
BRANCH   4  19
ATOM     19  C   UNL     1       2.483   6.565  19.299  0.00  0.00    +0.000 C 
BRANCH  19  20
ATOM     20  C   UNL     1       2.682   7.712  18.306  0.00  0.00    +0.000 C 
BRANCH  20  21
ATOM     21  C   UNL     1       1.390   8.488  18.077  0.00  0.00    +0.000 C 
BRANCH  21  22
ATOM     22  C   UNL     1       1.442   9.864  18.701  0.00  0.00    +0.000 C 
ATOM     23  O   UNL     1       2.068  10.793  18.193  0.00  0.00    +0.000 OA
BRANCH  22  24
ATOM     24  C   UNL     1       0.703  10.096  19.976  0.00  0.00    +0.000 A 
ATOM     25  C   UNL     1       0.083  11.319  20.264  0.00  0.00    +0.000 A 
ATOM     26  C   UNL     1      -0.600  11.485  21.472  0.00  0.00    +0.000 A 
ATOM     27  C   UNL     1      -0.664  10.431  22.375  0.00  0.00    +0.000 A 
ATOM     28  F   UNL     1      -1.319  10.594  23.533  0.00  0.00    +0.000 F 
ATOM     29  C   UNL     1      -0.051   9.214  22.101  0.00  0.00    +0.000 A 
ATOM     30  C   UNL     1       0.631   9.045  20.900  0.00  0.00    +0.000 A 
ENDBRANCH  22  24
ENDBRANCH  21  22
ENDBRANCH  20  21
ENDBRANCH  19  20
ENDBRANCH   4  19
TORSDOF 8
ENDMDL
MODEL 4
REMARK VINA RESULT:      -7.2      6.723     10.195
REMARK  Name = 
REMARK  9 active torsions:
REMARK  status: ('A' for Active; 'I' for Inactive)
REMARK    1  A    between atoms: C_1  and  C_2
REMARK    2  A    between atoms: C_2  and  S_3
REMARK    3  A    between atoms: S_3  and  C_4
REMARK    4  A    between atoms: N_12  and  C_13
REMARK    5  A    between atoms: N_16  and  C_17
REMARK    6  A    between atoms: C_17  and  C_18
REMARK    7  A    between atoms: C_18  and  C_19
REMARK    8  A    between atoms: C_19  and  C_20
REMARK    9  A    between atoms: C_20  and  C_22
REMARK                            x       y       z     vdW  Elec       q    Type
REMARK                         _______ _______ _______ _____ _____    ______ ____
ROOT
ATOM      1  C   UNL     1       4.996   4.944  17.225  0.00  0.00    +0.000 C 
ATOM      2  C   UNL     1       6.125   4.441  18.133  0.00  0.00    +0.000 C 
ATOM      3  C   UNL     1       6.800   5.592  18.862  0.00  0.00    +0.000 C 
ATOM      4  N   UNL     1       7.429   6.522  17.917  0.00  0.00    +0.000 NA
ATOM      5  C   UNL     1       6.481   7.054  16.931  0.00  0.00    +0.000 C 
ATOM      6  C   UNL     1       5.558   6.018  16.281  0.00  0.00    +0.000 C 
ENDROOT
BRANCH   1  15
ATOM      7  C   UNL     1       3.453   4.448  19.133  0.00  0.00    +0.000 A 
ATOM      8  N   UNL     1       2.869   5.165  20.061  0.00  0.00    +0.000 NA
ATOM      9  C   UNL     1       2.678   6.393  19.489  0.00  0.00    +0.000 A 
ATOM     10  C   UNL     1       2.151   7.562  20.059  0.00  0.00    +0.000 A 
ATOM     11  C   UNL     1       1.986   8.693  19.256  0.00  0.00    +0.000 A 
ATOM     12  C   UNL     1       2.271   8.636  17.894  0.00  0.00    +0.000 A 
ATOM     13  C   UNL     1       2.799   7.478  17.313  0.00  0.00    +0.000 A 
ATOM     14  C   UNL     1       3.085   6.396  18.150  0.00  0.00    +0.000 A 
ATOM     15  N   UNL     1       3.792   5.210  18.023  0.00  0.00    +0.000 N 
BRANCH   7  16
ATOM     16  S   UNL     1       3.933   2.788  19.325  0.00  0.00    +0.000 S 
BRANCH  16  18
ATOM     17  C   UNL     1       1.328   2.246  18.744  0.00  0.00    +0.000 C 
ATOM     18  C   UNL     1       2.736   1.951  18.253  0.00  0.00    +0.000 C 
ENDBRANCH  16  18
ENDBRANCH   7  16
ENDBRANCH   1  15
BRANCH   4  19
ATOM     19  C   UNL     1       8.056   7.652  18.642  0.00  0.00    +0.000 C 
BRANCH  19  20
ATOM     20  C   UNL     1       7.903   9.001  17.933  0.00  0.00    +0.000 C 
BRANCH  20  21
ATOM     21  C   UNL     1       9.233   9.740  17.839  0.00  0.00    +0.000 C 
BRANCH  21  22
ATOM     22  C   UNL     1       9.306  10.893  18.813  0.00  0.00    +0.000 C 
ATOM     23  O   UNL     1       8.995  10.775  19.998  0.00  0.00    +0.000 OA
BRANCH  22  24
ATOM     24  C   UNL     1       9.775  12.219  18.314  0.00  0.00    +0.000 A 
ATOM     25  C   UNL     1      10.851  12.340  17.424  0.00  0.00    +0.000 A 
ATOM     26  C   UNL     1      11.248  13.606  16.983  0.00  0.00    +0.000 A 
ATOM     27  C   UNL     1      10.569  14.733  17.426  0.00  0.00    +0.000 A 
ATOM     28  F   UNL     1      10.954  15.944  17.002  0.00  0.00    +0.000 F 
ATOM     29  C   UNL     1       9.502  14.625  18.311  0.00  0.00    +0.000 A 
ATOM     30  C   UNL     1       9.103  13.367  18.753  0.00  0.00    +0.000 A 
ENDBRANCH  22  24
ENDBRANCH  21  22
ENDBRANCH  20  21
ENDBRANCH  19  20
ENDBRANCH   4  19
TORSDOF 8
ENDMDL
MODEL 5
REMARK VINA RESULT:      -7.2      1.219      1.428
REMARK  Name = 
REMARK  9 active torsions:
REMARK  status: ('A' for Active; 'I' for Inactive)
REMARK    1  A    between atoms: C_1  and  C_2
REMARK    2  A    between atoms: C_2  and  S_3
REMARK    3  A    between atoms: S_3  and  C_4
REMARK    4  A    between atoms: N_12  and  C_13
REMARK    5  A    between atoms: N_16  and  C_17
REMARK    6  A    between atoms: C_17  and  C_18
REMARK    7  A    between atoms: C_18  and  C_19
REMARK    8  A    between atoms: C_19  and  C_20
REMARK    9  A    between atoms: C_20  and  C_22
REMARK                            x       y       z     vdW  Elec       q    Type
REMARK                         _______ _______ _______ _____ _____    ______ ____
ROOT
ATOM      1  C   UNL     1      -1.890  11.895  19.897  0.00  0.00    +0.000 C 
ATOM      2  C   UNL     1      -0.996  12.899  19.157  0.00  0.00    +0.000 C 
ATOM      3  C   UNL     1      -0.069  12.194  18.179  0.00  0.00    +0.000 C 
ATOM      4  N   UNL     1       0.844  11.282  18.878  0.00  0.00    +0.000 NA
ATOM      5  C   UNL     1       0.136  10.284  19.690  0.00  0.00    +0.000 C 
ATOM      6  C   UNL     1      -1.001  10.831  20.559  0.00  0.00    +0.000 C 
ENDROOT
BRANCH   1  15
ATOM      7  C   UNL     1      -4.248  12.134  19.090  0.00  0.00    +0.000 A 
ATOM      8  N   UNL     1      -4.823  12.184  17.914  0.00  0.00    +0.000 NA
ATOM      9  C   UNL     1      -4.024  11.428  17.100  0.00  0.00    +0.000 A 
ATOM     10  C   UNL     1      -4.137  11.195  15.720  0.00  0.00    +0.000 A 
ATOM     11  C   UNL     1      -3.235  10.324  15.105  0.00  0.00    +0.000 A 
ATOM     12  C   UNL     1      -2.286   9.642  15.864  0.00  0.00    +0.000 A 
ATOM     13  C   UNL     1      -2.162   9.867  17.238  0.00  0.00    +0.000 A 
ATOM     14  C   UNL     1      -2.980  10.838  17.822  0.00  0.00    +0.000 A 
ATOM     15  N   UNL     1      -3.014  11.498  19.040  0.00  0.00    +0.000 N 
BRANCH   7  16
ATOM     16  S   UNL     1      -4.845  12.933  20.514  0.00  0.00    +0.000 S 
BRANCH  16  18
ATOM     17  C   UNL     1      -7.000  12.441  22.105  0.00  0.00    +0.000 C 
ATOM     18  C   UNL     1      -6.449  12.119  20.726  0.00  0.00    +0.000 C 
ENDBRANCH  16  18
ENDBRANCH   7  16
ENDBRANCH   1  15
BRANCH   4  19
ATOM     19  C   UNL     1       1.719  10.582  17.908  0.00  0.00    +0.000 C 
BRANCH  19  20
ATOM     20  C   UNL     1       1.639   9.056  17.995  0.00  0.00    +0.000 C 
BRANCH  20  21
ATOM     21  C   UNL     1       2.960   8.449  18.457  0.00  0.00    +0.000 C 
BRANCH  21  22
ATOM     22  C   UNL     1       3.165   7.059  17.900  0.00  0.00    +0.000 C 
ATOM     23  O   UNL     1       3.894   6.839  16.933  0.00  0.00    +0.000 OA
BRANCH  22  24
ATOM     24  C   UNL     1       2.458   5.919  18.551  0.00  0.00    +0.000 A 
ATOM     25  C   UNL     1       1.995   4.816  17.821  0.00  0.00    +0.000 A 
ATOM     26  C   UNL     1       1.341   3.771  18.480  0.00  0.00    +0.000 A 
ATOM     27  C   UNL     1       1.161   3.832  19.855  0.00  0.00    +0.000 A 
ATOM     28  F   UNL     1       0.532   2.829  20.483  0.00  0.00    +0.000 F 
ATOM     29  C   UNL     1       1.613   4.922  20.590  0.00  0.00    +0.000 A 
ATOM     30  C   UNL     1       2.264   5.965  19.938  0.00  0.00    +0.000 A 
ENDBRANCH  22  24
ENDBRANCH  21  22
ENDBRANCH  20  21
ENDBRANCH  19  20
ENDBRANCH   4  19
TORSDOF 8
ENDMDL
MODEL 6
REMARK VINA RESULT:      -7.1      1.470      1.669
REMARK  Name = 
REMARK  9 active torsions:
REMARK  status: ('A' for Active; 'I' for Inactive)
REMARK    1  A    between atoms: C_1  and  C_2
REMARK    2  A    between atoms: C_2  and  S_3
REMARK    3  A    between atoms: S_3  and  C_4
REMARK    4  A    between atoms: N_12  and  C_13
REMARK    5  A    between atoms: N_16  and  C_17
REMARK    6  A    between atoms: C_17  and  C_18
REMARK    7  A    between atoms: C_18  and  C_19
REMARK    8  A    between atoms: C_19  and  C_20
REMARK    9  A    between atoms: C_20  and  C_22
REMARK                            x       y       z     vdW  Elec       q    Type
REMARK                         _______ _______ _______ _____ _____    ______ ____
ROOT
ATOM      1  C   UNL     1      -1.191  12.069  20.445  0.00  0.00    +0.000 C 
ATOM      2  C   UNL     1      -0.339  12.941  19.514  0.00  0.00    +0.000 C 
ATOM      3  C   UNL     1       0.397  12.095  18.488  0.00  0.00    +0.000 C 
ATOM      4  N   UNL     1       1.332  11.167  19.137  0.00  0.00    +0.000 NA
ATOM      5  C   UNL     1       0.673  10.292  20.114  0.00  0.00    +0.000 C 
ATOM      6  C   UNL     1      -0.296  10.989  21.073  0.00  0.00    +0.000 C 
ENDROOT
BRANCH   1  15
ATOM      7  C   UNL     1      -3.641  12.364  20.020  0.00  0.00    +0.000 A 
ATOM      8  N   UNL     1      -4.393  12.429  18.949  0.00  0.00    +0.000 NA
ATOM      9  C   UNL     1      -3.750  11.657  18.020  0.00  0.00    +0.000 A 
ATOM     10  C   UNL     1      -4.084  11.429  16.676  0.00  0.00    +0.000 A 
ATOM     11  C   UNL     1      -3.310  10.539  15.927  0.00  0.00    +0.000 A 
ATOM     12  C   UNL     1      -2.270   9.834  16.528  0.00  0.00    +0.000 A 
ATOM     13  C   UNL     1      -1.926  10.053  17.866  0.00  0.00    +0.000 A 
ATOM     14  C   UNL     1      -2.619  11.041  18.569  0.00  0.00    +0.000 A 
ATOM     15  N   UNL     1      -2.446  11.699  19.776  0.00  0.00    +0.000 N 
BRANCH   7  16
ATOM     16  S   UNL     1      -3.987  13.173  21.519  0.00  0.00    +0.000 S 
BRANCH  16  18
ATOM     17  C   UNL     1      -5.412  15.412  22.130  0.00  0.00    +0.000 C 
ATOM     18  C   UNL     1      -5.001  14.559  20.941  0.00  0.00    +0.000 C 
ENDBRANCH  16  18
ENDBRANCH   7  16
ENDBRANCH   1  15
BRANCH   4  19
ATOM     19  C   UNL     1       2.018  10.331  18.125  0.00  0.00    +0.000 C 
BRANCH  19  20
ATOM     20  C   UNL     1       1.685   8.840  18.228  0.00  0.00    +0.000 C 
BRANCH  20  21
ATOM     21  C   UNL     1       2.512   8.011  17.251  0.00  0.00    +0.000 C 
BRANCH  21  22
ATOM     22  C   UNL     1       3.315   6.944  17.959  0.00  0.00    +0.000 C 
ATOM     23  O   UNL     1       4.545   6.964  17.998  0.00  0.00    +0.000 OA
BRANCH  22  24
ATOM     24  C   UNL     1       2.584   5.831  18.633  0.00  0.00    +0.000 A 
ATOM     25  C   UNL     1       1.970   4.800  17.910  0.00  0.00    +0.000 A 
ATOM     26  C   UNL     1       1.301   3.778  18.590  0.00  0.00    +0.000 A 
ATOM     27  C   UNL     1       1.256   3.791  19.978  0.00  0.00    +0.000 A 
ATOM     28  F   UNL     1       0.612   2.810  20.626  0.00  0.00    +0.000 F 
ATOM     29  C   UNL     1       1.859   4.810  20.706  0.00  0.00    +0.000 A 
ATOM     30  C   UNL     1       2.526   5.830  20.033  0.00  0.00    +0.000 A 
ENDBRANCH  22  24
ENDBRANCH  21  22
ENDBRANCH  20  21
ENDBRANCH  19  20
ENDBRANCH   4  19
TORSDOF 8
ENDMDL
MODEL 7
REMARK VINA RESULT:      -7.0      5.147     10.391
REMARK  Name = 
REMARK  9 active torsions:
REMARK  status: ('A' for Active; 'I' for Inactive)
REMARK    1  A    between atoms: C_1  and  C_2
REMARK    2  A    between atoms: C_2  and  S_3
REMARK    3  A    between atoms: S_3  and  C_4
REMARK    4  A    between atoms: N_12  and  C_13
REMARK    5  A    between atoms: N_16  and  C_17
REMARK    6  A    between atoms: C_17  and  C_18
REMARK    7  A    between atoms: C_18  and  C_19
REMARK    8  A    between atoms: C_19  and  C_20
REMARK    9  A    between atoms: C_20  and  C_22
REMARK                            x       y       z     vdW  Elec       q    Type
REMARK                         _______ _______ _______ _____ _____    ______ ____
ROOT
ATOM      1  C   UNL     1       4.374   3.546  17.113  0.00  0.00    +0.000 C 
ATOM      2  C   UNL     1       3.168   4.480  16.954  0.00  0.00    +0.000 C 
ATOM      3  C   UNL     1       3.056   5.439  18.129  0.00  0.00    +0.000 C 
ATOM      4  N   UNL     1       2.840   4.713  19.387  0.00  0.00    +0.000 NA
ATOM      5  C   UNL     1       3.891   3.725  19.658  0.00  0.00    +0.000 C 
ATOM      6  C   UNL     1       4.279   2.836  18.472  0.00  0.00    +0.000 C 
ENDROOT
BRANCH   1  15
ATOM      7  C   UNL     1       5.812   4.725  15.436  0.00  0.00    +0.000 A 
ATOM      8  N   UNL     1       6.507   5.836  15.431  0.00  0.00    +0.000 NA
ATOM      9  C   UNL     1       6.899   6.010  16.730  0.00  0.00    +0.000 A 
ATOM     10  C   UNL     1       7.614   7.075  17.302  0.00  0.00    +0.000 A 
ATOM     11  C   UNL     1       7.965   7.007  18.652  0.00  0.00    +0.000 A 
ATOM     12  C   UNL     1       7.675   5.866  19.398  0.00  0.00    +0.000 A 
ATOM     13  C   UNL     1       6.962   4.800  18.840  0.00  0.00    +0.000 A 
ATOM     14  C   UNL     1       6.499   4.933  17.529  0.00  0.00    +0.000 A 
ATOM     15  N   UNL     1       5.605   4.246  16.723  0.00  0.00    +0.000 N 
BRANCH   7  16
ATOM     16  S   UNL     1       5.061   4.024  14.033  0.00  0.00    +0.000 S 
BRANCH  16  18
ATOM     17  C   UNL     1       6.116   2.818  11.830  0.00  0.00    +0.000 C 
ATOM     18  C   UNL     1       6.501   3.751  12.967  0.00  0.00    +0.000 C 
ENDBRANCH  16  18
ENDBRANCH   7  16
ENDBRANCH   1  15
BRANCH   4  19
ATOM     19  C   UNL     1       2.763   5.660  20.524  0.00  0.00    +0.000 C 
BRANCH  19  20
ATOM     20  C   UNL     1       2.170   7.022  20.154  0.00  0.00    +0.000 C 
BRANCH  20  21
ATOM     21  C   UNL     1       1.043   7.420  21.100  0.00  0.00    +0.000 C 
BRANCH  21  22
ATOM     22  C   UNL     1       1.112   8.883  21.474  0.00  0.00    +0.000 C 
ATOM     23  O   UNL     1       1.797   9.291  22.411  0.00  0.00    +0.000 OA
BRANCH  22  24
ATOM     24  C   UNL     1       0.320   9.861  20.673  0.00  0.00    +0.000 A 
ATOM     25  C   UNL     1      -0.517  10.810  21.275  0.00  0.00    +0.000 A 
ATOM     26  C   UNL     1      -1.235  11.708  20.479  0.00  0.00    +0.000 A 
ATOM     27  C   UNL     1      -1.107  11.655  19.097  0.00  0.00    +0.000 A 
ATOM     28  F   UNL     1      -1.798  12.516  18.338  0.00  0.00    +0.000 F 
ATOM     29  C   UNL     1      -0.282  10.716  18.489  0.00  0.00    +0.000 A 
ATOM     30  C   UNL     1       0.434   9.820  19.277  0.00  0.00    +0.000 A 
ENDBRANCH  22  24
ENDBRANCH  21  22
ENDBRANCH  20  21
ENDBRANCH  19  20
ENDBRANCH   4  19
TORSDOF 8
ENDMDL
MODEL 8
REMARK VINA RESULT:      -7.0      6.725     10.043
REMARK  Name = 
REMARK  9 active torsions:
REMARK  status: ('A' for Active; 'I' for Inactive)
REMARK    1  A    between atoms: C_1  and  C_2
REMARK    2  A    between atoms: C_2  and  S_3
REMARK    3  A    between atoms: S_3  and  C_4
REMARK    4  A    between atoms: N_12  and  C_13
REMARK    5  A    between atoms: N_16  and  C_17
REMARK    6  A    between atoms: C_17  and  C_18
REMARK    7  A    between atoms: C_18  and  C_19
REMARK    8  A    between atoms: C_19  and  C_20
REMARK    9  A    between atoms: C_20  and  C_22
REMARK                            x       y       z     vdW  Elec       q    Type
REMARK                         _______ _______ _______ _____ _____    ______ ____
ROOT
ATOM      1  C   UNL     1       5.486   4.333  18.119  0.00  0.00    +0.000 C 
ATOM      2  C   UNL     1       6.442   5.018  19.103  0.00  0.00    +0.000 C 
ATOM      3  C   UNL     1       6.788   6.426  18.646  0.00  0.00    +0.000 C 
ATOM      4  N   UNL     1       7.487   6.408  17.355  0.00  0.00    +0.000 NA
ATOM      5  C   UNL     1       6.719   5.725  16.306  0.00  0.00    +0.000 C 
ATOM      6  C   UNL     1       6.102   4.383  16.711  0.00  0.00    +0.000 C 
ENDROOT
BRANCH   1  15
ATOM      7  C   UNL     1       3.273   4.205  19.282  0.00  0.00    +0.000 A 
ATOM      8  N   UNL     1       2.472   5.077  19.844  0.00  0.00    +0.000 NA
ATOM      9  C   UNL     1       2.679   6.240  19.155  0.00  0.00    +0.000 A 
ATOM     10  C   UNL     1       2.126   7.511  19.381  0.00  0.00    +0.000 A 
ATOM     11  C   UNL     1       2.434   8.550  18.499  0.00  0.00    +0.000 A 
ATOM     12  C   UNL     1       3.217   8.307  17.372  0.00  0.00    +0.000 A 
ATOM     13  C   UNL     1       3.774   7.046  17.137  0.00  0.00    +0.000 A 
ATOM     14  C   UNL     1       3.571   6.049  18.094  0.00  0.00    +0.000 A 
ATOM     15  N   UNL     1       4.112   4.799  18.347  0.00  0.00    +0.000 N 
BRANCH   7  16
ATOM     16  S   UNL     1       3.423   2.544  19.771  0.00  0.00    +0.000 S 
BRANCH  16  18
ATOM     17  C   UNL     1       1.602   2.513  21.796  0.00  0.00    +0.000 C 
ATOM     18  C   UNL     1       1.732   2.187  20.317  0.00  0.00    +0.000 C 
ENDBRANCH  16  18
ENDBRANCH   7  16
ENDBRANCH   1  15
BRANCH   4  19
ATOM     19  C   UNL     1       7.789   7.789  16.910  0.00  0.00    +0.000 C 
BRANCH  19  20
ATOM     20  C   UNL     1       7.752   8.822  18.039  0.00  0.00    +0.000 C 
BRANCH  20  21
ATOM     21  C   UNL     1       9.100   8.933  18.743  0.00  0.00    +0.000 C 
BRANCH  21  22
ATOM     22  C   UNL     1       9.265  10.267  19.436  0.00  0.00    +0.000 C 
ATOM     23  O   UNL     1       8.993  10.428  20.625  0.00  0.00    +0.000 OA
BRANCH  22  24
ATOM     24  C   UNL     1       9.777  11.422  18.643  0.00  0.00    +0.000 A 
ATOM     25  C   UNL     1       8.942  12.472  18.235  0.00  0.00    +0.000 A 
ATOM     26  C   UNL     1       9.473  13.534  17.496  0.00  0.00    +0.000 A 
ATOM     27  C   UNL     1      10.824  13.543  17.179  0.00  0.00    +0.000 A 
ATOM     28  F   UNL     1      11.329  14.562  16.471  0.00  0.00    +0.000 F 
ATOM     29  C   UNL     1      11.661  12.507  17.577  0.00  0.00    +0.000 A 
ATOM     30  C   UNL     1      11.138  11.446  18.311  0.00  0.00    +0.000 A 
ENDBRANCH  22  24
ENDBRANCH  21  22
ENDBRANCH  20  21
ENDBRANCH  19  20
ENDBRANCH   4  19
TORSDOF 8
ENDMDL
MODEL 9
REMARK VINA RESULT:      -7.0      2.054      2.446
REMARK  Name = 
REMARK  9 active torsions:
REMARK  status: ('A' for Active; 'I' for Inactive)
REMARK    1  A    between atoms: C_1  and  C_2
REMARK    2  A    between atoms: C_2  and  S_3
REMARK    3  A    between atoms: S_3  and  C_4
REMARK    4  A    between atoms: N_12  and  C_13
REMARK    5  A    between atoms: N_16  and  C_17
REMARK    6  A    between atoms: C_17  and  C_18
REMARK    7  A    between atoms: C_18  and  C_19
REMARK    8  A    between atoms: C_19  and  C_20
REMARK    9  A    between atoms: C_20  and  C_22
REMARK                            x       y       z     vdW  Elec       q    Type
REMARK                         _______ _______ _______ _____ _____    ______ ____
ROOT
ATOM      1  C   UNL     1      -0.077  11.270  20.849  0.00  0.00    +0.000 C 
ATOM      2  C   UNL     1       0.830  12.080  19.914  0.00  0.00    +0.000 C 
ATOM      3  C   UNL     1       1.144  11.306  18.644  0.00  0.00    +0.000 C 
ATOM      4  N   UNL     1       1.877  10.070  18.943  0.00  0.00    +0.000 NA
ATOM      5  C   UNL     1       1.160   9.200  19.883  0.00  0.00    +0.000 C 
ATOM      6  C   UNL     1       0.574   9.903  21.112  0.00  0.00    +0.000 C 
ENDROOT
BRANCH   1  15
ATOM      7  C   UNL     1      -2.345  12.330  20.856  0.00  0.00    +0.000 A 
ATOM      8  N   UNL     1      -3.192  12.709  19.931  0.00  0.00    +0.000 NA
ATOM      9  C   UNL     1      -2.974  11.856  18.884  0.00  0.00    +0.000 A 
ATOM     10  C   UNL     1      -3.564  11.851  17.610  0.00  0.00    +0.000 A 
ATOM     11  C   UNL     1      -3.232  10.833  16.714  0.00  0.00    +0.000 A 
ATOM     12  C   UNL     1      -2.386   9.797  17.107  0.00  0.00    +0.000 A 
ATOM     13  C   UNL     1      -1.791   9.791  18.373  0.00  0.00    +0.000 A 
ATOM     14  C   UNL     1      -2.024  10.883  19.213  0.00  0.00    +0.000 A 
ATOM     15  N   UNL     1      -1.470  11.355  20.393  0.00  0.00    +0.000 N 
BRANCH   7  16
ATOM     16  S   UNL     1      -2.187  13.081  22.416  0.00  0.00    +0.000 S 
BRANCH  16  18
ATOM     17  C   UNL     1      -4.073  14.025  24.139  0.00  0.00    +0.000 C 
ATOM     18  C   UNL     1      -3.900  13.029  23.004  0.00  0.00    +0.000 C 
ENDBRANCH  16  18
ENDBRANCH   7  16
ENDBRANCH   1  15
BRANCH   4  19
ATOM     19  C   UNL     1       2.148   9.314  17.698  0.00  0.00    +0.000 C 
BRANCH  19  20
ATOM     20  C   UNL     1       2.182   7.796  17.892  0.00  0.00    +0.000 C 
BRANCH  20  21
ATOM     21  C   UNL     1       3.595   7.242  17.750  0.00  0.00    +0.000 C 
BRANCH  21  22
ATOM     22  C   UNL     1       3.603   5.732  17.679  0.00  0.00    +0.000 C 
ATOM     23  O   UNL     1       4.216   5.118  16.806  0.00  0.00    +0.000 OA
BRANCH  22  24
ATOM     24  C   UNL     1       2.840   4.967  18.707  0.00  0.00    +0.000 A 
ATOM     25  C   UNL     1       3.022   5.181  20.080  0.00  0.00    +0.000 A 
ATOM     26  C   UNL     1       2.279   4.439  21.003  0.00  0.00    +0.000 A 
ATOM     27  C   UNL     1       1.361   3.500  20.550  0.00  0.00    +0.000 A 
ATOM     28  F   UNL     1       0.652   2.790  21.438  0.00  0.00    +0.000 F 
ATOM     29  C   UNL     1       1.175   3.277  19.191  0.00  0.00    +0.000 A 
ATOM     30  C   UNL     1       1.913   4.012  18.268  0.00  0.00    +0.000 A 
ENDBRANCH  22  24
ENDBRANCH  21  22
ENDBRANCH  20  21
ENDBRANCH  19  20
ENDBRANCH   4  19
TORSDOF 8
ENDMDL
