MODEL 1
REMARK VINA RESULT:      -7.8      0.000      0.000
REMARK  Name = 
REMARK  8 active torsions:
REMARK  status: ('A' for Active; 'I' for Inactive)
REMARK    1  A    between atoms: C_1  and  C_2
REMARK    2  A    between atoms: C_2  and  C_3
REMARK    3  A    between atoms: C_3  and  C_4
REMARK    4  A    between atoms: N_6  and  C_7
REMARK    5  A    between atoms: C_14  and  O_15
REMARK    6  A    between atoms: C_16  and  C_17
REMARK    7  A    between atoms: N_18  and  C_19
REMARK    8  A    between atoms: C_19  and  C_20
REMARK                            x       y       z     vdW  Elec       q    Type
REMARK                         _______ _______ _______ _____ _____    ______ ____
ROOT
ATOM      1  C   UNL     1       5.510   6.083  17.424  0.00  0.00    +0.000 A 
ATOM      2  N   UNL     1       4.464   5.934  18.256  0.00  0.00    +0.000 NA
ATOM      3  N   UNL     1       4.216   4.597  18.265  0.00  0.00    +0.000 N 
ATOM      4  C   UNL     1       4.976   3.928  17.311  0.00  0.00    +0.000 A 
ATOM      5  C   UNL     1       5.796   4.875  16.740  0.00  0.00    +0.000 A 
ENDROOT
BRANCH   3   6
ATOM      6  C   UNL     1       3.291   4.038  19.194  0.00  0.00    +0.000 A 
ATOM      7  C   UNL     1       1.956   4.470  19.188  0.00  0.00    +0.000 A 
ATOM      8  C   UNL     1       1.058   3.966  20.132  0.00  0.00    +0.000 A 
ATOM      9  C   UNL     1       1.502   3.063  21.094  0.00  0.00    +0.000 A 
ATOM     10  F   UNL     1       0.654   2.626  22.034  0.00  0.00    +0.000 F 
ATOM     11  C   UNL     1       2.820   2.622  21.106  0.00  0.00    +0.000 A 
ATOM     12  C   UNL     1       3.717   3.097  20.146  0.00  0.00    +0.000 A 
ENDBRANCH   3   6
BRANCH   4  13
ATOM     13  O   UNL     1       4.826   2.640  16.981  0.00  0.00    +0.000 OA
ATOM     14  H   UNL     1       5.670   2.292  16.638  0.00  0.00    +0.000 HD
ENDBRANCH   4  13
BRANCH   5  15
ATOM     15  C   UNL     1       6.677   4.609  15.630  0.00  0.00    +0.000 C 
ATOM     16  N   UNL     1       6.335   4.999  14.452  0.00  0.00    +0.000 NA
BRANCH  16  17
ATOM     17  C   UNL     1       7.228   4.492  13.389  0.00  0.00    +0.000 C 
BRANCH  17  18
ATOM     18  C   UNL     1       6.427   3.999  12.172  0.00  0.00    +0.000 C 
ATOM     19  C   UNL     1       4.933   3.838  12.418  0.00  0.00    +0.000 C 
ATOM     20  C   UNL     1       4.562   2.774  11.415  0.00  0.00    +0.000 C 
ATOM     21  C   UNL     1       5.779   1.875  11.453  0.00  0.00    +0.000 C 
ATOM     22  O   UNL     1       6.912   2.721  11.707  0.00  0.00    +0.000 OA
ENDBRANCH  17  18
ENDBRANCH  16  17
ENDBRANCH   5  15
BRANCH   1  23
ATOM     23  C   UNL     1       6.219   7.399  17.260  0.00  0.00    +0.000 C 
BRANCH  23  25
ATOM     24  C   UNL     1       8.211   8.838  17.989  0.00  0.00    +0.000 C 
ATOM     25  C   UNL     1       7.679   7.435  17.717  0.00  0.00    +0.000 C 
ENDBRANCH  23  25
ENDBRANCH   1  23
TORSDOF 7
ENDMDL
MODEL 2
REMARK VINA RESULT:      -7.8      1.143      1.650
REMARK  Name = 
REMARK  8 active torsions:
REMARK  status: ('A' for Active; 'I' for Inactive)
REMARK    1  A    between atoms: C_1  and  C_2
REMARK    2  A    between atoms: C_2  and  C_3
REMARK    3  A    between atoms: C_3  and  C_4
REMARK    4  A    between atoms: N_6  and  C_7
REMARK    5  A    between atoms: C_14  and  O_15
REMARK    6  A    between atoms: C_16  and  C_17
REMARK    7  A    between atoms: N_18  and  C_19
REMARK    8  A    between atoms: C_19  and  C_20
REMARK                            x       y       z     vdW  Elec       q    Type
REMARK                         _______ _______ _______ _____ _____    ______ ____
ROOT
ATOM      1  C   UNL     1       6.802   5.236  18.544  0.00  0.00    +0.000 A 
ATOM      2  N   UNL     1       5.877   5.221  19.520  0.00  0.00    +0.000 NA
ATOM      3  N   UNL     1       4.900   4.394  19.062  0.00  0.00    +0.000 N 
ATOM      4  C   UNL     1       5.116   4.033  17.736  0.00  0.00    +0.000 A 
ATOM      5  C   UNL     1       6.322   4.589  17.376  0.00  0.00    +0.000 A 
ENDROOT
BRANCH   3   6
ATOM      6  C   UNL     1       3.840   3.981  19.918  0.00  0.00    +0.000 A 
ATOM      7  C   UNL     1       3.855   2.690  20.467  0.00  0.00    +0.000 A 
ATOM      8  C   UNL     1       2.790   2.260  21.263  0.00  0.00    +0.000 A 
ATOM      9  C   UNL     1       1.705   3.105  21.480  0.00  0.00    +0.000 A 
ATOM     10  F   UNL     1       0.659   2.670  22.194  0.00  0.00    +0.000 F 
ATOM     11  C   UNL     1       1.682   4.389  20.948  0.00  0.00    +0.000 A 
ATOM     12  C   UNL     1       2.756   4.838  20.177  0.00  0.00    +0.000 A 
ENDBRANCH   3   6
BRANCH   4  13
ATOM     13  O   UNL     1       4.241   3.364  16.974  0.00  0.00    +0.000 OA
ATOM     14  H   UNL     1       3.621   3.994  16.562  0.00  0.00    +0.000 HD
ENDBRANCH   4  13
BRANCH   5  15
ATOM     15  C   UNL     1       6.867   4.533  16.043  0.00  0.00    +0.000 C 
ATOM     16  N   UNL     1       6.368   5.292  15.129  0.00  0.00    +0.000 NA
BRANCH  16  17
ATOM     17  C   UNL     1       6.883   4.991  13.778  0.00  0.00    +0.000 C 
BRANCH  17  18
ATOM     18  C   UNL     1       6.300   3.676  13.235  0.00  0.00    +0.000 C 
ATOM     19  C   UNL     1       6.922   3.196  11.930  0.00  0.00    +0.000 C 
ATOM     20  C   UNL     1       5.800   2.392  11.324  0.00  0.00    +0.000 C 
ATOM     21  C   UNL     1       4.586   3.204  11.722  0.00  0.00    +0.000 C 
ATOM     22  O   UNL     1       4.879   3.788  13.002  0.00  0.00    +0.000 OA
ENDBRANCH  17  18
ENDBRANCH  16  17
ENDBRANCH   5  15
BRANCH   1  23
ATOM     23  C   UNL     1       8.139   5.901  18.719  0.00  0.00    +0.000 C 
BRANCH  23  25
ATOM     24  C   UNL     1       7.687   8.007  17.329  0.00  0.00    +0.000 C 
ATOM     25  C   UNL     1       8.139   7.431  18.666  0.00  0.00    +0.000 C 
ENDBRANCH  23  25
ENDBRANCH   1  23
TORSDOF 7
ENDMDL
MODEL 3
REMARK VINA RESULT:      -7.6      0.843      1.128
REMARK  Name = 
REMARK  8 active torsions:
REMARK  status: ('A' for Active; 'I' for Inactive)
REMARK    1  A    between atoms: C_1  and  C_2
REMARK    2  A    between atoms: C_2  and  C_3
REMARK    3  A    between atoms: C_3  and  C_4
REMARK    4  A    between atoms: N_6  and  C_7
REMARK    5  A    between atoms: C_14  and  O_15
REMARK    6  A    between atoms: C_16  and  C_17
REMARK    7  A    between atoms: N_18  and  C_19
REMARK    8  A    between atoms: C_19  and  C_20
REMARK                            x       y       z     vdW  Elec       q    Type
REMARK                         _______ _______ _______ _____ _____    ______ ____
ROOT
ATOM      1  C   UNL     1       5.377   5.801  17.634  0.00  0.00    +0.000 A 
ATOM      2  N   UNL     1       4.432   5.687  18.583  0.00  0.00    +0.000 NA
ATOM      3  N   UNL     1       4.068   4.377  18.557  0.00  0.00    +0.000 N 
ATOM      4  C   UNL     1       4.644   3.707  17.482  0.00  0.00    +0.000 A 
ATOM      5  C   UNL     1       5.469   4.616  16.859  0.00  0.00    +0.000 A 
ENDROOT
BRANCH   3   6
ATOM      6  C   UNL     1       3.218   3.840  19.566  0.00  0.00    +0.000 A 
ATOM      7  C   UNL     1       1.928   4.364  19.737  0.00  0.00    +0.000 A 
ATOM      8  C   UNL     1       1.110   3.880  20.761  0.00  0.00    +0.000 A 
ATOM      9  C   UNL     1       1.593   2.903  21.626  0.00  0.00    +0.000 A 
ATOM     10  F   UNL     1       0.829   2.482  22.642  0.00  0.00    +0.000 F 
ATOM     11  C   UNL     1       2.866   2.370  21.463  0.00  0.00    +0.000 A 
ATOM     12  C   UNL     1       3.679   2.826  20.423  0.00  0.00    +0.000 A 
ENDBRANCH   3   6
BRANCH   4  13
ATOM     13  O   UNL     1       4.341   2.458  17.109  0.00  0.00    +0.000 OA
ATOM     14  H   UNL     1       4.771   2.260  16.257  0.00  0.00    +0.000 HD
ENDBRANCH   4  13
BRANCH   5  15
ATOM     15  C   UNL     1       6.181   4.348  15.635  0.00  0.00    +0.000 C 
ATOM     16  N   UNL     1       6.300   5.286  14.761  0.00  0.00    +0.000 NA
BRANCH  16  17
ATOM     17  C   UNL     1       6.874   4.820  13.482  0.00  0.00    +0.000 C 
BRANCH  17  18
ATOM     18  C   UNL     1       6.225   3.504  13.022  0.00  0.00    +0.000 C 
ATOM     19  C   UNL     1       6.913   2.836  11.839  0.00  0.00    +0.000 C 
ATOM     20  C   UNL     1       5.779   2.063  11.212  0.00  0.00    +0.000 C 
ATOM     21  C   UNL     1       4.614   3.009  11.406  0.00  0.00    +0.000 C 
ATOM     22  O   UNL     1       4.845   3.703  12.642  0.00  0.00    +0.000 OA
ENDBRANCH  17  18
ENDBRANCH  16  17
ENDBRANCH   5  15
BRANCH   1  23
ATOM     23  C   UNL     1       6.174   7.062  17.448  0.00  0.00    +0.000 C 
BRANCH  23  25
ATOM     24  C   UNL     1       7.876   6.000  19.044  0.00  0.00    +0.000 C 
ATOM     25  C   UNL     1       7.625   7.016  17.935  0.00  0.00    +0.000 C 
ENDBRANCH  23  25
ENDBRANCH   1  23
TORSDOF 7
ENDMDL
MODEL 4
REMARK VINA RESULT:      -7.5      0.555      1.096
REMARK  Name = 
REMARK  8 active torsions:
REMARK  status: ('A' for Active; 'I' for Inactive)
REMARK    1  A    between atoms: C_1  and  C_2
REMARK    2  A    between atoms: C_2  and  C_3
REMARK    3  A    between atoms: C_3  and  C_4
REMARK    4  A    between atoms: N_6  and  C_7
REMARK    5  A    between atoms: C_14  and  O_15
REMARK    6  A    between atoms: C_16  and  C_17
REMARK    7  A    between atoms: N_18  and  C_19
REMARK    8  A    between atoms: C_19  and  C_20
REMARK                            x       y       z     vdW  Elec       q    Type
REMARK                         _______ _______ _______ _____ _____    ______ ____
ROOT
ATOM      1  C   UNL     1       6.163   6.233  17.356  0.00  0.00    +0.000 A 
ATOM      2  N   UNL     1       5.148   6.188  18.237  0.00  0.00    +0.000 NA
ATOM      3  N   UNL     1       4.742   4.890  18.234  0.00  0.00    +0.000 N 
ATOM      4  C   UNL     1       5.370   4.160  17.231  0.00  0.00    +0.000 A 
ATOM      5  C   UNL     1       6.269   5.016  16.636  0.00  0.00    +0.000 A 
ENDROOT
BRANCH   3   6
ATOM      6  C   UNL     1       3.803   4.422  19.198  0.00  0.00    +0.000 A 
ATOM      7  C   UNL     1       3.993   3.169  19.798  0.00  0.00    +0.000 A 
ATOM      8  C   UNL     1       3.046   2.681  20.703  0.00  0.00    +0.000 A 
ATOM      9  C   UNL     1       1.905   3.427  20.978  0.00  0.00    +0.000 A 
ATOM     10  F   UNL     1       0.971   2.932  21.800  0.00  0.00    +0.000 F 
ATOM     11  C   UNL     1       1.709   4.674  20.395  0.00  0.00    +0.000 A 
ATOM     12  C   UNL     1       2.665   5.184  19.514  0.00  0.00    +0.000 A 
ENDBRANCH   3   6
BRANCH   4  13
ATOM     13  O   UNL     1       5.052   2.906  16.884  0.00  0.00    +0.000 OA
ATOM     14  H   UNL     1       4.468   2.924  16.104  0.00  0.00    +0.000 HD
ENDBRANCH   4  13
BRANCH   5  15
ATOM     15  C   UNL     1       7.058   4.675  15.479  0.00  0.00    +0.000 C 
ATOM     16  N   UNL     1       6.660   5.056  14.315  0.00  0.00    +0.000 NA
BRANCH  16  17
ATOM     17  C   UNL     1       7.450   4.474  13.211  0.00  0.00    +0.000 C 
BRANCH  17  18
ATOM     18  C   UNL     1       6.543   3.988  12.068  0.00  0.00    +0.000 C 
ATOM     19  C   UNL     1       5.065   3.899  12.424  0.00  0.00    +0.000 C 
ATOM     20  C   UNL     1       4.578   2.829  11.479  0.00  0.00    +0.000 C 
ATOM     21  C   UNL     1       5.755   1.878  11.455  0.00  0.00    +0.000 C 
ATOM     22  O   UNL     1       6.939   2.679  11.604  0.00  0.00    +0.000 OA
ENDBRANCH  17  18
ENDBRANCH  16  17
ENDBRANCH   5  15
BRANCH   1  23
ATOM     23  C   UNL     1       7.015   7.459  17.181  0.00  0.00    +0.000 C 
BRANCH  23  25
ATOM     24  C   UNL     1       8.551   9.143  18.355  0.00  0.00    +0.000 C 
ATOM     25  C   UNL     1       8.075   7.698  18.260  0.00  0.00    +0.000 C 
ENDBRANCH  23  25
ENDBRANCH   1  23
TORSDOF 7
ENDMDL
MODEL 5
REMARK VINA RESULT:      -7.4      4.859      6.833
REMARK  Name = 
REMARK  8 active torsions:
REMARK  status: ('A' for Active; 'I' for Inactive)
REMARK    1  A    between atoms: C_1  and  C_2
REMARK    2  A    between atoms: C_2  and  C_3
REMARK    3  A    between atoms: C_3  and  C_4
REMARK    4  A    between atoms: N_6  and  C_7
REMARK    5  A    between atoms: C_14  and  O_15
REMARK    6  A    between atoms: C_16  and  C_17
REMARK    7  A    between atoms: N_18  and  C_19
REMARK    8  A    between atoms: C_19  and  C_20
REMARK                            x       y       z     vdW  Elec       q    Type
REMARK                         _______ _______ _______ _____ _____    ______ ____
ROOT
ATOM      1  C   UNL     1       2.153   6.648  19.957  0.00  0.00    +0.000 A 
ATOM      2  N   UNL     1       1.523   7.649  20.597  0.00  0.00    +0.000 NA
ATOM      3  N   UNL     1       1.398   8.633  19.668  0.00  0.00    +0.000 N 
ATOM      4  C   UNL     1       2.101   8.332  18.506  0.00  0.00    +0.000 A 
ATOM      5  C   UNL     1       2.618   7.069  18.685  0.00  0.00    +0.000 A 
ENDROOT
BRANCH   3   6
ATOM      6  C   UNL     1       0.601   9.783  19.933  0.00  0.00    +0.000 A 
ATOM      7  C   UNL     1       0.833  10.535  21.094  0.00  0.00    +0.000 A 
ATOM      8  C   UNL     1       0.019  11.632  21.388  0.00  0.00    +0.000 A 
ATOM      9  C   UNL     1      -1.039  11.952  20.542  0.00  0.00    +0.000 A 
ATOM     10  F   UNL     1      -1.854  12.967  20.855  0.00  0.00    +0.000 F 
ATOM     11  C   UNL     1      -1.275  11.220  19.384  0.00  0.00    +0.000 A 
ATOM     12  C   UNL     1      -0.447  10.141  19.067  0.00  0.00    +0.000 A 
ENDBRANCH   3   6
BRANCH   4  13
ATOM     13  O   UNL     1       2.295   9.180  17.489  0.00  0.00    +0.000 OA
ATOM     14  H   UNL     1       1.630   9.892  17.527  0.00  0.00    +0.000 HD
ENDBRANCH   4  13
BRANCH   5  15
ATOM     15  C   UNL     1       3.499   6.421  17.746  0.00  0.00    +0.000 C 
ATOM     16  N   UNL     1       4.406   7.118  17.154  0.00  0.00    +0.000 NA
BRANCH  16  17
ATOM     17  C   UNL     1       5.101   6.378  16.081  0.00  0.00    +0.000 C 
BRANCH  17  18
ATOM     18  C   UNL     1       6.520   5.969  16.511  0.00  0.00    +0.000 C 
ATOM     19  C   UNL     1       6.646   4.531  16.997  0.00  0.00    +0.000 C 
ATOM     20  C   UNL     1       7.828   4.618  17.931  0.00  0.00    +0.000 C 
ATOM     21  C   UNL     1       7.618   5.973  18.571  0.00  0.00    +0.000 C 
ATOM     22  O   UNL     1       7.010   6.812  17.576  0.00  0.00    +0.000 OA
ENDBRANCH  17  18
ENDBRANCH  16  17
ENDBRANCH   5  15
BRANCH   1  23
ATOM     23  C   UNL     1       2.339   5.292  20.579  0.00  0.00    +0.000 C 
BRANCH  23  25
ATOM     24  C   UNL     1       1.371   2.986  21.143  0.00  0.00    +0.000 C 
ATOM     25  C   UNL     1       1.138   4.346  20.494  0.00  0.00    +0.000 C 
ENDBRANCH  23  25
ENDBRANCH   1  23
TORSDOF 7
ENDMDL
MODEL 6
REMARK VINA RESULT:      -7.3      3.470      5.099
REMARK  Name = 
REMARK  8 active torsions:
REMARK  status: ('A' for Active; 'I' for Inactive)
REMARK    1  A    between atoms: C_1  and  C_2
REMARK    2  A    between atoms: C_2  and  C_3
REMARK    3  A    between atoms: C_3  and  C_4
REMARK    4  A    between atoms: N_6  and  C_7
REMARK    5  A    between atoms: C_14  and  O_15
REMARK    6  A    between atoms: C_16  and  C_17
REMARK    7  A    between atoms: N_18  and  C_19
REMARK    8  A    between atoms: C_19  and  C_20
REMARK                            x       y       z     vdW  Elec       q    Type
REMARK                         _______ _______ _______ _____ _____    ______ ____
ROOT
ATOM      1  C   UNL     1       3.179   4.583  19.195  0.00  0.00    +0.000 A 
ATOM      2  N   UNL     1       2.504   5.558  19.829  0.00  0.00    +0.000 NA
ATOM      3  N   UNL     1       2.723   6.674  19.083  0.00  0.00    +0.000 N 
ATOM      4  C   UNL     1       3.671   6.449  18.091  0.00  0.00    +0.000 A 
ATOM      5  C   UNL     1       3.998   5.114  18.166  0.00  0.00    +0.000 A 
ENDROOT
BRANCH   3   6
ATOM      6  C   UNL     1       2.000   7.873  19.345  0.00  0.00    +0.000 A 
ATOM      7  C   UNL     1       1.529   8.129  20.641  0.00  0.00    +0.000 A 
ATOM      8  C   UNL     1       0.772   9.277  20.892  0.00  0.00    +0.000 A 
ATOM      9  C   UNL     1       0.463  10.142  19.847  0.00  0.00    +0.000 A 
ATOM     10  F   UNL     1      -0.311  11.210  20.078  0.00  0.00    +0.000 F 
ATOM     11  C   UNL     1       0.931   9.904  18.560  0.00  0.00    +0.000 A 
ATOM     12  C   UNL     1       1.714   8.776  18.307  0.00  0.00    +0.000 A 
ENDBRANCH   3   6
BRANCH   4  13
ATOM     13  O   UNL     1       4.205   7.399  17.314  0.00  0.00    +0.000 OA
ATOM     14  H   UNL     1       4.673   8.049  17.871  0.00  0.00    +0.000 HD
ENDBRANCH   4  13
BRANCH   5  15
ATOM     15  C   UNL     1       5.025   4.492  17.369  0.00  0.00    +0.000 C 
ATOM     16  N   UNL     1       6.162   5.083  17.241  0.00  0.00    +0.000 NA
BRANCH  16  17
ATOM     17  C   UNL     1       7.044   4.439  16.246  0.00  0.00    +0.000 C 
BRANCH  17  18
ATOM     18  C   UNL     1       6.670   4.853  14.813  0.00  0.00    +0.000 C 
ATOM     19  C   UNL     1       6.278   3.699  13.900  0.00  0.00    +0.000 C 
ATOM     20  C   UNL     1       6.636   4.240  12.538  0.00  0.00    +0.000 C 
ATOM     21  C   UNL     1       7.900   5.018  12.836  0.00  0.00    +0.000 C 
ATOM     22  O   UNL     1       7.759   5.545  14.165  0.00  0.00    +0.000 OA
ENDBRANCH  17  18
ENDBRANCH  16  17
ENDBRANCH   5  15
BRANCH   1  23
ATOM     23  C   UNL     1       3.063   3.139  19.597  0.00  0.00    +0.000 C 
BRANCH  23  25
ATOM     24  C   UNL     1       0.692   2.493  18.867  0.00  0.00    +0.000 C 
ATOM     25  C   UNL     1       1.668   2.672  20.024  0.00  0.00    +0.000 C 
ENDBRANCH  23  25
ENDBRANCH   1  23
TORSDOF 7
ENDMDL
MODEL 7
REMARK VINA RESULT:      -7.3      4.570      8.396
REMARK  Name = 
REMARK  8 active torsions:
REMARK  status: ('A' for Active; 'I' for Inactive)
REMARK    1  A    between atoms: C_1  and  C_2
REMARK    2  A    between atoms: C_2  and  C_3
REMARK    3  A    between atoms: C_3  and  C_4
REMARK    4  A    between atoms: N_6  and  C_7
REMARK    5  A    between atoms: C_14  and  O_15
REMARK    6  A    between atoms: C_16  and  C_17
REMARK    7  A    between atoms: N_18  and  C_19
REMARK    8  A    between atoms: C_19  and  C_20
REMARK                            x       y       z     vdW  Elec       q    Type
REMARK                         _______ _______ _______ _____ _____    ______ ____
ROOT
ATOM      1  C   UNL     1       2.837   4.635  20.294  0.00  0.00    +0.000 A 
ATOM      2  N   UNL     1       3.641   4.160  19.327  0.00  0.00    +0.000 NA
ATOM      3  N   UNL     1       3.910   5.234  18.538  0.00  0.00    +0.000 N 
ATOM      4  C   UNL     1       3.141   6.337  18.896  0.00  0.00    +0.000 A 
ATOM      5  C   UNL     1       2.423   5.961  20.009  0.00  0.00    +0.000 A 
ENDROOT
BRANCH   3   6
ATOM      6  C   UNL     1       4.895   5.151  17.512  0.00  0.00    +0.000 A 
ATOM      7  C   UNL     1       6.068   5.913  17.615  0.00  0.00    +0.000 A 
ATOM      8  C   UNL     1       7.013   5.878  16.586  0.00  0.00    +0.000 A 
ATOM      9  C   UNL     1       6.768   5.113  15.450  0.00  0.00    +0.000 A 
ATOM     10  F   UNL     1       7.647   5.126  14.440  0.00  0.00    +0.000 F 
ATOM     11  C   UNL     1       5.613   4.347  15.340  0.00  0.00    +0.000 A 
ATOM     12  C   UNL     1       4.678   4.351  16.377  0.00  0.00    +0.000 A 
ENDBRANCH   3   6
BRANCH   4  13
ATOM     13  O   UNL     1       3.071   7.478  18.200  0.00  0.00    +0.000 OA
ATOM     14  H   UNL     1       3.068   7.277  17.246  0.00  0.00    +0.000 HD
ENDBRANCH   4  13
BRANCH   5  15
ATOM     15  C   UNL     1       1.426   6.790  20.638  0.00  0.00    +0.000 C 
ATOM     16  N   UNL     1       1.627   8.059  20.722  0.00  0.00    +0.000 NA
BRANCH  16  17
ATOM     17  C   UNL     1       0.627   8.753  21.559  0.00  0.00    +0.000 C 
BRANCH  17  18
ATOM     18  C   UNL     1       0.160  10.064  20.903  0.00  0.00    +0.000 C 
ATOM     19  C   UNL     1       0.258  10.084  19.384  0.00  0.00    +0.000 C 
ATOM     20  C   UNL     1       0.418  11.557  19.099  0.00  0.00    +0.000 C 
ATOM     21  C   UNL     1       1.286  12.004  20.256  0.00  0.00    +0.000 C 
ATOM     22  O   UNL     1       0.922  11.192  21.384  0.00  0.00    +0.000 OA
ENDBRANCH  17  18
ENDBRANCH  16  17
ENDBRANCH   5  15
BRANCH   1  23
ATOM     23  C   UNL     1       2.439   3.805  21.483  0.00  0.00    +0.000 C 
BRANCH  23  25
ATOM     24  C   UNL     1       0.724   2.835  19.844  0.00  0.00    +0.000 C 
ATOM     25  C   UNL     1       1.256   2.857  21.273  0.00  0.00    +0.000 C 
ENDBRANCH  23  25
ENDBRANCH   1  23
TORSDOF 7
ENDMDL
MODEL 8
REMARK VINA RESULT:      -7.3      0.730      1.359
REMARK  Name = 
REMARK  8 active torsions:
REMARK  status: ('A' for Active; 'I' for Inactive)
REMARK    1  A    between atoms: C_1  and  C_2
REMARK    2  A    between atoms: C_2  and  C_3
REMARK    3  A    between atoms: C_3  and  C_4
REMARK    4  A    between atoms: N_6  and  C_7
REMARK    5  A    between atoms: C_14  and  O_15
REMARK    6  A    between atoms: C_16  and  C_17
REMARK    7  A    between atoms: N_18  and  C_19
REMARK    8  A    between atoms: C_19  and  C_20
REMARK                            x       y       z     vdW  Elec       q    Type
REMARK                         _______ _______ _______ _____ _____    ______ ____
ROOT
ATOM      1  C   UNL     1       5.298   5.912  17.387  0.00  0.00    +0.000 A 
ATOM      2  N   UNL     1       4.414   5.843  18.397  0.00  0.00    +0.000 NA
ATOM      3  N   UNL     1       4.060   4.532  18.460  0.00  0.00    +0.000 N 
ATOM      4  C   UNL     1       4.573   3.811  17.387  0.00  0.00    +0.000 A 
ATOM      5  C   UNL     1       5.352   4.690  16.669  0.00  0.00    +0.000 A 
ENDROOT
BRANCH   3   6
ATOM      6  C   UNL     1       3.277   4.044  19.546  0.00  0.00    +0.000 A 
ATOM      7  C   UNL     1       3.774   3.005  20.346  0.00  0.00    +0.000 A 
ATOM      8  C   UNL     1       2.989   2.485  21.378  0.00  0.00    +0.000 A 
ATOM      9  C   UNL     1       1.705   2.980  21.585  0.00  0.00    +0.000 A 
ATOM     10  F   UNL     1       0.932   2.441  22.536  0.00  0.00    +0.000 F 
ATOM     11  C   UNL     1       1.204   4.016  20.804  0.00  0.00    +0.000 A 
ATOM     12  C   UNL     1       1.994   4.562  19.791  0.00  0.00    +0.000 A 
ENDBRANCH   3   6
BRANCH   4  13
ATOM     13  O   UNL     1       4.258   2.543  17.098  0.00  0.00    +0.000 OA
ATOM     14  H   UNL     1       3.895   2.109  17.891  0.00  0.00    +0.000 HD
ENDBRANCH   4  13
BRANCH   5  15
ATOM     15  C   UNL     1       5.989   4.362  15.419  0.00  0.00    +0.000 C 
ATOM     16  N   UNL     1       6.462   5.312  14.689  0.00  0.00    +0.000 NA
BRANCH  16  17
ATOM     17  C   UNL     1       6.906   4.855  13.356  0.00  0.00    +0.000 C 
BRANCH  17  18
ATOM     18  C   UNL     1       6.297   3.488  12.999  0.00  0.00    +0.000 C 
ATOM     19  C   UNL     1       7.082   2.694  11.964  0.00  0.00    +0.000 C 
ATOM     20  C   UNL     1       6.005   1.843  11.339  0.00  0.00    +0.000 C 
ATOM     21  C   UNL     1       4.828   2.794  11.324  0.00  0.00    +0.000 C 
ATOM     22  O   UNL     1       4.955   3.629  12.485  0.00  0.00    +0.000 OA
ENDBRANCH  17  18
ENDBRANCH  16  17
ENDBRANCH   5  15
BRANCH   1  23
ATOM     23  C   UNL     1       6.074   7.166  17.087  0.00  0.00    +0.000 C 
BRANCH  23  25
ATOM     24  C   UNL     1       8.135   8.552  17.720  0.00  0.00    +0.000 C 
ATOM     25  C   UNL     1       7.544   7.162  17.514  0.00  0.00    +0.000 C 
ENDBRANCH  23  25
ENDBRANCH   1  23
TORSDOF 7
ENDMDL
MODEL 9
REMARK VINA RESULT:      -7.2      3.113      4.433
REMARK  Name = 
REMARK  8 active torsions:
REMARK  status: ('A' for Active; 'I' for Inactive)
REMARK    1  A    between atoms: C_1  and  C_2
REMARK    2  A    between atoms: C_2  and  C_3
REMARK    3  A    between atoms: C_3  and  C_4
REMARK    4  A    between atoms: N_6  and  C_7
REMARK    5  A    between atoms: C_14  and  O_15
REMARK    6  A    between atoms: C_16  and  C_17
REMARK    7  A    between atoms: N_18  and  C_19
REMARK    8  A    between atoms: C_19  and  C_20
REMARK                            x       y       z     vdW  Elec       q    Type
REMARK                         _______ _______ _______ _____ _____    ______ ____
ROOT
ATOM      1  C   UNL     1       2.936   4.122  17.636  0.00  0.00    +0.000 A 
ATOM      2  N   UNL     1       2.300   5.001  18.429  0.00  0.00    +0.000 NA
ATOM      3  N   UNL     1       2.870   6.202  18.144  0.00  0.00    +0.000 N 
ATOM      4  C   UNL     1       3.977   6.060  17.314  0.00  0.00    +0.000 A 
ATOM      5  C   UNL     1       4.052   4.722  16.999  0.00  0.00    +0.000 A 
ENDROOT
BRANCH   3   6
ATOM      6  C   UNL     1       2.313   7.409  18.658  0.00  0.00    +0.000 A 
ATOM      7  C   UNL     1       1.976   7.493  20.017  0.00  0.00    +0.000 A 
ATOM      8  C   UNL     1       1.379   8.654  20.515  0.00  0.00    +0.000 A 
ATOM      9  C   UNL     1       1.092   9.707  19.652  0.00  0.00    +0.000 A 
ATOM     10  F   UNL     1       0.467  10.796  20.120  0.00  0.00    +0.000 F 
ATOM     11  C   UNL     1       1.429   9.640  18.305  0.00  0.00    +0.000 A 
ATOM     12  C   UNL     1       2.054   8.495  17.805  0.00  0.00    +0.000 A 
ENDBRANCH   3   6
BRANCH   4  13
ATOM     13  O   UNL     1       4.829   7.043  17.000  0.00  0.00    +0.000 OA
ATOM     14  H   UNL     1       4.977   7.050  16.037  0.00  0.00    +0.000 HD
ENDBRANCH   4  13
BRANCH   5  15
ATOM     15  C   UNL     1       5.123   4.136  16.232  0.00  0.00    +0.000 C 
ATOM     16  N   UNL     1       5.543   4.742  15.177  0.00  0.00    +0.000 NA
BRANCH  16  17
ATOM     17  C   UNL     1       6.497   3.940  14.385  0.00  0.00    +0.000 C 
BRANCH  17  18
ATOM     18  C   UNL     1       6.077   3.864  12.908  0.00  0.00    +0.000 C 
ATOM     19  C   UNL     1       4.579   3.708  12.682  0.00  0.00    +0.000 C 
ATOM     20  C   UNL     1       4.535   3.004  11.348  0.00  0.00    +0.000 C 
ATOM     21  C   UNL     1       5.727   2.077  11.447  0.00  0.00    +0.000 C 
ATOM     22  O   UNL     1       6.717   2.758  12.236  0.00  0.00    +0.000 OA
ENDBRANCH  17  18
ENDBRANCH  16  17
ENDBRANCH   5  15
BRANCH   1  23
ATOM     23  C   UNL     1       2.491   2.690  17.512  0.00  0.00    +0.000 C 
BRANCH  23  25
ATOM     24  C   UNL     1       4.100   2.070  19.409  0.00  0.00    +0.000 C 
ATOM     25  C   UNL     1       2.766   1.796  18.724  0.00  0.00    +0.000 C 
ENDBRANCH  23  25
ENDBRANCH   1  23
TORSDOF 7
ENDMDL
