MODEL 1
REMARK VINA RESULT:      -6.8      0.000      0.000
REMARK  Name = 
REMARK  7 active torsions:
REMARK  status: ('A' for Active; 'I' for Inactive)
REMARK    1  A    between atoms: C_1  and  C_2
REMARK    2  A    between atoms: CA_3  and  N_4
REMARK    3  A    between atoms: CA_3  and  C_15
REMARK    4  A    between atoms: C_5  and  C_7
REMARK    5  A    between atoms: C_7  and  C_8
REMARK    6  A    between atoms: C_8  and  C_9
REMARK    7  A    between atoms: C_15  and  OXT_17
REMARK                            x       y       z     vdW  Elec       q    Type
REMARK                         _______ _______ _______ _____ _____    ______ ____
ROOT
ATOM      1  N   UNL     1       2.905   4.311  19.128  0.00  0.00    +0.000 N 
ATOM      2  C   UNL     1       2.392   3.924  17.901  0.00  0.00    +0.000 C 
ATOM      3  O   UNL     1       1.210   3.938  17.585  0.00  0.00    +0.000 OA
ATOM      4  H   UNL     1       3.908   4.475  19.173  0.00  0.00    +0.000 HD
ENDROOT
BRANCH   1   7
ATOM      5  C   UNL     1       2.081   7.232  19.955  0.00  0.00    +0.000 C 
ATOM      6  C   UNL     1       1.888   5.932  20.665  0.00  0.00    +0.000 C 
ATOM      7  CA  UNL     1       2.190   4.684  20.257  0.00  0.00    +0.000 C 
BRANCH   7   8
ATOM      8  C   UNL     1       1.628   3.584  21.124  0.00  0.00    +0.000 C 
ATOM      9  O   UNL     1       2.096   3.210  22.184  0.00  0.00    +0.000 OA
BRANCH   8  10
ATOM     10  OXT UNL     1       0.500   3.064  20.587  0.00  0.00    +0.000 OA
ATOM     11  HXT UNL     1       0.592   2.924  19.628  0.00  0.00    +0.000 HD
ENDBRANCH   8  10
ENDBRANCH   7   8
ENDBRANCH   1   7
BRANCH   2  12
ATOM     12  C   UNL     1       3.446   3.541  16.878  0.00  0.00    +0.000 C 
BRANCH  12  13
ATOM     13  C   UNL     1       4.870   3.871  17.305  0.00  0.00    +0.000 C 
BRANCH  13  14
ATOM     14  C   UNL     1       5.782   4.503  16.223  0.00  0.00    +0.000 C 
ATOM     15  C   UNL     1       5.391   5.936  15.816  0.00  0.00    +0.000 C 
ATOM     16  C   UNL     1       5.610   6.956  16.932  0.00  0.00    +0.000 C 
ATOM     17  C   UNL     1       7.033   6.910  17.488  0.00  0.00    +0.000 C 
ATOM     18  C   UNL     1       7.482   5.498  17.852  0.00  0.00    +0.000 C 
ATOM     19  C   UNL     1       7.244   4.510  16.709  0.00  0.00    +0.000 C 
ENDBRANCH  13  14
ENDBRANCH  12  13
ENDBRANCH   2  12
TORSDOF 6
ENDMDL
MODEL 2
REMARK VINA RESULT:      -6.8      5.324      7.428
REMARK  Name = 
REMARK  7 active torsions:
REMARK  status: ('A' for Active; 'I' for Inactive)
REMARK    1  A    between atoms: C_1  and  C_2
REMARK    2  A    between atoms: CA_3  and  N_4
REMARK    3  A    between atoms: CA_3  and  C_15
REMARK    4  A    between atoms: C_5  and  C_7
REMARK    5  A    between atoms: C_7  and  C_8
REMARK    6  A    between atoms: C_8  and  C_9
REMARK    7  A    between atoms: C_15  and  OXT_17
REMARK                            x       y       z     vdW  Elec       q    Type
REMARK                         _______ _______ _______ _____ _____    ______ ____
ROOT
ATOM      1  N   UNL     1       7.007   7.668  17.057  0.00  0.00    +0.000 N 
ATOM      2  C   UNL     1       7.940   8.031  18.014  0.00  0.00    +0.000 C 
ATOM      3  O   UNL     1       8.483   7.272  18.805  0.00  0.00    +0.000 OA
ATOM      4  H   UNL     1       6.821   8.345  16.321  0.00  0.00    +0.000 HD
ENDROOT
BRANCH   1   7
ATOM      5  C   UNL     1       3.996   6.895  17.536  0.00  0.00    +0.000 C 
ATOM      6  C   UNL     1       5.163   6.050  17.142  0.00  0.00    +0.000 C 
ATOM      7  CA  UNL     1       6.432   6.418  16.876  0.00  0.00    +0.000 C 
BRANCH   7   8
ATOM      8  C   UNL     1       7.287   5.336  16.265  0.00  0.00    +0.000 C 
ATOM      9  O   UNL     1       7.802   4.414  16.871  0.00  0.00    +0.000 OA
BRANCH   8  10
ATOM     10  OXT UNL     1       7.400   5.497  14.926  0.00  0.00    +0.000 OA
ATOM     11  HXT UNL     1       6.726   4.983  14.446  0.00  0.00    +0.000 HD
ENDBRANCH   8  10
ENDBRANCH   7   8
ENDBRANCH   1   7
BRANCH   2  12
ATOM     12  C   UNL     1       8.344   9.494  17.968  0.00  0.00    +0.000 C 
BRANCH  12  13
ATOM     13  C   UNL     1       9.321   9.900  19.062  0.00  0.00    +0.000 C 
BRANCH  13  14
ATOM     14  C   UNL     1       9.340  11.402  19.443  0.00  0.00    +0.000 C 
ATOM     15  C   UNL     1      10.463  11.801  20.419  0.00  0.00    +0.000 C 
ATOM     16  C   UNL     1      11.856  11.698  19.800  0.00  0.00    +0.000 C 
ATOM     17  C   UNL     1      11.966  12.473  18.487  0.00  0.00    +0.000 C 
ATOM     18  C   UNL     1      10.838  12.150  17.512  0.00  0.00    +0.000 C 
ATOM     19  C   UNL     1       9.462  12.263  18.171  0.00  0.00    +0.000 C 
ENDBRANCH  13  14
ENDBRANCH  12  13
ENDBRANCH   2  12
TORSDOF 6
ENDMDL
MODEL 3
REMARK VINA RESULT:      -6.7      2.936      5.821
REMARK  Name = 
REMARK  7 active torsions:
REMARK  status: ('A' for Active; 'I' for Inactive)
REMARK    1  A    between atoms: C_1  and  C_2
REMARK    2  A    between atoms: CA_3  and  N_4
REMARK    3  A    between atoms: CA_3  and  C_15
REMARK    4  A    between atoms: C_5  and  C_7
REMARK    5  A    between atoms: C_7  and  C_8
REMARK    6  A    between atoms: C_8  and  C_9
REMARK    7  A    between atoms: C_15  and  OXT_17
REMARK                            x       y       z     vdW  Elec       q    Type
REMARK                         _______ _______ _______ _____ _____    ______ ____
ROOT
ATOM      1  N   UNL     1       4.888   4.255  16.634  0.00  0.00    +0.000 N 
ATOM      2  C   UNL     1       4.834   3.517  17.804  0.00  0.00    +0.000 C 
ATOM      3  O   UNL     1       5.455   3.758  18.829  0.00  0.00    +0.000 OA
ATOM      4  H   UNL     1       4.151   4.088  15.953  0.00  0.00    +0.000 HD
ENDROOT
BRANCH   1   7
ATOM      5  C   UNL     1       4.298   7.290  17.210  0.00  0.00    +0.000 C 
ATOM      6  C   UNL     1       5.459   6.640  16.531  0.00  0.00    +0.000 C 
ATOM      7  CA  UNL     1       5.721   5.330  16.357  0.00  0.00    +0.000 C 
BRANCH   7   8
ATOM      8  C   UNL     1       7.108   5.027  15.847  0.00  0.00    +0.000 C 
ATOM      9  O   UNL     1       7.535   5.314  14.743  0.00  0.00    +0.000 OA
BRANCH   8  10
ATOM     10  OXT UNL     1       7.853   4.405  16.791  0.00  0.00    +0.000 OA
ATOM     11  HXT UNL     1       7.299   3.880  17.395  0.00  0.00    +0.000 HD
ENDBRANCH   8  10
ENDBRANCH   7   8
ENDBRANCH   1   7
BRANCH   2  12
ATOM     12  C   UNL     1       3.833   2.375  17.774  0.00  0.00    +0.000 C 
BRANCH  12  13
ATOM     13  C   UNL     1       3.228   2.048  19.133  0.00  0.00    +0.000 C 
BRANCH  13  14
ATOM     14  C   UNL     1       1.731   2.403  19.321  0.00  0.00    +0.000 C 
ATOM     15  C   UNL     1       1.301   2.607  20.786  0.00  0.00    +0.000 C 
ATOM     16  C   UNL     1       1.919   3.852  21.422  0.00  0.00    +0.000 C 
ATOM     17  C   UNL     1       1.669   5.111  20.593  0.00  0.00    +0.000 C 
ATOM     18  C   UNL     1       2.028   4.934  19.121  0.00  0.00    +0.000 C 
ATOM     19  C   UNL     1       1.391   3.678  18.524  0.00  0.00    +0.000 C 
ENDBRANCH  13  14
ENDBRANCH  12  13
ENDBRANCH   2  12
TORSDOF 6
ENDMDL
MODEL 4
REMARK VINA RESULT:      -6.6      3.002      5.530
REMARK  Name = 
REMARK  7 active torsions:
REMARK  status: ('A' for Active; 'I' for Inactive)
REMARK    1  A    between atoms: C_1  and  C_2
REMARK    2  A    between atoms: CA_3  and  N_4
REMARK    3  A    between atoms: CA_3  and  C_15
REMARK    4  A    between atoms: C_5  and  C_7
REMARK    5  A    between atoms: C_7  and  C_8
REMARK    6  A    between atoms: C_8  and  C_9
REMARK    7  A    between atoms: C_15  and  OXT_17
REMARK                            x       y       z     vdW  Elec       q    Type
REMARK                         _______ _______ _______ _____ _____    ______ ____
ROOT
ATOM      1  N   UNL     1       5.129   5.341  18.331  0.00  0.00    +0.000 N 
ATOM      2  C   UNL     1       4.294   6.316  17.811  0.00  0.00    +0.000 C 
ATOM      3  O   UNL     1       4.609   7.153  16.977  0.00  0.00    +0.000 OA
ATOM      4  H   UNL     1       4.681   4.573  18.827  0.00  0.00    +0.000 HD
ENDROOT
BRANCH   1   7
ATOM      5  C   UNL     1       6.467   4.106  15.766  0.00  0.00    +0.000 C 
ATOM      6  C   UNL     1       7.078   4.597  17.038  0.00  0.00    +0.000 C 
ATOM      7  CA  UNL     1       6.488   5.185  18.096  0.00  0.00    +0.000 C 
BRANCH   7   8
ATOM      8  C   UNL     1       7.444   5.779  19.101  0.00  0.00    +0.000 C 
ATOM      9  O   UNL     1       7.633   5.364  20.230  0.00  0.00    +0.000 OA
BRANCH   8  10
ATOM     10  OXT UNL     1       8.104   6.841  18.582  0.00  0.00    +0.000 OA
ATOM     11  HXT UNL     1       8.955   6.988  19.033  0.00  0.00    +0.000 HD
ENDBRANCH   8  10
ENDBRANCH   7   8
ENDBRANCH   1   7
BRANCH   2  12
ATOM     12  C   UNL     1       2.859   6.230  18.297  0.00  0.00    +0.000 C 
BRANCH  12  13
ATOM     13  C   UNL     1       2.677   5.369  19.539  0.00  0.00    +0.000 C 
BRANCH  13  14
ATOM     14  C   UNL     1       1.658   4.206  19.425  0.00  0.00    +0.000 C 
ATOM     15  C   UNL     1       1.418   3.705  17.988  0.00  0.00    +0.000 C 
ATOM     16  C   UNL     1       2.638   3.007  17.388  0.00  0.00    +0.000 C 
ATOM     17  C   UNL     1       3.163   1.885  18.283  0.00  0.00    +0.000 C 
ATOM     18  C   UNL     1       3.361   2.325  19.731  0.00  0.00    +0.000 C 
ATOM     19  C   UNL     1       2.118   3.019  20.292  0.00  0.00    +0.000 C 
ENDBRANCH  13  14
ENDBRANCH  12  13
ENDBRANCH   2  12
TORSDOF 6
ENDMDL
MODEL 5
REMARK VINA RESULT:      -6.6      2.942      6.191
REMARK  Name = 
REMARK  7 active torsions:
REMARK  status: ('A' for Active; 'I' for Inactive)
REMARK    1  A    between atoms: C_1  and  C_2
REMARK    2  A    between atoms: CA_3  and  N_4
REMARK    3  A    between atoms: CA_3  and  C_15
REMARK    4  A    between atoms: C_5  and  C_7
REMARK    5  A    between atoms: C_7  and  C_8
REMARK    6  A    between atoms: C_8  and  C_9
REMARK    7  A    between atoms: C_15  and  OXT_17
REMARK                            x       y       z     vdW  Elec       q    Type
REMARK                         _______ _______ _______ _____ _____    ______ ____
ROOT
ATOM      1  N   UNL     1       5.274   3.683  16.389  0.00  0.00    +0.000 N 
ATOM      2  C   UNL     1       4.179   4.335  16.932  0.00  0.00    +0.000 C 
ATOM      3  O   UNL     1       4.034   5.547  17.003  0.00  0.00    +0.000 OA
ATOM      4  H   UNL     1       5.159   2.694  16.178  0.00  0.00    +0.000 HD
ENDROOT
BRANCH   1   7
ATOM      5  C   UNL     1       6.183   3.947  13.390  0.00  0.00    +0.000 C 
ATOM      6  C   UNL     1       6.888   4.318  14.653  0.00  0.00    +0.000 C 
ATOM      7  CA  UNL     1       6.448   4.258  15.925  0.00  0.00    +0.000 C 
BRANCH   7   8
ATOM      8  C   UNL     1       7.335   4.949  16.932  0.00  0.00    +0.000 C 
ATOM      9  O   UNL     1       7.821   4.430  17.921  0.00  0.00    +0.000 OA
BRANCH   8  10
ATOM     10  OXT UNL     1       7.555   6.240  16.587  0.00  0.00    +0.000 OA
ATOM     11  HXT UNL     1       6.720   6.717  16.436  0.00  0.00    +0.000 HD
ENDBRANCH   8  10
ENDBRANCH   7   8
ENDBRANCH   1   7
BRANCH   2  12
ATOM     12  C   UNL     1       3.062   3.410  17.380  0.00  0.00    +0.000 C 
BRANCH  12  13
ATOM     13  C   UNL     1       1.856   4.134  17.962  0.00  0.00    +0.000 C 
BRANCH  13  14
ATOM     14  C   UNL     1       1.007   3.339  18.987  0.00  0.00    +0.000 C 
ATOM     15  C   UNL     1       1.618   1.992  19.416  0.00  0.00    +0.000 C 
ATOM     16  C   UNL     1       2.894   2.151  20.241  0.00  0.00    +0.000 C 
ATOM     17  C   UNL     1       2.695   3.074  21.444  0.00  0.00    +0.000 C 
ATOM     18  C   UNL     1       2.038   4.399  21.071  0.00  0.00    +0.000 C 
ATOM     19  C   UNL     1       0.767   4.196  20.245  0.00  0.00    +0.000 C 
ENDBRANCH  13  14
ENDBRANCH  12  13
ENDBRANCH   2  12
TORSDOF 6
ENDMDL
MODEL 6
REMARK VINA RESULT:      -6.6      2.947      6.248
REMARK  Name = 
REMARK  7 active torsions:
REMARK  status: ('A' for Active; 'I' for Inactive)
REMARK    1  A    between atoms: C_1  and  C_2
REMARK    2  A    between atoms: CA_3  and  N_4
REMARK    3  A    between atoms: CA_3  and  C_15
REMARK    4  A    between atoms: C_5  and  C_7
REMARK    5  A    between atoms: C_7  and  C_8
REMARK    6  A    between atoms: C_8  and  C_9
REMARK    7  A    between atoms: C_15  and  OXT_17
REMARK                            x       y       z     vdW  Elec       q    Type
REMARK                         _______ _______ _______ _____ _____    ______ ____
ROOT
ATOM      1  N   UNL     1       5.786   3.740  16.726  0.00  0.00    +0.000 N 
ATOM      2  C   UNL     1       4.472   3.868  17.143  0.00  0.00    +0.000 C 
ATOM      3  O   UNL     1       3.766   4.854  16.985  0.00  0.00    +0.000 OA
ATOM      4  H   UNL     1       6.170   2.798  16.707  0.00  0.00    +0.000 HD
ENDROOT
BRANCH   1   7
ATOM      5  C   UNL     1       7.470   5.921  18.243  0.00  0.00    +0.000 C 
ATOM      6  C   UNL     1       7.257   5.704  16.781  0.00  0.00    +0.000 C 
ATOM      7  CA  UNL     1       6.585   4.719  16.154  0.00  0.00    +0.000 C 
BRANCH   7   8
ATOM      8  C   UNL     1       6.786   4.673  14.658  0.00  0.00    +0.000 C 
ATOM      9  O   UNL     1       6.129   4.009  13.876  0.00  0.00    +0.000 OA
BRANCH   8  10
ATOM     10  OXT UNL     1       7.789   5.496  14.272  0.00  0.00    +0.000 OA
ATOM     11  HXT UNL     1       8.622   5.284  14.731  0.00  0.00    +0.000 HD
ENDBRANCH   8  10
ENDBRANCH   7   8
ENDBRANCH   1   7
BRANCH   2  12
ATOM     12  C   UNL     1       3.891   2.611  17.766  0.00  0.00    +0.000 C 
BRANCH  12  13
ATOM     13  C   UNL     1       3.986   2.573  19.285  0.00  0.00    +0.000 C 
BRANCH  13  14
ATOM     14  C   UNL     1       2.733   2.061  20.039  0.00  0.00    +0.000 C 
ATOM     15  C   UNL     1       2.516   2.696  21.425  0.00  0.00    +0.000 C 
ATOM     16  C   UNL     1       2.157   4.180  21.353  0.00  0.00    +0.000 C 
ATOM     17  C   UNL     1       0.964   4.442  20.434  0.00  0.00    +0.000 C 
ATOM     18  C   UNL     1       1.112   3.781  19.067  0.00  0.00    +0.000 C 
ATOM     19  C   UNL     1       1.473   2.300  19.184  0.00  0.00    +0.000 C 
ENDBRANCH  13  14
ENDBRANCH  12  13
ENDBRANCH   2  12
TORSDOF 6
ENDMDL
MODEL 7
REMARK VINA RESULT:      -6.6      2.877      6.047
REMARK  Name = 
REMARK  7 active torsions:
REMARK  status: ('A' for Active; 'I' for Inactive)
REMARK    1  A    between atoms: C_1  and  C_2
REMARK    2  A    between atoms: CA_3  and  N_4
REMARK    3  A    between atoms: CA_3  and  C_15
REMARK    4  A    between atoms: C_5  and  C_7
REMARK    5  A    between atoms: C_7  and  C_8
REMARK    6  A    between atoms: C_8  and  C_9
REMARK    7  A    between atoms: C_15  and  OXT_17
REMARK                            x       y       z     vdW  Elec       q    Type
REMARK                         _______ _______ _______ _____ _____    ______ ____
ROOT
ATOM      1  N   UNL     1       5.533   3.220  16.483  0.00  0.00    +0.000 N 
ATOM      2  C   UNL     1       4.302   3.500  17.053  0.00  0.00    +0.000 C 
ATOM      3  O   UNL     1       3.781   4.605  17.118  0.00  0.00    +0.000 OA
ATOM      4  H   UNL     1       5.733   2.243  16.284  0.00  0.00    +0.000 HD
ENDROOT
BRANCH   1   7
ATOM      5  C   UNL     1       5.927   4.022  13.467  0.00  0.00    +0.000 C 
ATOM      6  C   UNL     1       6.684   4.435  14.687  0.00  0.00    +0.000 C 
ATOM      7  CA  UNL     1       6.452   4.130  15.978  0.00  0.00    +0.000 C 
BRANCH   7   8
ATOM      8  C   UNL     1       7.267   4.924  16.969  0.00  0.00    +0.000 C 
ATOM      9  O   UNL     1       7.718   4.498  18.017  0.00  0.00    +0.000 OA
BRANCH   8  10
ATOM     10  OXT UNL     1       7.466   6.191  16.537  0.00  0.00    +0.000 OA
ATOM     11  HXT UNL     1       8.319   6.281  16.074  0.00  0.00    +0.000 HD
ENDBRANCH   8  10
ENDBRANCH   7   8
ENDBRANCH   1   7
BRANCH   2  12
ATOM     12  C   UNL     1       3.550   2.276  17.542  0.00  0.00    +0.000 C 
BRANCH  12  13
ATOM     13  C   UNL     1       2.170   2.585  18.108  0.00  0.00    +0.000 C 
BRANCH  13  14
ATOM     14  C   UNL     1       1.968   2.299  19.618  0.00  0.00    +0.000 C 
ATOM     15  C   UNL     1       3.154   2.711  20.511  0.00  0.00    +0.000 C 
ATOM     16  C   UNL     1       3.350   4.225  20.583  0.00  0.00    +0.000 C 
ATOM     17  C   UNL     1       2.072   4.956  20.992  0.00  0.00    +0.000 C 
ATOM     18  C   UNL     1       0.859   4.535  20.169  0.00  0.00    +0.000 C 
ATOM     19  C   UNL     1       0.699   3.014  20.122  0.00  0.00    +0.000 C 
ENDBRANCH  13  14
ENDBRANCH  12  13
ENDBRANCH   2  12
TORSDOF 6
ENDMDL
MODEL 8
REMARK VINA RESULT:      -6.6      3.242      5.991
REMARK  Name = 
REMARK  7 active torsions:
REMARK  status: ('A' for Active; 'I' for Inactive)
REMARK    1  A    between atoms: C_1  and  C_2
REMARK    2  A    between atoms: CA_3  and  N_4
REMARK    3  A    between atoms: CA_3  and  C_15
REMARK    4  A    between atoms: C_5  and  C_7
REMARK    5  A    between atoms: C_7  and  C_8
REMARK    6  A    between atoms: C_8  and  C_9
REMARK    7  A    between atoms: C_15  and  OXT_17
REMARK                            x       y       z     vdW  Elec       q    Type
REMARK                         _______ _______ _______ _____ _____    ______ ____
ROOT
ATOM      1  N   UNL     1       5.244   6.200  17.750  0.00  0.00    +0.000 N 
ATOM      2  C   UNL     1       4.738   5.729  18.950  0.00  0.00    +0.000 C 
ATOM      3  O   UNL     1       5.385   5.178  19.829  0.00  0.00    +0.000 OA
ATOM      4  H   UNL     1       4.655   6.842  17.225  0.00  0.00    +0.000 HD
ENDROOT
BRANCH   1   7
ATOM      5  C   UNL     1       6.212   4.144  15.575  0.00  0.00    +0.000 C 
ATOM      6  C   UNL     1       6.984   5.130  16.389  0.00  0.00    +0.000 C 
ATOM      7  CA  UNL     1       6.536   6.049  17.266  0.00  0.00    +0.000 C 
BRANCH   7   8
ATOM      8  C   UNL     1       7.574   7.047  17.719  0.00  0.00    +0.000 C 
ATOM      9  O   UNL     1       7.854   8.086  17.147  0.00  0.00    +0.000 OA
BRANCH   8  10
ATOM     10  OXT UNL     1       8.157   6.658  18.877  0.00  0.00    +0.000 OA
ATOM     11  HXT UNL     1       7.526   6.678  19.619  0.00  0.00    +0.000 HD
ENDBRANCH   8  10
ENDBRANCH   7   8
ENDBRANCH   1   7
BRANCH   2  12
ATOM     12  C   UNL     1       3.266   6.032  19.166  0.00  0.00    +0.000 C 
BRANCH  12  13
ATOM     13  C   UNL     1       2.532   4.977  19.982  0.00  0.00    +0.000 C 
BRANCH  13  14
ATOM     14  C   UNL     1       1.371   4.241  19.266  0.00  0.00    +0.000 C 
ATOM     15  C   UNL     1       1.471   4.232  17.729  0.00  0.00    +0.000 C 
ATOM     16  C   UNL     1       2.638   3.393  17.210  0.00  0.00    +0.000 C 
ATOM     17  C   UNL     1       2.621   1.970  17.769  0.00  0.00    +0.000 C 
ATOM     18  C   UNL     1       2.465   1.931  19.286  0.00  0.00    +0.000 C 
ATOM     19  C   UNL     1       1.289   2.784  19.762  0.00  0.00    +0.000 C 
ENDBRANCH  13  14
ENDBRANCH  12  13
ENDBRANCH   2  12
TORSDOF 6
ENDMDL
MODEL 9
REMARK VINA RESULT:      -6.6      3.008      6.091
REMARK  Name = 
REMARK  7 active torsions:
REMARK  status: ('A' for Active; 'I' for Inactive)
REMARK    1  A    between atoms: C_1  and  C_2
REMARK    2  A    between atoms: CA_3  and  N_4
REMARK    3  A    between atoms: CA_3  and  C_15
REMARK    4  A    between atoms: C_5  and  C_7
REMARK    5  A    between atoms: C_7  and  C_8
REMARK    6  A    between atoms: C_8  and  C_9
REMARK    7  A    between atoms: C_15  and  OXT_17
REMARK                            x       y       z     vdW  Elec       q    Type
REMARK                         _______ _______ _______ _____ _____    ______ ____
ROOT
ATOM      1  N   UNL     1       5.559   6.122  17.411  0.00  0.00    +0.000 N 
ATOM      2  C   UNL     1       4.858   5.720  18.536  0.00  0.00    +0.000 C 
ATOM      3  O   UNL     1       5.354   5.376  19.599  0.00  0.00    +0.000 OA
ATOM      4  H   UNL     1       5.027   6.604  16.689  0.00  0.00    +0.000 HD
ENDROOT
BRANCH   1   7
ATOM      5  C   UNL     1       7.523   8.549  17.787  0.00  0.00    +0.000 C 
ATOM      6  C   UNL     1       7.783   7.155  17.318  0.00  0.00    +0.000 C 
ATOM      7  CA  UNL     1       6.934   6.113  17.230  0.00  0.00    +0.000 C 
BRANCH   7   8
ATOM      8  C   UNL     1       7.595   4.785  16.951  0.00  0.00    +0.000 C 
ATOM      9  O   UNL     1       8.247   4.136  17.750  0.00  0.00    +0.000 OA
BRANCH   8  10
ATOM     10  OXT UNL     1       7.352   4.372  15.684  0.00  0.00    +0.000 OA
ATOM     11  HXT UNL     1       8.129   4.503  15.111  0.00  0.00    +0.000 HD
ENDBRANCH   8  10
ENDBRANCH   7   8
ENDBRANCH   1   7
BRANCH   2  12
ATOM     12  C   UNL     1       3.350   5.821  18.399  0.00  0.00    +0.000 C 
BRANCH  12  13
ATOM     13  C   UNL     1       2.647   4.474  18.297  0.00  0.00    +0.000 C 
BRANCH  13  14
ATOM     14  C   UNL     1       1.312   4.336  19.072  0.00  0.00    +0.000 C 
ATOM     15  C   UNL     1       0.818   2.887  19.243  0.00  0.00    +0.000 C 
ATOM     16  C   UNL     1       1.711   2.056  20.164  0.00  0.00    +0.000 C 
ATOM     17  C   UNL     1       1.929   2.728  21.520  0.00  0.00    +0.000 C 
ATOM     18  C   UNL     1       2.364   4.185  21.396  0.00  0.00    +0.000 C 
ATOM     19  C   UNL     1       1.446   4.979  20.466  0.00  0.00    +0.000 C 
ENDBRANCH  13  14
ENDBRANCH  12  13
ENDBRANCH   2  12
TORSDOF 6
ENDMDL
