MODEL 1
REMARK VINA RESULT:      -7.9      0.000      0.000
REMARK  Name = 
REMARK  7 active torsions:
REMARK  status: ('A' for Active; 'I' for Inactive)
REMARK    1  A    between atoms: C_1  and  C_2
REMARK    2  A    between atoms: C_4  and  S_5
REMARK    3  A    between atoms: S_5  and  C_6
REMARK    4  A    between atoms: C_6  and  C_7
REMARK    5  A    between atoms: C_7  and  C_9
REMARK    6  A    between atoms: C_13  and  N_14
REMARK    7  A    between atoms: C_19  and  O_20
REMARK                            x       y       z     vdW  Elec       q    Type
REMARK                         _______ _______ _______ _____ _____    ______ ____
ROOT
ATOM      1  C   UNL     1       4.860   6.343  16.770  0.00  0.00    +0.000 C 
ENDROOT
BRANCH   1   2
ATOM      2  C   UNL     1       3.677   6.386  17.739  0.00  0.00    +0.000 C 
ATOM      3  O   UNL     1       3.149   7.426  18.131  0.00  0.00    +0.000 OA
BRANCH   2   4
ATOM      4  C   UNL     1       3.115   5.100  18.252  0.00  0.00    +0.000 A 
ATOM      5  C   UNL     1       1.921   4.623  17.683  0.00  0.00    +0.000 A 
ATOM      6  C   UNL     1       1.354   3.419  18.106  0.00  0.00    +0.000 A 
ATOM      7  C   UNL     1       1.966   2.682  19.116  0.00  0.00    +0.000 A 
ATOM      8  C   UNL     1       3.142   3.166  19.704  0.00  0.00    +0.000 A 
ATOM      9  C   UNL     1       3.728   4.366  19.271  0.00  0.00    +0.000 A 
BRANCH   8  10
ATOM     10  N   UNL     1       3.763   2.420  20.806  0.00  0.00    +0.000 N 
ATOM     11  O   UNL     1       3.138   2.335  21.872  0.00  0.00    +0.000 OA
ATOM     12  O   UNL     1       4.881   1.926  20.603  0.00  0.00    +0.000 OA
ENDBRANCH   8  10
ENDBRANCH   2   4
ENDBRANCH   1   2
BRANCH   1  13
ATOM     13  S   UNL     1       5.483   4.638  16.637  0.00  0.00    +0.000 S 
BRANCH  13  17
ATOM     14  C   UNL     1       5.618   2.804  11.794  0.00  0.00    +0.000 C 
ATOM     15  C   UNL     1       6.199   3.696  12.849  0.00  0.00    +0.000 A 
ATOM     16  C   UNL     1       5.642   3.747  14.107  0.00  0.00    +0.000 A 
ATOM     17  C   UNL     1       6.234   4.598  15.021  0.00  0.00    +0.000 A 
ATOM     18  N   UNL     1       7.306   5.359  14.742  0.00  0.00    +0.000 NA
ATOM     19  C   UNL     1       7.756   5.221  13.486  0.00  0.00    +0.000 A 
ATOM     20  N   UNL     1       7.271   4.437  12.521  0.00  0.00    +0.000 NA
BRANCH  19  21
ATOM     21  O   UNL     1       8.841   5.978  13.172  0.00  0.00    +0.000 OA
ATOM     22  H   UNL     1       9.546   5.419  13.533  0.00  0.00    +0.000 HD
ENDBRANCH  19  21
ENDBRANCH  13  17
ENDBRANCH   1  13
TORSDOF 6
ENDMDL
MODEL 2
REMARK VINA RESULT:      -7.8      3.833      5.300
REMARK  Name = 
REMARK  7 active torsions:
REMARK  status: ('A' for Active; 'I' for Inactive)
REMARK    1  A    between atoms: C_1  and  C_2
REMARK    2  A    between atoms: C_4  and  S_5
REMARK    3  A    between atoms: S_5  and  C_6
REMARK    4  A    between atoms: C_6  and  C_7
REMARK    5  A    between atoms: C_7  and  C_9
REMARK    6  A    between atoms: C_13  and  N_14
REMARK    7  A    between atoms: C_19  and  O_20
REMARK                            x       y       z     vdW  Elec       q    Type
REMARK                         _______ _______ _______ _____ _____    ______ ____
ROOT
ATOM      1  C   UNL     1       4.382   3.384  17.836  0.00  0.00    +0.000 C 
ENDROOT
BRANCH   1   2
ATOM      2  C   UNL     1       2.958   3.933  17.723  0.00  0.00    +0.000 C 
ATOM      3  O   UNL     1       2.103   3.473  16.966  0.00  0.00    +0.000 OA
BRANCH   2   4
ATOM      4  C   UNL     1       2.561   5.096  18.573  0.00  0.00    +0.000 A 
ATOM      5  C   UNL     1       2.279   4.861  19.930  0.00  0.00    +0.000 A 
ATOM      6  C   UNL     1       1.920   5.908  20.781  0.00  0.00    +0.000 A 
ATOM      7  C   UNL     1       1.823   7.204  20.283  0.00  0.00    +0.000 A 
ATOM      8  C   UNL     1       2.079   7.440  18.926  0.00  0.00    +0.000 A 
ATOM      9  C   UNL     1       2.459   6.394  18.068  0.00  0.00    +0.000 A 
BRANCH   8  10
ATOM     10  N   UNL     1       1.927   8.795  18.383  0.00  0.00    +0.000 N 
ATOM     11  O   UNL     1       2.396   9.025  17.259  0.00  0.00    +0.000 OA
ATOM     12  O   UNL     1       1.345   9.631  19.089  0.00  0.00    +0.000 OA
ENDBRANCH   8  10
ENDBRANCH   2   4
ENDBRANCH   1   2
BRANCH   1  13
ATOM     13  S   UNL     1       5.456   4.212  16.622  0.00  0.00    +0.000 S 
BRANCH  13  17
ATOM     14  C   UNL     1       7.941   8.674  17.482  0.00  0.00    +0.000 C 
ATOM     15  C   UNL     1       7.611   7.280  17.920  0.00  0.00    +0.000 A 
ATOM     16  C   UNL     1       6.787   6.483  17.158  0.00  0.00    +0.000 A 
ATOM     17  C   UNL     1       6.529   5.211  17.635  0.00  0.00    +0.000 A 
ATOM     18  N   UNL     1       7.036   4.730  18.783  0.00  0.00    +0.000 NA
ATOM     19  C   UNL     1       7.823   5.599  19.434  0.00  0.00    +0.000 A 
ATOM     20  N   UNL     1       8.143   6.845  19.076  0.00  0.00    +0.000 NA
BRANCH  19  21
ATOM     21  O   UNL     1       8.353   5.142  20.598  0.00  0.00    +0.000 OA
ATOM     22  H   UNL     1       9.268   4.987  20.318  0.00  0.00    +0.000 HD
ENDBRANCH  19  21
ENDBRANCH  13  17
ENDBRANCH   1  13
TORSDOF 6
ENDMDL
MODEL 3
REMARK VINA RESULT:      -7.8      2.900      4.038
REMARK  Name = 
REMARK  7 active torsions:
REMARK  status: ('A' for Active; 'I' for Inactive)
REMARK    1  A    between atoms: C_1  and  C_2
REMARK    2  A    between atoms: C_4  and  S_5
REMARK    3  A    between atoms: S_5  and  C_6
REMARK    4  A    between atoms: C_6  and  C_7
REMARK    5  A    between atoms: C_7  and  C_9
REMARK    6  A    between atoms: C_13  and  N_14
REMARK    7  A    between atoms: C_19  and  O_20
REMARK                            x       y       z     vdW  Elec       q    Type
REMARK                         _______ _______ _______ _____ _____    ______ ____
ROOT
ATOM      1  C   UNL     1       4.883   4.998  15.734  0.00  0.00    +0.000 C 
ENDROOT
BRANCH   1   2
ATOM      2  C   UNL     1       4.116   5.359  17.007  0.00  0.00    +0.000 C 
ATOM      3  O   UNL     1       4.009   6.506  17.442  0.00  0.00    +0.000 OA
BRANCH   2   4
ATOM      4  C   UNL     1       3.449   4.271  17.784  0.00  0.00    +0.000 A 
ATOM      5  C   UNL     1       3.028   3.122  17.091  0.00  0.00    +0.000 A 
ATOM      6  C   UNL     1       2.415   2.062  17.762  0.00  0.00    +0.000 A 
ATOM      7  C   UNL     1       2.199   2.143  19.135  0.00  0.00    +0.000 A 
ATOM      8  C   UNL     1       2.594   3.297  19.826  0.00  0.00    +0.000 A 
ATOM      9  C   UNL     1       3.228   4.359  19.161  0.00  0.00    +0.000 A 
BRANCH   8  10
ATOM     10  N   UNL     1       2.321   3.411  21.264  0.00  0.00    +0.000 N 
ATOM     11  O   UNL     1       2.057   2.373  21.887  0.00  0.00    +0.000 OA
ATOM     12  O   UNL     1       2.364   4.543  21.766  0.00  0.00    +0.000 OA
ENDBRANCH   8  10
ENDBRANCH   2   4
ENDBRANCH   1   2
BRANCH   1  13
ATOM     13  S   UNL     1       6.438   4.159  16.172  0.00  0.00    +0.000 S 
BRANCH  13  17
ATOM     14  C   UNL     1       8.101   8.835  17.657  0.00  0.00    +0.000 C 
ATOM     15  C   UNL     1       7.871   7.389  17.977  0.00  0.00    +0.000 A 
ATOM     16  C   UNL     1       7.329   6.541  17.038  0.00  0.00    +0.000 A 
ATOM     17  C   UNL     1       7.145   5.224  17.414  0.00  0.00    +0.000 A 
ATOM     18  N   UNL     1       7.466   4.746  18.629  0.00  0.00    +0.000 NA
ATOM     19  C   UNL     1       7.986   5.667  19.454  0.00  0.00    +0.000 A 
ATOM     20  N   UNL     1       8.209   6.960  19.205  0.00  0.00    +0.000 NA
BRANCH  19  21
ATOM     21  O   UNL     1       8.323   5.214  20.690  0.00  0.00    +0.000 OA
ATOM     22  H   UNL     1       8.954   4.519  20.449  0.00  0.00    +0.000 HD
ENDBRANCH  19  21
ENDBRANCH  13  17
ENDBRANCH   1  13
TORSDOF 6
ENDMDL
MODEL 4
REMARK VINA RESULT:      -7.8      1.481      1.749
REMARK  Name = 
REMARK  7 active torsions:
REMARK  status: ('A' for Active; 'I' for Inactive)
REMARK    1  A    between atoms: C_1  and  C_2
REMARK    2  A    between atoms: C_4  and  S_5
REMARK    3  A    between atoms: S_5  and  C_6
REMARK    4  A    between atoms: C_6  and  C_7
REMARK    5  A    between atoms: C_7  and  C_9
REMARK    6  A    between atoms: C_13  and  N_14
REMARK    7  A    between atoms: C_19  and  O_20
REMARK                            x       y       z     vdW  Elec       q    Type
REMARK                         _______ _______ _______ _____ _____    ______ ____
ROOT
ATOM      1  C   UNL     1       4.741   4.393  16.770  0.00  0.00    +0.000 C 
ENDROOT
BRANCH   1   2
ATOM      2  C   UNL     1       4.128   5.639  17.412  0.00  0.00    +0.000 C 
ATOM      3  O   UNL     1       4.321   6.785  17.007  0.00  0.00    +0.000 OA
BRANCH   2   4
ATOM      4  C   UNL     1       3.239   5.478  18.602  0.00  0.00    +0.000 A 
ATOM      5  C   UNL     1       2.738   6.638  19.220  0.00  0.00    +0.000 A 
ATOM      6  C   UNL     1       1.889   6.554  20.325  0.00  0.00    +0.000 A 
ATOM      7  C   UNL     1       1.540   5.308  20.839  0.00  0.00    +0.000 A 
ATOM      8  C   UNL     1       2.058   4.150  20.243  0.00  0.00    +0.000 A 
ATOM      9  C   UNL     1       2.898   4.225  19.119  0.00  0.00    +0.000 A 
BRANCH   8  10
ATOM     10  N   UNL     1       1.737   2.835  20.812  0.00  0.00    +0.000 N 
ATOM     11  O   UNL     1       1.647   2.745  22.045  0.00  0.00    +0.000 OA
ATOM     12  O   UNL     1       1.583   1.893  20.023  0.00  0.00    +0.000 OA
ENDBRANCH   8  10
ENDBRANCH   2   4
ENDBRANCH   1   2
BRANCH   1  13
ATOM     13  S   UNL     1       6.548   4.584  16.665  0.00  0.00    +0.000 S 
BRANCH  13  17
ATOM     14  C   UNL     1       5.559   2.820  11.896  0.00  0.00    +0.000 C 
ATOM     15  C   UNL     1       6.326   3.743  12.793  0.00  0.00    +0.000 A 
ATOM     16  C   UNL     1       6.112   3.736  14.153  0.00  0.00    +0.000 A 
ATOM     17  C   UNL     1       6.857   4.621  14.910  0.00  0.00    +0.000 A 
ATOM     18  N   UNL     1       7.761   5.467  14.388  0.00  0.00    +0.000 NA
ATOM     19  C   UNL     1       7.881   5.379  13.055  0.00  0.00    +0.000 A 
ATOM     20  N   UNL     1       7.220   4.570  12.223  0.00  0.00    +0.000 NA
BRANCH  19  21
ATOM     21  O   UNL     1       8.789   6.221  12.497  0.00  0.00    +0.000 OA
ATOM     22  H   UNL     1       9.558   6.035  13.056  0.00  0.00    +0.000 HD
ENDBRANCH  19  21
ENDBRANCH  13  17
ENDBRANCH   1  13
TORSDOF 6
ENDMDL
MODEL 5
REMARK VINA RESULT:      -7.7      2.398      7.049
REMARK  Name = 
REMARK  7 active torsions:
REMARK  status: ('A' for Active; 'I' for Inactive)
REMARK    1  A    between atoms: C_1  and  C_2
REMARK    2  A    between atoms: C_4  and  S_5
REMARK    3  A    between atoms: S_5  and  C_6
REMARK    4  A    between atoms: C_6  and  C_7
REMARK    5  A    between atoms: C_7  and  C_9
REMARK    6  A    between atoms: C_13  and  N_14
REMARK    7  A    between atoms: C_19  and  O_20
REMARK                            x       y       z     vdW  Elec       q    Type
REMARK                         _______ _______ _______ _____ _____    ______ ____
ROOT
ATOM      1  C   UNL     1       6.369   6.178  16.476  0.00  0.00    +0.000 C 
ENDROOT
BRANCH   1   2
ATOM      2  C   UNL     1       7.136   4.995  15.881  0.00  0.00    +0.000 C 
ATOM      3  O   UNL     1       7.796   4.199  16.549  0.00  0.00    +0.000 OA
BRANCH   2   4
ATOM      4  C   UNL     1       7.094   4.774  14.404  0.00  0.00    +0.000 A 
ATOM      5  C   UNL     1       7.948   5.543  13.592  0.00  0.00    +0.000 A 
ATOM      6  C   UNL     1       7.969   5.371  12.207  0.00  0.00    +0.000 A 
ATOM      7  C   UNL     1       7.125   4.438  11.611  0.00  0.00    +0.000 A 
ATOM      8  C   UNL     1       6.254   3.688  12.412  0.00  0.00    +0.000 A 
ATOM      9  C   UNL     1       6.241   3.842  13.809  0.00  0.00    +0.000 A 
BRANCH   8  10
ATOM     10  N   UNL     1       5.324   2.741  11.785  0.00  0.00    +0.000 N 
ATOM     11  O   UNL     1       4.163   3.120  11.581  0.00  0.00    +0.000 OA
ATOM     12  O   UNL     1       5.759   1.615  11.505  0.00  0.00    +0.000 OA
ENDBRANCH   8  10
ENDBRANCH   2   4
ENDBRANCH   1   2
BRANCH   1  13
ATOM     13  S   UNL     1       6.379   6.064  18.292  0.00  0.00    +0.000 S 
BRANCH  13  17
ATOM     14  C   UNL     1       1.563   4.197  17.903  0.00  0.00    +0.000 C 
ATOM     15  C   UNL     1       2.970   4.036  18.394  0.00  0.00    +0.000 A 
ATOM     16  C   UNL     1       3.913   5.010  18.149  0.00  0.00    +0.000 A 
ATOM     17  C   UNL     1       5.188   4.783  18.631  0.00  0.00    +0.000 A 
ATOM     18  N   UNL     1       5.539   3.679  19.314  0.00  0.00    +0.000 NA
ATOM     19  C   UNL     1       4.535   2.808  19.489  0.00  0.00    +0.000 A 
ATOM     20  N   UNL     1       3.272   2.915  19.072  0.00  0.00    +0.000 NA
BRANCH  19  21
ATOM     21  O   UNL     1       4.858   1.681  20.177  0.00  0.00    +0.000 OA
ATOM     22  H   UNL     1       5.286   2.074  20.953  0.00  0.00    +0.000 HD
ENDBRANCH  19  21
ENDBRANCH  13  17
ENDBRANCH   1  13
TORSDOF 6
ENDMDL
MODEL 6
REMARK VINA RESULT:      -7.7      1.745      2.018
REMARK  Name = 
REMARK  7 active torsions:
REMARK  status: ('A' for Active; 'I' for Inactive)
REMARK    1  A    between atoms: C_1  and  C_2
REMARK    2  A    between atoms: C_4  and  S_5
REMARK    3  A    between atoms: S_5  and  C_6
REMARK    4  A    between atoms: C_6  and  C_7
REMARK    5  A    between atoms: C_7  and  C_9
REMARK    6  A    between atoms: C_13  and  N_14
REMARK    7  A    between atoms: C_19  and  O_20
REMARK                            x       y       z     vdW  Elec       q    Type
REMARK                         _______ _______ _______ _____ _____    ______ ____
ROOT
ATOM      1  C   UNL     1       6.129   5.585  17.429  0.00  0.00    +0.000 C 
ENDROOT
BRANCH   1   2
ATOM      2  C   UNL     1       5.864   5.374  18.921  0.00  0.00    +0.000 C 
ATOM      3  O   UNL     1       6.752   5.234  19.762  0.00  0.00    +0.000 OA
BRANCH   2   4
ATOM      4  C   UNL     1       4.452   5.333  19.407  0.00  0.00    +0.000 A 
ATOM      5  C   UNL     1       3.659   6.482  19.242  0.00  0.00    +0.000 A 
ATOM      6  C   UNL     1       2.326   6.501  19.659  0.00  0.00    +0.000 A 
ATOM      7  C   UNL     1       1.772   5.375  20.262  0.00  0.00    +0.000 A 
ATOM      8  C   UNL     1       2.567   4.237  20.452  0.00  0.00    +0.000 A 
ATOM      9  C   UNL     1       3.902   4.203  20.018  0.00  0.00    +0.000 A 
BRANCH   8  10
ATOM     10  N   UNL     1       2.004   3.065  21.136  0.00  0.00    +0.000 N 
ATOM     11  O   UNL     1       1.038   2.496  20.608  0.00  0.00    +0.000 OA
ATOM     12  O   UNL     1       2.526   2.724  22.206  0.00  0.00    +0.000 OA
ENDBRANCH   8  10
ENDBRANCH   2   4
ENDBRANCH   1   2
BRANCH   1  13
ATOM     13  S   UNL     1       5.401   4.215  16.477  0.00  0.00    +0.000 S 
BRANCH  13  17
ATOM     14  C   UNL     1       5.770   2.799  11.508  0.00  0.00    +0.000 C 
ATOM     15  C   UNL     1       6.276   3.625  12.652  0.00  0.00    +0.000 A 
ATOM     16  C   UNL     1       5.679   3.546  13.890  0.00  0.00    +0.000 A 
ATOM     17  C   UNL     1       6.202   4.343  14.891  0.00  0.00    +0.000 A 
ATOM     18  N   UNL     1       7.245   5.171  14.712  0.00  0.00    +0.000 NA
ATOM     19  C   UNL     1       7.740   5.159  13.465  0.00  0.00    +0.000 A 
ATOM     20  N   UNL     1       7.322   4.437  12.423  0.00  0.00    +0.000 NA
BRANCH  19  21
ATOM     21  O   UNL     1       8.798   5.985  13.252  0.00  0.00    +0.000 OA
ATOM     22  H   UNL     1       8.365   6.684  12.739  0.00  0.00    +0.000 HD
ENDBRANCH  19  21
ENDBRANCH  13  17
ENDBRANCH   1  13
TORSDOF 6
ENDMDL
MODEL 7
REMARK VINA RESULT:      -7.7      3.393      5.077
REMARK  Name = 
REMARK  7 active torsions:
REMARK  status: ('A' for Active; 'I' for Inactive)
REMARK    1  A    between atoms: C_1  and  C_2
REMARK    2  A    between atoms: C_4  and  S_5
REMARK    3  A    between atoms: S_5  and  C_6
REMARK    4  A    between atoms: C_6  and  C_7
REMARK    5  A    between atoms: C_7  and  C_9
REMARK    6  A    between atoms: C_13  and  N_14
REMARK    7  A    between atoms: C_19  and  O_20
REMARK                            x       y       z     vdW  Elec       q    Type
REMARK                         _______ _______ _______ _____ _____    ______ ____
ROOT
ATOM      1  C   UNL     1       3.888   5.317  19.716  0.00  0.00    +0.000 C 
ENDROOT
BRANCH   1   2
ATOM      2  C   UNL     1       2.879   5.843  18.693  0.00  0.00    +0.000 C 
ATOM      3  O   UNL     1       2.499   5.203  17.712  0.00  0.00    +0.000 OA
BRANCH   2   4
ATOM      4  C   UNL     1       2.308   7.211  18.877  0.00  0.00    +0.000 A 
ATOM      5  C   UNL     1       2.358   8.104  17.792  0.00  0.00    +0.000 A 
ATOM      6  C   UNL     1       1.826   9.390  17.895  0.00  0.00    +0.000 A 
ATOM      7  C   UNL     1       1.248   9.808  19.091  0.00  0.00    +0.000 A 
ATOM      8  C   UNL     1       1.218   8.931  20.183  0.00  0.00    +0.000 A 
ATOM      9  C   UNL     1       1.735   7.629  20.081  0.00  0.00    +0.000 A 
BRANCH   8  10
ATOM     10  N   UNL     1       0.658   9.384  21.462  0.00  0.00    +0.000 N 
ATOM     11  O   UNL     1      -0.244   8.704  21.972  0.00  0.00    +0.000 OA
ATOM     12  O   UNL     1       1.118  10.426  21.950  0.00  0.00    +0.000 OA
ENDBRANCH   8  10
ENDBRANCH   2   4
ENDBRANCH   1   2
BRANCH   1  13
ATOM     13  S   UNL     1       4.866   3.971  18.975  0.00  0.00    +0.000 S 
BRANCH  13  17
ATOM     14  C   UNL     1       7.867   7.983  17.659  0.00  0.00    +0.000 C 
ATOM     15  C   UNL     1       7.224   6.681  17.289  0.00  0.00    +0.000 A 
ATOM     16  C   UNL     1       6.433   6.008  18.193  0.00  0.00    +0.000 A 
ATOM     17  C   UNL     1       5.881   4.812  17.776  0.00  0.00    +0.000 A 
ATOM     18  N   UNL     1       6.077   4.289  16.553  0.00  0.00    +0.000 NA
ATOM     19  C   UNL     1       6.864   5.036  15.764  0.00  0.00    +0.000 A 
ATOM     20  N   UNL     1       7.451   6.199  16.054  0.00  0.00    +0.000 NA
BRANCH  19  21
ATOM     21  O   UNL     1       7.081   4.535  14.520  0.00  0.00    +0.000 OA
ATOM     22  H   UNL     1       7.343   5.344  14.056  0.00  0.00    +0.000 HD
ENDBRANCH  19  21
ENDBRANCH  13  17
ENDBRANCH   1  13
TORSDOF 6
ENDMDL
MODEL 8
REMARK VINA RESULT:      -7.7      3.633      5.024
REMARK  Name = 
REMARK  7 active torsions:
REMARK  status: ('A' for Active; 'I' for Inactive)
REMARK    1  A    between atoms: C_1  and  C_2
REMARK    2  A    between atoms: C_4  and  S_5
REMARK    3  A    between atoms: S_5  and  C_6
REMARK    4  A    between atoms: C_6  and  C_7
REMARK    5  A    between atoms: C_7  and  C_9
REMARK    6  A    between atoms: C_13  and  N_14
REMARK    7  A    between atoms: C_19  and  O_20
REMARK                            x       y       z     vdW  Elec       q    Type
REMARK                         _______ _______ _______ _____ _____    ______ ____
ROOT
ATOM      1  C   UNL     1       2.461   5.026  17.881  0.00  0.00    +0.000 C 
ENDROOT
BRANCH   1   2
ATOM      2  C   UNL     1       2.739   5.892  19.112  0.00  0.00    +0.000 C 
ATOM      3  O   UNL     1       3.397   5.515  20.081  0.00  0.00    +0.000 OA
BRANCH   2   4
ATOM      4  C   UNL     1       2.189   7.280  19.159  0.00  0.00    +0.000 A 
ATOM      5  C   UNL     1       2.234   8.054  17.985  0.00  0.00    +0.000 A 
ATOM      6  C   UNL     1       1.721   9.352  17.959  0.00  0.00    +0.000 A 
ATOM      7  C   UNL     1       1.167   9.901  19.113  0.00  0.00    +0.000 A 
ATOM      8  C   UNL     1       1.142   9.144  20.291  0.00  0.00    +0.000 A 
ATOM      9  C   UNL     1       1.640   7.831  20.320  0.00  0.00    +0.000 A 
BRANCH   8  10
ATOM     10  N   UNL     1       0.608   9.737  21.524  0.00  0.00    +0.000 N 
ATOM     11  O   UNL     1       0.918  10.907  21.784  0.00  0.00    +0.000 OA
ATOM     12  O   UNL     1      -0.115   9.024  22.233  0.00  0.00    +0.000 OA
ENDBRANCH   8  10
ENDBRANCH   2   4
ENDBRANCH   1   2
BRANCH   1  13
ATOM     13  S   UNL     1       3.433   3.490  17.981  0.00  0.00    +0.000 S 
BRANCH  13  17
ATOM     14  C   UNL     1       6.857   4.644  14.269  0.00  0.00    +0.000 C 
ATOM     15  C   UNL     1       6.537   4.504  15.726  0.00  0.00    +0.000 A 
ATOM     16  C   UNL     1       5.284   4.106  16.133  0.00  0.00    +0.000 A 
ATOM     17  C   UNL     1       5.069   4.006  17.495  0.00  0.00    +0.000 A 
ATOM     18  N   UNL     1       6.009   4.273  18.417  0.00  0.00    +0.000 NA
ATOM     19  C   UNL     1       7.186   4.650  17.898  0.00  0.00    +0.000 A 
ATOM     20  N   UNL     1       7.511   4.783  16.610  0.00  0.00    +0.000 NA
BRANCH  19  21
ATOM     21  O   UNL     1       8.159   4.927  18.806  0.00  0.00    +0.000 OA
ATOM     22  H   UNL     1       7.773   5.707  19.234  0.00  0.00    +0.000 HD
ENDBRANCH  19  21
ENDBRANCH  13  17
ENDBRANCH   1  13
TORSDOF 6
ENDMDL
MODEL 9
REMARK VINA RESULT:      -7.6      2.436      7.232
REMARK  Name = 
REMARK  7 active torsions:
REMARK  status: ('A' for Active; 'I' for Inactive)
REMARK    1  A    between atoms: C_1  and  C_2
REMARK    2  A    between atoms: C_4  and  S_5
REMARK    3  A    between atoms: S_5  and  C_6
REMARK    4  A    between atoms: C_6  and  C_7
REMARK    5  A    between atoms: C_7  and  C_9
REMARK    6  A    between atoms: C_13  and  N_14
REMARK    7  A    between atoms: C_19  and  O_20
REMARK                            x       y       z     vdW  Elec       q    Type
REMARK                         _______ _______ _______ _____ _____    ______ ____
ROOT
ATOM      1  C   UNL     1       7.050   5.071  16.929  0.00  0.00    +0.000 C 
ENDROOT
BRANCH   1   2
ATOM      2  C   UNL     1       6.008   5.205  15.818  0.00  0.00    +0.000 C 
ATOM      3  O   UNL     1       4.867   5.633  15.995  0.00  0.00    +0.000 OA
BRANCH   2   4
ATOM      4  C   UNL     1       6.375   4.800  14.427  0.00  0.00    +0.000 A 
ATOM      5  C   UNL     1       7.506   5.395  13.839  0.00  0.00    +0.000 A 
ATOM      6  C   UNL     1       7.913   5.046  12.550  0.00  0.00    +0.000 A 
ATOM      7  C   UNL     1       7.184   4.108  11.823  0.00  0.00    +0.000 A 
ATOM      8  C   UNL     1       6.042   3.532  12.395  0.00  0.00    +0.000 A 
ATOM      9  C   UNL     1       5.638   3.864  13.699  0.00  0.00    +0.000 A 
BRANCH   8  10
ATOM     10  N   UNL     1       5.240   2.582  11.614  0.00  0.00    +0.000 N 
ATOM     11  O   UNL     1       4.129   2.956  11.213  0.00  0.00    +0.000 OA
ATOM     12  O   UNL     1       5.722   1.459  11.412  0.00  0.00    +0.000 OA
ENDBRANCH   8  10
ENDBRANCH   2   4
ENDBRANCH   1   2
BRANCH   1  13
ATOM     13  S   UNL     1       6.475   5.947  18.418  0.00  0.00    +0.000 S 
BRANCH  13  17
ATOM     14  C   UNL     1       1.805   5.095  20.491  0.00  0.00    +0.000 C 
ATOM     15  C   UNL     1       3.134   4.561  20.048  0.00  0.00    +0.000 A 
ATOM     16  C   UNL     1       4.080   5.401  19.505  0.00  0.00    +0.000 A 
ATOM     17  C   UNL     1       5.277   4.829  19.117  0.00  0.00    +0.000 A 
ATOM     18  N   UNL     1       5.551   3.519  19.246  0.00  0.00    +0.000 NA
ATOM     19  C   UNL     1       4.552   2.807  19.787  0.00  0.00    +0.000 A 
ATOM     20  N   UNL     1       3.360   3.244  20.197  0.00  0.00    +0.000 NA
BRANCH  19  21
ATOM     21  O   UNL     1       4.799   1.478  19.931  0.00  0.00    +0.000 OA
ATOM     22  H   UNL     1       4.620   1.174  19.028  0.00  0.00    +0.000 HD
ENDBRANCH  19  21
ENDBRANCH  13  17
ENDBRANCH   1  13
TORSDOF 6
ENDMDL
