MODEL 1
REMARK VINA RESULT:      -7.6      0.000      0.000
REMARK  Name = 
REMARK  5 active torsions:
REMARK  status: ('A' for Active; 'I' for Inactive)
REMARK    1  A    between atoms: C_1  and  C_2
REMARK    2  A    between atoms: C_2  and  S_3
REMARK    3  A    between atoms: S_3  and  C_6
REMARK    4  A    between atoms: C_10  and  N_11
REMARK    5  A    between atoms: N_11  and  C_12
REMARK                            x       y       z     vdW  Elec       q    Type
REMARK                         _______ _______ _______ _____ _____    ______ ____
ROOT
ATOM      1  N   UNL     1       5.295   3.412  19.425  0.00  0.00    +0.000 N 
ATOM      2  H   UNL     1       5.541   3.341  20.410  0.00  0.00    +0.000 HD
ENDROOT
BRANCH   1   3
ATOM      3  C   UNL     1       3.956   3.014  19.225  0.00  0.00    +0.000 A 
ATOM      4  N   UNL     1       3.622   1.972  18.410  0.00  0.00    +0.000 NA
ATOM      5  C   UNL     1       2.325   1.708  18.154  0.00  0.00    +0.000 A 
ATOM      6  N   UNL     1       1.245   2.349  18.630  0.00  0.00    +0.000 NA
ATOM      7  C   UNL     1       1.612   3.343  19.448  0.00  0.00    +0.000 A 
ATOM      8  N   UNL     1       0.784   4.219  20.084  0.00  0.00    +0.000 N 
ATOM      9  C   UNL     1       1.569   5.080  20.803  0.00  0.00    +0.000 A 
ATOM     10  N   UNL     1       2.852   4.818  20.657  0.00  0.00    +0.000 NA
ATOM     11  C   UNL     1       2.892   3.730  19.806  0.00  0.00    +0.000 A 
ATOM     12  H   UNL     1      -0.222   4.228  20.005  0.00  0.00    +0.000 HD
ENDBRANCH   1   3
BRANCH   1  17
ATOM     13  C   UNL     1       6.685   5.418  16.599  0.00  0.00    +0.000 A 
ATOM     14  C   UNL     1       7.430   6.379  17.277  0.00  0.00    +0.000 A 
ATOM     15  C   UNL     1       7.504   6.313  18.668  0.00  0.00    +0.000 A 
ATOM     16  C   UNL     1       6.820   5.307  19.366  0.00  0.00    +0.000 A 
ATOM     17  C   UNL     1       6.029   4.365  18.693  0.00  0.00    +0.000 A 
ATOM     18  C   UNL     1       6.001   4.421  17.300  0.00  0.00    +0.000 A 
BRANCH  13  19
ATOM     19  S   UNL     1       6.559   5.436  14.828  0.00  0.00    +0.000 S 
ATOM     20  O   UNL     1       7.898   5.622  14.304  0.00  0.00    +0.000 OA
ATOM     21  O   UNL     1       5.491   6.356  14.488  0.00  0.00    +0.000 OA
BRANCH  19  23
ATOM     22  C   UNL     1       6.054   3.539  12.924  0.00  0.00    +0.000 C 
ATOM     23  C   UNL     1       6.038   3.777  14.421  0.00  0.00    +0.000 C 
ENDBRANCH  19  23
ENDBRANCH  13  19
ENDBRANCH   1  17
TORSDOF 4
ENDMDL
MODEL 2
REMARK VINA RESULT:      -7.5      3.843      6.059
REMARK  Name = 
REMARK  5 active torsions:
REMARK  status: ('A' for Active; 'I' for Inactive)
REMARK    1  A    between atoms: C_1  and  C_2
REMARK    2  A    between atoms: C_2  and  S_3
REMARK    3  A    between atoms: S_3  and  C_6
REMARK    4  A    between atoms: C_10  and  N_11
REMARK    5  A    between atoms: N_11  and  C_12
REMARK                            x       y       z     vdW  Elec       q    Type
REMARK                         _______ _______ _______ _____ _____    ______ ____
ROOT
ATOM      1  N   UNL     1       4.033   6.777  17.262  0.00  0.00    +0.000 N 
ATOM      2  H   UNL     1       4.136   7.789  17.254  0.00  0.00    +0.000 HD
ENDROOT
BRANCH   1   3
ATOM      3  C   UNL     1       5.177   6.164  16.710  0.00  0.00    +0.000 A 
ATOM      4  N   UNL     1       5.304   5.939  15.370  0.00  0.00    +0.000 NA
ATOM      5  C   UNL     1       6.359   5.241  14.903  0.00  0.00    +0.000 A 
ATOM      6  N   UNL     1       7.377   4.718  15.607  0.00  0.00    +0.000 NA
ATOM      7  C   UNL     1       7.232   4.986  16.911  0.00  0.00    +0.000 A 
ATOM      8  N   UNL     1       8.058   4.585  17.919  0.00  0.00    +0.000 N 
ATOM      9  C   UNL     1       7.535   5.058  19.092  0.00  0.00    +0.000 A 
ATOM     10  N   UNL     1       6.415   5.727  18.900  0.00  0.00    +0.000 NA
ATOM     11  C   UNL     1       6.214   5.687  17.534  0.00  0.00    +0.000 A 
ATOM     12  H   UNL     1       8.886   4.022  17.800  0.00  0.00    +0.000 HD
ENDBRANCH   1   3
BRANCH   1  17
ATOM     13  C   UNL     1       2.053   4.433  19.390  0.00  0.00    +0.000 A 
ATOM     14  C   UNL     1       1.569   5.289  20.375  0.00  0.00    +0.000 A 
ATOM     15  C   UNL     1       1.864   6.649  20.287  0.00  0.00    +0.000 A 
ATOM     16  C   UNL     1       2.653   7.135  19.235  0.00  0.00    +0.000 A 
ATOM     17  C   UNL     1       3.184   6.271  18.266  0.00  0.00    +0.000 A 
ATOM     18  C   UNL     1       2.843   4.922  18.346  0.00  0.00    +0.000 A 
BRANCH  13  19
ATOM     19  S   UNL     1       1.704   2.693  19.435  0.00  0.00    +0.000 S 
ATOM     20  O   UNL     1       0.693   2.431  18.430  0.00  0.00    +0.000 OA
ATOM     21  O   UNL     1       1.484   2.339  20.824  0.00  0.00    +0.000 OA
BRANCH  19  23
ATOM     22  C   UNL     1       4.333   2.105  19.908  0.00  0.00    +0.000 C 
ATOM     23  C   UNL     1       3.227   1.938  18.886  0.00  0.00    +0.000 C 
ENDBRANCH  19  23
ENDBRANCH  13  19
ENDBRANCH   1  17
TORSDOF 4
ENDMDL
MODEL 3
REMARK VINA RESULT:      -7.4      4.931      6.776
REMARK  Name = 
REMARK  5 active torsions:
REMARK  status: ('A' for Active; 'I' for Inactive)
REMARK    1  A    between atoms: C_1  and  C_2
REMARK    2  A    between atoms: C_2  and  S_3
REMARK    3  A    between atoms: S_3  and  C_6
REMARK    4  A    between atoms: C_10  and  N_11
REMARK    5  A    between atoms: N_11  and  C_12
REMARK                            x       y       z     vdW  Elec       q    Type
REMARK                         _______ _______ _______ _____ _____    ______ ____
ROOT
ATOM      1  N   UNL     1       3.153   6.047  19.960  0.00  0.00    +0.000 N 
ATOM      2  H   UNL     1       3.898   6.224  20.630  0.00  0.00    +0.000 HD
ENDROOT
BRANCH   1   3
ATOM      3  C   UNL     1       2.572   4.783  20.195  0.00  0.00    +0.000 A 
ATOM      4  N   UNL     1       2.129   4.407  21.430  0.00  0.00    +0.000 NA
ATOM      5  C   UNL     1       1.694   3.147  21.633  0.00  0.00    +0.000 A 
ATOM      6  N   UNL     1       1.610   2.151  20.735  0.00  0.00    +0.000 NA
ATOM      7  C   UNL     1       2.024   2.567  19.532  0.00  0.00    +0.000 A 
ATOM      8  N   UNL     1       2.105   1.816  18.397  0.00  0.00    +0.000 N 
ATOM      9  C   UNL     1       2.592   2.624  17.404  0.00  0.00    +0.000 A 
ATOM     10  N   UNL     1       2.841   3.843  17.837  0.00  0.00    +0.000 NA
ATOM     11  C   UNL     1       2.491   3.819  19.172  0.00  0.00    +0.000 A 
ATOM     12  H   UNL     1       1.866   0.839  18.330  0.00  0.00    +0.000 HD
ENDBRANCH   1   3
BRANCH   1  17
ATOM     13  C   UNL     1       1.237   9.243  19.721  0.00  0.00    +0.000 A 
ATOM     14  C   UNL     1       1.396   9.566  18.376  0.00  0.00    +0.000 A 
ATOM     15  C   UNL     1       2.095   8.684  17.552  0.00  0.00    +0.000 A 
ATOM     16  C   UNL     1       2.644   7.507  18.080  0.00  0.00    +0.000 A 
ATOM     17  C   UNL     1       2.529   7.199  19.444  0.00  0.00    +0.000 A 
ATOM     18  C   UNL     1       1.791   8.071  20.243  0.00  0.00    +0.000 A 
BRANCH  13  19
ATOM     19  S   UNL     1       0.348  10.314  20.822  0.00  0.00    +0.000 S 
ATOM     20  O   UNL     1      -0.923  10.618  20.194  0.00  0.00    +0.000 OA
ATOM     21  O   UNL     1       1.259  11.373  21.212  0.00  0.00    +0.000 OA
BRANCH  19  23
ATOM     22  C   UNL     1      -0.817  10.014  23.279  0.00  0.00    +0.000 C 
ATOM     23  C   UNL     1       0.021   9.286  22.246  0.00  0.00    +0.000 C 
ENDBRANCH  19  23
ENDBRANCH  13  19
ENDBRANCH   1  17
TORSDOF 4
ENDMDL
MODEL 4
REMARK VINA RESULT:      -7.4      5.028      6.924
REMARK  Name = 
REMARK  5 active torsions:
REMARK  status: ('A' for Active; 'I' for Inactive)
REMARK    1  A    between atoms: C_1  and  C_2
REMARK    2  A    between atoms: C_2  and  S_3
REMARK    3  A    between atoms: S_3  and  C_6
REMARK    4  A    between atoms: C_10  and  N_11
REMARK    5  A    between atoms: N_11  and  C_12
REMARK                            x       y       z     vdW  Elec       q    Type
REMARK                         _______ _______ _______ _____ _____    ______ ____
ROOT
ATOM      1  N   UNL     1       3.277   6.353  19.041  0.00  0.00    +0.000 N 
ATOM      2  H   UNL     1       4.101   6.404  19.636  0.00  0.00    +0.000 HD
ENDROOT
BRANCH   1   3
ATOM      3  C   UNL     1       2.943   5.008  18.780  0.00  0.00    +0.000 A 
ATOM      4  N   UNL     1       2.970   4.485  17.520  0.00  0.00    +0.000 NA
ATOM      5  C   UNL     1       2.525   3.231  17.303  0.00  0.00    +0.000 A 
ATOM      6  N   UNL     1       2.048   2.359  18.207  0.00  0.00    +0.000 NA
ATOM      7  C   UNL     1       2.067   2.897  19.433  0.00  0.00    +0.000 A 
ATOM      8  N   UNL     1       1.629   2.311  20.583  0.00  0.00    +0.000 N 
ATOM      9  C   UNL     1       1.814   3.210  21.599  0.00  0.00    +0.000 A 
ATOM     10  N   UNL     1       2.331   4.343  21.168  0.00  0.00    +0.000 NA
ATOM     11  C   UNL     1       2.493   4.158  19.809  0.00  0.00    +0.000 A 
ATOM     12  H   UNL     1       1.223   1.390  20.647  0.00  0.00    +0.000 HD
ENDBRANCH   1   3
BRANCH   1  17
ATOM     13  C   UNL     1       0.978   8.956  20.415  0.00  0.00    +0.000 A 
ATOM     14  C   UNL     1       0.753   9.751  19.294  0.00  0.00    +0.000 A 
ATOM     15  C   UNL     1       1.327   9.377  18.079  0.00  0.00    +0.000 A 
ATOM     16  C   UNL     1       2.134   8.233  18.001  0.00  0.00    +0.000 A 
ATOM     17  C   UNL     1       2.404   7.455  19.136  0.00  0.00    +0.000 A 
ATOM     18  C   UNL     1       1.788   7.820  20.331  0.00  0.00    +0.000 A 
BRANCH  13  19
ATOM     19  S   UNL     1       0.267   9.367  21.988  0.00  0.00    +0.000 S 
ATOM     20  O   UNL     1       1.362   9.546  22.921  0.00  0.00    +0.000 OA
ATOM     21  O   UNL     1      -0.781   8.399  22.246  0.00  0.00    +0.000 OA
BRANCH  19  23
ATOM     22  C   UNL     1      -1.299  11.411  22.911  0.00  0.00    +0.000 C 
ATOM     23  C   UNL     1      -0.483  10.965  21.714  0.00  0.00    +0.000 C 
ENDBRANCH  19  23
ENDBRANCH  13  19
ENDBRANCH   1  17
TORSDOF 4
ENDMDL
MODEL 5
REMARK VINA RESULT:      -7.4      3.755      6.149
REMARK  Name = 
REMARK  5 active torsions:
REMARK  status: ('A' for Active; 'I' for Inactive)
REMARK    1  A    between atoms: C_1  and  C_2
REMARK    2  A    between atoms: C_2  and  S_3
REMARK    3  A    between atoms: S_3  and  C_6
REMARK    4  A    between atoms: C_10  and  N_11
REMARK    5  A    between atoms: N_11  and  C_12
REMARK                            x       y       z     vdW  Elec       q    Type
REMARK                         _______ _______ _______ _____ _____    ______ ____
ROOT
ATOM      1  N   UNL     1       4.121   6.642  17.361  0.00  0.00    +0.000 N 
ATOM      2  H   UNL     1       4.246   7.650  17.295  0.00  0.00    +0.000 HD
ENDROOT
BRANCH   1   3
ATOM      3  C   UNL     1       5.198   5.973  16.743  0.00  0.00    +0.000 A 
ATOM      4  N   UNL     1       5.178   5.632  15.423  0.00  0.00    +0.000 NA
ATOM      5  C   UNL     1       6.175   4.886  14.906  0.00  0.00    +0.000 A 
ATOM      6  N   UNL     1       7.264   4.416  15.538  0.00  0.00    +0.000 NA
ATOM      7  C   UNL     1       7.263   4.797  16.821  0.00  0.00    +0.000 A 
ATOM      8  N   UNL     1       8.194   4.477  17.764  0.00  0.00    +0.000 N 
ATOM      9  C   UNL     1       7.802   5.055  18.942  0.00  0.00    +0.000 A 
ATOM     10  N   UNL     1       6.668   5.715  18.815  0.00  0.00    +0.000 NA
ATOM     11  C   UNL     1       6.319   5.559  17.488  0.00  0.00    +0.000 A 
ATOM     12  H   UNL     1       9.004   3.898  17.606  0.00  0.00    +0.000 HD
ENDBRANCH   1   3
BRANCH   1  17
ATOM     13  C   UNL     1       2.650   4.496  20.040  0.00  0.00    +0.000 A 
ATOM     14  C   UNL     1       1.878   5.416  20.743  0.00  0.00    +0.000 A 
ATOM     15  C   UNL     1       1.813   6.731  20.283  0.00  0.00    +0.000 A 
ATOM     16  C   UNL     1       2.534   7.117  19.145  0.00  0.00    +0.000 A 
ATOM     17  C   UNL     1       3.352   6.208  18.458  0.00  0.00    +0.000 A 
ATOM     18  C   UNL     1       3.370   4.888  18.908  0.00  0.00    +0.000 A 
BRANCH  13  19
ATOM     19  S   UNL     1       2.765   2.804  20.563  0.00  0.00    +0.000 S 
ATOM     20  O   UNL     1       1.992   2.678  21.783  0.00  0.00    +0.000 OA
ATOM     21  O   UNL     1       4.169   2.444  20.530  0.00  0.00    +0.000 OA
BRANCH  19  23
ATOM     22  C   UNL     1       0.587   2.550  18.928  0.00  0.00    +0.000 C 
ATOM     23  C   UNL     1       1.911   1.901  19.279  0.00  0.00    +0.000 C 
ENDBRANCH  19  23
ENDBRANCH  13  19
ENDBRANCH   1  17
TORSDOF 4
ENDMDL
MODEL 6
REMARK VINA RESULT:      -7.4      4.757      6.932
REMARK  Name = 
REMARK  5 active torsions:
REMARK  status: ('A' for Active; 'I' for Inactive)
REMARK    1  A    between atoms: C_1  and  C_2
REMARK    2  A    between atoms: C_2  and  S_3
REMARK    3  A    between atoms: S_3  and  C_6
REMARK    4  A    between atoms: C_10  and  N_11
REMARK    5  A    between atoms: N_11  and  C_12
REMARK                            x       y       z     vdW  Elec       q    Type
REMARK                         _______ _______ _______ _____ _____    ______ ____
ROOT
ATOM      1  N   UNL     1       2.495   6.067  20.433  0.00  0.00    +0.000 N 
ATOM      2  H   UNL     1       1.932   5.777  21.229  0.00  0.00    +0.000 HD
ENDROOT
BRANCH   1   3
ATOM      3  C   UNL     1       3.097   4.946  19.823  0.00  0.00    +0.000 A 
ATOM      4  N   UNL     1       4.431   4.903  19.541  0.00  0.00    +0.000 NA
ATOM      5  C   UNL     1       4.937   3.863  18.848  0.00  0.00    +0.000 A 
ATOM      6  N   UNL     1       4.282   2.787  18.382  0.00  0.00    +0.000 NA
ATOM      7  C   UNL     1       2.985   2.852  18.704  0.00  0.00    +0.000 A 
ATOM      8  N   UNL     1       2.019   1.950  18.369  0.00  0.00    +0.000 N 
ATOM      9  C   UNL     1       0.834   2.406  18.882  0.00  0.00    +0.000 A 
ATOM     10  N   UNL     1       0.979   3.553  19.515  0.00  0.00    +0.000 NA
ATOM     11  C   UNL     1       2.325   3.844  19.408  0.00  0.00    +0.000 A 
ATOM     12  H   UNL     1       2.168   1.117  17.821  0.00  0.00    +0.000 HD
ENDBRANCH   1   3
BRANCH   1  17
ATOM     13  C   UNL     1       1.113   9.496  19.903  0.00  0.00    +0.000 A 
ATOM     14  C   UNL     1       1.391   9.706  18.556  0.00  0.00    +0.000 A 
ATOM     15  C   UNL     1       1.988   8.678  17.825  0.00  0.00    +0.000 A 
ATOM     16  C   UNL     1       2.320   7.467  18.449  0.00  0.00    +0.000 A 
ATOM     17  C   UNL     1       2.085   7.266  19.817  0.00  0.00    +0.000 A 
ATOM     18  C   UNL     1       1.449   8.288  20.521  0.00  0.00    +0.000 A 
BRANCH  13  19
ATOM     19  S   UNL     1       0.342  10.756  20.888  0.00  0.00    +0.000 S 
ATOM     20  O   UNL     1      -0.862  11.167  20.193  0.00  0.00    +0.000 OA
ATOM     21  O   UNL     1       1.373  11.718  21.227  0.00  0.00    +0.000 OA
BRANCH  19  23
ATOM     22  C   UNL     1      -1.142  10.706  23.184  0.00  0.00    +0.000 C 
ATOM     23  C   UNL     1      -0.151   9.895  22.374  0.00  0.00    +0.000 C 
ENDBRANCH  19  23
ENDBRANCH  13  19
ENDBRANCH   1  17
TORSDOF 4
ENDMDL
MODEL 7
REMARK VINA RESULT:      -7.3      3.762      6.212
REMARK  Name = 
REMARK  5 active torsions:
REMARK  status: ('A' for Active; 'I' for Inactive)
REMARK    1  A    between atoms: C_1  and  C_2
REMARK    2  A    between atoms: C_2  and  S_3
REMARK    3  A    between atoms: S_3  and  C_6
REMARK    4  A    between atoms: C_10  and  N_11
REMARK    5  A    between atoms: N_11  and  C_12
REMARK                            x       y       z     vdW  Elec       q    Type
REMARK                         _______ _______ _______ _____ _____    ______ ____
ROOT
ATOM      1  N   UNL     1       4.105   6.796  17.046  0.00  0.00    +0.000 N 
ATOM      2  H   UNL     1       4.228   7.806  17.005  0.00  0.00    +0.000 HD
ENDROOT
BRANCH   1   3
ATOM      3  C   UNL     1       5.251   6.142  16.547  0.00  0.00    +0.000 A 
ATOM      4  N   UNL     1       5.407   5.864  15.220  0.00  0.00    +0.000 NA
ATOM      5  C   UNL     1       6.459   5.129  14.807  0.00  0.00    +0.000 A 
ATOM      6  N   UNL     1       7.450   4.617  15.556  0.00  0.00    +0.000 NA
ATOM      7  C   UNL     1       7.279   4.938  16.844  0.00  0.00    +0.000 A 
ATOM      8  N   UNL     1       8.072   4.562  17.887  0.00  0.00    +0.000 N 
ATOM      9  C   UNL     1       7.530   5.090  19.028  0.00  0.00    +0.000 A 
ATOM     10  N   UNL     1       6.428   5.770  18.782  0.00  0.00    +0.000 NA
ATOM     11  C   UNL     1       6.259   5.680  17.414  0.00  0.00    +0.000 A 
ATOM     12  H   UNL     1       8.893   3.981  17.811  0.00  0.00    +0.000 HD
ENDBRANCH   1   3
BRANCH   1  17
ATOM     13  C   UNL     1       1.977   4.577  19.165  0.00  0.00    +0.000 A 
ATOM     14  C   UNL     1       1.539   5.462  20.146  0.00  0.00    +0.000 A 
ATOM     15  C   UNL     1       1.914   6.802  20.057  0.00  0.00    +0.000 A 
ATOM     16  C   UNL     1       2.736   7.238  19.010  0.00  0.00    +0.000 A 
ATOM     17  C   UNL     1       3.222   6.343  18.045  0.00  0.00    +0.000 A 
ATOM     18  C   UNL     1       2.801   5.016  18.126  0.00  0.00    +0.000 A 
BRANCH  13  19
ATOM     19  S   UNL     1       1.526   2.861  19.210  0.00  0.00    +0.000 S 
ATOM     20  O   UNL     1       2.682   2.101  18.777  0.00  0.00    +0.000 OA
ATOM     21  O   UNL     1       0.253   2.738  18.525  0.00  0.00    +0.000 OA
BRANCH  19  23
ATOM     22  C   UNL     1       2.586   2.529  21.710  0.00  0.00    +0.000 C 
ATOM     23  C   UNL     1       1.276   2.530  20.948  0.00  0.00    +0.000 C 
ENDBRANCH  19  23
ENDBRANCH  13  19
ENDBRANCH   1  17
TORSDOF 4
ENDMDL
MODEL 8
REMARK VINA RESULT:      -7.3      3.947      6.463
REMARK  Name = 
REMARK  5 active torsions:
REMARK  status: ('A' for Active; 'I' for Inactive)
REMARK    1  A    between atoms: C_1  and  C_2
REMARK    2  A    between atoms: C_2  and  S_3
REMARK    3  A    between atoms: S_3  and  C_6
REMARK    4  A    between atoms: C_10  and  N_11
REMARK    5  A    between atoms: N_11  and  C_12
REMARK                            x       y       z     vdW  Elec       q    Type
REMARK                         _______ _______ _______ _____ _____    ______ ____
ROOT
ATOM      1  N   UNL     1       4.451   6.381  17.952  0.00  0.00    +0.000 N 
ATOM      2  H   UNL     1       4.624   7.377  17.837  0.00  0.00    +0.000 HD
ENDROOT
BRANCH   1   3
ATOM      3  C   UNL     1       5.604   5.641  17.617  0.00  0.00    +0.000 A 
ATOM      4  N   UNL     1       6.642   5.482  18.487  0.00  0.00    +0.000 NA
ATOM      5  C   UNL     1       7.773   4.871  18.080  0.00  0.00    +0.000 A 
ATOM      6  N   UNL     1       8.036   4.347  16.872  0.00  0.00    +0.000 NA
ATOM      7  C   UNL     1       6.984   4.495  16.057  0.00  0.00    +0.000 A 
ATOM      8  N   UNL     1       6.908   4.111  14.751  0.00  0.00    +0.000 N 
ATOM      9  C   UNL     1       5.668   4.464  14.290  0.00  0.00    +0.000 A 
ATOM     10  N   UNL     1       4.949   5.065  15.217  0.00  0.00    +0.000 NA
ATOM     11  C   UNL     1       5.766   5.091  16.331  0.00  0.00    +0.000 A 
ATOM     12  H   UNL     1       7.651   3.669  14.232  0.00  0.00    +0.000 HD
ENDBRANCH   1   3
BRANCH   1  17
ATOM     13  C   UNL     1       2.345   4.467  20.371  0.00  0.00    +0.000 A 
ATOM     14  C   UNL     1       1.537   5.472  20.894  0.00  0.00    +0.000 A 
ATOM     15  C   UNL     1       1.666   6.768  20.394  0.00  0.00    +0.000 A 
ATOM     16  C   UNL     1       2.611   7.050  19.398  0.00  0.00    +0.000 A 
ATOM     17  C   UNL     1       3.462   6.053  18.900  0.00  0.00    +0.000 A 
ATOM     18  C   UNL     1       3.288   4.756  19.381  0.00  0.00    +0.000 A 
BRANCH  13  19
ATOM     19  S   UNL     1       2.222   2.795  20.952  0.00  0.00    +0.000 S 
ATOM     20  O   UNL     1       1.054   2.721  21.807  0.00  0.00    +0.000 OA
ATOM     21  O   UNL     1       3.533   2.421  21.447  0.00  0.00    +0.000 OA
BRANCH  19  23
ATOM     22  C   UNL     1       0.656   2.382  18.748  0.00  0.00    +0.000 C 
ATOM     23  C   UNL     1       1.877   1.853  19.473  0.00  0.00    +0.000 C 
ENDBRANCH  19  23
ENDBRANCH  13  19
ENDBRANCH   1  17
TORSDOF 4
ENDMDL
MODEL 9
REMARK VINA RESULT:      -7.3      4.838      7.093
REMARK  Name = 
REMARK  5 active torsions:
REMARK  status: ('A' for Active; 'I' for Inactive)
REMARK    1  A    between atoms: C_1  and  C_2
REMARK    2  A    between atoms: C_2  and  S_3
REMARK    3  A    between atoms: S_3  and  C_6
REMARK    4  A    between atoms: C_10  and  N_11
REMARK    5  A    between atoms: N_11  and  C_12
REMARK                            x       y       z     vdW  Elec       q    Type
REMARK                         _______ _______ _______ _____ _____    ______ ____
ROOT
ATOM      1  N   UNL     1       2.476   6.208  20.462  0.00  0.00    +0.000 N 
ATOM      2  H   UNL     1       2.042   6.018  21.363  0.00  0.00    +0.000 HD
ENDROOT
BRANCH   1   3
ATOM      3  C   UNL     1       2.877   5.003  19.848  0.00  0.00    +0.000 A 
ATOM      4  N   UNL     1       2.040   3.931  19.738  0.00  0.00    +0.000 NA
ATOM      5  C   UNL     1       2.506   2.762  19.255  0.00  0.00    +0.000 A 
ATOM      6  N   UNL     1       3.747   2.487  18.819  0.00  0.00    +0.000 NA
ATOM      7  C   UNL     1       4.528   3.570  18.914  0.00  0.00    +0.000 A 
ATOM      8  N   UNL     1       5.850   3.648  18.592  0.00  0.00    +0.000 N 
ATOM      9  C   UNL     1       6.263   4.927  18.855  0.00  0.00    +0.000 A 
ATOM     10  N   UNL     1       5.288   5.671  19.339  0.00  0.00    +0.000 NA
ATOM     11  C   UNL     1       4.194   4.829  19.382  0.00  0.00    +0.000 A 
ATOM     12  H   UNL     1       6.409   2.883  18.247  0.00  0.00    +0.000 HD
ENDBRANCH   1   3
BRANCH   1  17
ATOM     13  C   UNL     1       1.060   9.617  19.898  0.00  0.00    +0.000 A 
ATOM     14  C   UNL     1       1.328   9.812  18.546  0.00  0.00    +0.000 A 
ATOM     15  C   UNL     1       1.929   8.780  17.825  0.00  0.00    +0.000 A 
ATOM     16  C   UNL     1       2.275   7.581  18.462  0.00  0.00    +0.000 A 
ATOM     17  C   UNL     1       2.051   7.395  19.834  0.00  0.00    +0.000 A 
ATOM     18  C   UNL     1       1.411   8.421  20.529  0.00  0.00    +0.000 A 
BRANCH  13  19
ATOM     19  S   UNL     1       0.285  10.883  20.871  0.00  0.00    +0.000 S 
ATOM     20  O   UNL     1      -0.962  11.226  20.216  0.00  0.00    +0.000 OA
ATOM     21  O   UNL     1       1.292  11.893  21.133  0.00  0.00    +0.000 OA
BRANCH  19  23
ATOM     22  C   UNL     1      -1.217  10.778  23.155  0.00  0.00    +0.000 C 
ATOM     23  C   UNL     1      -0.113  10.059  22.405  0.00  0.00    +0.000 C 
ENDBRANCH  19  23
ENDBRANCH  13  19
ENDBRANCH   1  17
TORSDOF 4
ENDMDL
