MODEL 1
REMARK VINA RESULT:      -9.1      0.000      0.000
REMARK  Name = 
REMARK  7 active torsions:
REMARK  status: ('A' for Active; 'I' for Inactive)
REMARK    1  A    between atoms: C_2  and  C_3
REMARK    2  A    between atoms: C_3  and  N_4
REMARK    3  A    between atoms: N_4  and  C_5
REMARK    4  A    between atoms: C_5  and  C_6
REMARK    5  A    between atoms: C_9  and  N_10
REMARK    6  A    between atoms: N_17  and  C_18
REMARK    7  A    between atoms: N_26  and  O_27
REMARK                            x       y       z     vdW  Elec       q    Type
REMARK                         _______ _______ _______ _____ _____    ______ ____
ROOT
ATOM      1  N   UNL     1       3.415   4.887  19.480  0.00  0.00    +0.000 N 
ATOM      2  C   UNL     1       2.357   5.737  19.768  0.00  0.00    +0.000 C 
ATOM      3  O   UNL     1       1.262   5.257  20.064  0.00  0.00    +0.000 OA
ATOM      4  N   UNL     1       2.617   7.083  19.661  0.00  0.00    +0.000 N 
ATOM      5  H   UNL     1       3.381   7.342  19.055  0.00  0.00    +0.000 HD
ENDROOT
BRANCH   4   6
ATOM      6  C   UNL     1       1.725   8.120  20.028  0.00  0.00    +0.000 A 
ATOM      7  C   UNL     1       1.187   9.020  19.099  0.00  0.00    +0.000 A 
ATOM      8  C   UNL     1       0.336  10.051  19.503  0.00  0.00    +0.000 A 
ATOM      9  C   UNL     1      -0.008  10.189  20.844  0.00  0.00    +0.000 A 
ATOM     10 CL   UNL     1      -1.056  11.493  21.273  0.00  0.00    +0.000 Cl
ATOM     11  C   UNL     1       0.492   9.279  21.781  0.00  0.00    +0.000 A 
ATOM     12 CL   UNL     1       0.096   9.380  23.461  0.00  0.00    +0.000 Cl
ATOM     13  C   UNL     1       1.350   8.245  21.372  0.00  0.00    +0.000 A 
ENDBRANCH   4   6
BRANCH   1  14
ATOM     14  C   UNL     1       3.103   3.449  19.435  0.00  0.00    +0.000 C 
BRANCH  14  16
ATOM     15  O   UNL     1       3.174   2.497  21.689  0.00  0.00    +0.000 OA
ATOM     16  C   UNL     1       3.687   2.604  20.574  0.00  0.00    +0.000 C 
ATOM     17  N   UNL     1       4.920   2.054  20.284  0.00  0.00    +0.000 N 
ATOM     18  H   UNL     1       5.136   1.747  19.339  0.00  0.00    +0.000 HD
BRANCH  17  19
ATOM     19  O   UNL     1       5.489   1.270  21.317  0.00  0.00    +0.000 OA
ATOM     20  H   UNL     1       4.985   1.555  22.111  0.00  0.00    +0.000 HD
ENDBRANCH  17  19
ENDBRANCH  14  16
ENDBRANCH   1  14
BRANCH   1  21
ATOM     21  C   UNL     1       4.826   5.281  19.458  0.00  0.00    +0.000 C 
BRANCH  21  22
ATOM     22  C   UNL     1       5.458   5.352  18.078  0.00  0.00    +0.000 A 
ATOM     23  C   UNL     1       4.859   6.002  16.986  0.00  0.00    +0.000 A 
ATOM     24  C   UNL     1       5.396   5.878  15.700  0.00  0.00    +0.000 A 
ATOM     25  C   UNL     1       6.558   5.122  15.503  0.00  0.00    +0.000 A 
ATOM     26  C   UNL     1       7.224   4.553  16.592  0.00  0.00    +0.000 A 
ATOM     27  C   UNL     1       6.672   4.671  17.872  0.00  0.00    +0.000 A 
BRANCH  25  28
ATOM     28  N   UNL     1       7.044   4.876  14.141  0.00  0.00    +0.000 N 
ATOM     29  O   UNL     1       6.498   3.975  13.488  0.00  0.00    +0.000 OA
ATOM     30  O   UNL     1       7.986   5.569  13.731  0.00  0.00    +0.000 OA
ENDBRANCH  25  28
ENDBRANCH  21  22
ENDBRANCH   1  21
TORSDOF 7
ENDMDL
MODEL 2
REMARK VINA RESULT:      -9.0      0.589      1.376
REMARK  Name = 
REMARK  7 active torsions:
REMARK  status: ('A' for Active; 'I' for Inactive)
REMARK    1  A    between atoms: C_2  and  C_3
REMARK    2  A    between atoms: C_3  and  N_4
REMARK    3  A    between atoms: N_4  and  C_5
REMARK    4  A    between atoms: C_5  and  C_6
REMARK    5  A    between atoms: C_9  and  N_10
REMARK    6  A    between atoms: N_17  and  C_18
REMARK    7  A    between atoms: N_26  and  O_27
REMARK                            x       y       z     vdW  Elec       q    Type
REMARK                         _______ _______ _______ _____ _____    ______ ____
ROOT
ATOM      1  N   UNL     1       3.434   4.928  19.533  0.00  0.00    +0.000 N 
ATOM      2  C   UNL     1       2.374   5.745  19.901  0.00  0.00    +0.000 C 
ATOM      3  O   UNL     1       1.297   5.232  20.209  0.00  0.00    +0.000 OA
ATOM      4  N   UNL     1       2.610   7.098  19.854  0.00  0.00    +0.000 N 
ATOM      5  H   UNL     1       3.349   7.400  19.235  0.00  0.00    +0.000 HD
ENDROOT
BRANCH   4   6
ATOM      6  C   UNL     1       1.717   8.101  20.303  0.00  0.00    +0.000 A 
ATOM      7  C   UNL     1       1.333   8.227  21.644  0.00  0.00    +0.000 A 
ATOM      8  C   UNL     1       0.423   9.209  22.045  0.00  0.00    +0.000 A 
ATOM      9  C   UNL     1      -0.105  10.095  21.112  0.00  0.00    +0.000 A 
ATOM     10 CL   UNL     1      -1.234  11.275  21.676  0.00  0.00    +0.000 Cl
ATOM     11  C   UNL     1       0.292  10.005  19.774  0.00  0.00    +0.000 A 
ATOM     12 CL   UNL     1      -0.313  11.081  18.562  0.00  0.00    +0.000 Cl
ATOM     13  C   UNL     1       1.205   9.016  19.374  0.00  0.00    +0.000 A 
ENDBRANCH   4   6
BRANCH   1  14
ATOM     14  C   UNL     1       3.141   3.489  19.425  0.00  0.00    +0.000 C 
BRANCH  14  16
ATOM     15  O   UNL     1       3.167   2.471  21.651  0.00  0.00    +0.000 OA
ATOM     16  C   UNL     1       3.702   2.608  20.550  0.00  0.00    +0.000 C 
ATOM     17  N   UNL     1       4.938   2.063  20.267  0.00  0.00    +0.000 N 
ATOM     18  H   UNL     1       5.171   1.783  19.318  0.00  0.00    +0.000 HD
BRANCH  17  19
ATOM     19  O   UNL     1       5.485   1.247  21.287  0.00  0.00    +0.000 OA
ATOM     20  H   UNL     1       5.158   1.676  22.109  0.00  0.00    +0.000 HD
ENDBRANCH  17  19
ENDBRANCH  14  16
ENDBRANCH   1  14
BRANCH   1  21
ATOM     21  C   UNL     1       4.838   5.345  19.483  0.00  0.00    +0.000 C 
BRANCH  21  22
ATOM     22  C   UNL     1       5.450   5.393  18.093  0.00  0.00    +0.000 A 
ATOM     23  C   UNL     1       4.833   6.016  16.997  0.00  0.00    +0.000 A 
ATOM     24  C   UNL     1       5.353   5.871  15.707  0.00  0.00    +0.000 A 
ATOM     25  C   UNL     1       6.517   5.119  15.510  0.00  0.00    +0.000 A 
ATOM     26  C   UNL     1       7.202   4.576  16.601  0.00  0.00    +0.000 A 
ATOM     27  C   UNL     1       6.667   4.717  17.885  0.00  0.00    +0.000 A 
BRANCH  25  28
ATOM     28  N   UNL     1       6.987   4.848  14.146  0.00  0.00    +0.000 N 
ATOM     29  O   UNL     1       6.433   3.937  13.515  0.00  0.00    +0.000 OA
ATOM     30  O   UNL     1       7.926   5.532  13.713  0.00  0.00    +0.000 OA
ENDBRANCH  25  28
ENDBRANCH  21  22
ENDBRANCH   1  21
TORSDOF 7
ENDMDL
MODEL 3
REMARK VINA RESULT:      -8.7      0.694      1.769
REMARK  Name = 
REMARK  7 active torsions:
REMARK  status: ('A' for Active; 'I' for Inactive)
REMARK    1  A    between atoms: C_2  and  C_3
REMARK    2  A    between atoms: C_3  and  N_4
REMARK    3  A    between atoms: N_4  and  C_5
REMARK    4  A    between atoms: C_5  and  C_6
REMARK    5  A    between atoms: C_9  and  N_10
REMARK    6  A    between atoms: N_17  and  C_18
REMARK    7  A    between atoms: N_26  and  O_27
REMARK                            x       y       z     vdW  Elec       q    Type
REMARK                         _______ _______ _______ _____ _____    ______ ____
ROOT
ATOM      1  N   UNL     1       3.234   4.967  19.669  0.00  0.00    +0.000 N 
ATOM      2  C   UNL     1       2.206   5.800  20.089  0.00  0.00    +0.000 C 
ATOM      3  O   UNL     1       1.147   5.302  20.475  0.00  0.00    +0.000 OA
ATOM      4  N   UNL     1       2.448   7.150  20.000  0.00  0.00    +0.000 N 
ATOM      5  H   UNL     1       3.147   7.434  19.329  0.00  0.00    +0.000 HD
ENDROOT
BRANCH   4   6
ATOM      6  C   UNL     1       1.592   8.168  20.487  0.00  0.00    +0.000 A 
ATOM      7  C   UNL     1       1.393   8.401  21.853  0.00  0.00    +0.000 A 
ATOM      8  C   UNL     1       0.515   9.394  22.296  0.00  0.00    +0.000 A 
ATOM      9  C   UNL     1      -0.166  10.185  21.376  0.00  0.00    +0.000 A 
ATOM     10 CL   UNL     1      -1.244  11.385  21.995  0.00  0.00    +0.000 Cl
ATOM     11  C   UNL     1       0.046   9.990  20.008  0.00  0.00    +0.000 A 
ATOM     12 CL   UNL     1      -0.756  10.944  18.809  0.00  0.00    +0.000 Cl
ATOM     13  C   UNL     1       0.927   8.989  19.566  0.00  0.00    +0.000 A 
ENDBRANCH   4   6
BRANCH   1  14
ATOM     14  C   UNL     1       2.925   3.529  19.609  0.00  0.00    +0.000 C 
BRANCH  14  16
ATOM     15  O   UNL     1       3.018   2.527  21.840  0.00  0.00    +0.000 OA
ATOM     16  C   UNL     1       3.528   2.670  20.728  0.00  0.00    +0.000 C 
ATOM     17  N   UNL     1       4.771   2.151  20.425  0.00  0.00    +0.000 N 
ATOM     18  H   UNL     1       4.992   1.870  19.473  0.00  0.00    +0.000 HD
BRANCH  17  19
ATOM     19  O   UNL     1       5.357   1.356  21.439  0.00  0.00    +0.000 OA
ATOM     20  H   UNL     1       4.673   0.669  21.600  0.00  0.00    +0.000 HD
ENDBRANCH  17  19
ENDBRANCH  14  16
ENDBRANCH   1  14
BRANCH   1  21
ATOM     21  C   UNL     1       4.634   5.372  19.520  0.00  0.00    +0.000 C 
BRANCH  21  22
ATOM     22  C   UNL     1       5.263   5.049  18.175  0.00  0.00    +0.000 A 
ATOM     23  C   UNL     1       6.592   4.624  18.025  0.00  0.00    +0.000 A 
ATOM     24  C   UNL     1       7.170   4.519  16.755  0.00  0.00    +0.000 A 
ATOM     25  C   UNL     1       6.405   4.814  15.620  0.00  0.00    +0.000 A 
ATOM     26  C   UNL     1       5.052   5.140  15.744  0.00  0.00    +0.000 A 
ATOM     27  C   UNL     1       4.488   5.255  17.018  0.00  0.00    +0.000 A 
BRANCH  25  28
ATOM     28  N   UNL     1       7.043   4.840  14.299  0.00  0.00    +0.000 N 
ATOM     29  O   UNL     1       8.028   5.577  14.148  0.00  0.00    +0.000 OA
ATOM     30  O   UNL     1       6.547   4.139  13.405  0.00  0.00    +0.000 OA
ENDBRANCH  25  28
ENDBRANCH  21  22
ENDBRANCH   1  21
TORSDOF 7
ENDMDL
MODEL 4
REMARK VINA RESULT:      -8.7      1.315      1.881
REMARK  Name = 
REMARK  7 active torsions:
REMARK  status: ('A' for Active; 'I' for Inactive)
REMARK    1  A    between atoms: C_2  and  C_3
REMARK    2  A    between atoms: C_3  and  N_4
REMARK    3  A    between atoms: N_4  and  C_5
REMARK    4  A    between atoms: C_5  and  C_6
REMARK    5  A    between atoms: C_9  and  N_10
REMARK    6  A    between atoms: N_17  and  C_18
REMARK    7  A    between atoms: N_26  and  O_27
REMARK                            x       y       z     vdW  Elec       q    Type
REMARK                         _______ _______ _______ _____ _____    ______ ____
ROOT
ATOM      1  N   UNL     1       3.573   4.873  19.743  0.00  0.00    +0.000 N 
ATOM      2  C   UNL     1       2.505   5.723  19.996  0.00  0.00    +0.000 C 
ATOM      3  O   UNL     1       1.474   5.263  20.490  0.00  0.00    +0.000 OA
ATOM      4  N   UNL     1       2.678   7.037  19.630  0.00  0.00    +0.000 N 
ATOM      5  H   UNL     1       3.361   7.211  18.907  0.00  0.00    +0.000 HD
ENDROOT
BRANCH   4   6
ATOM      6  C   UNL     1       1.774   8.089  19.909  0.00  0.00    +0.000 A 
ATOM      7  C   UNL     1       1.320   8.979  18.927  0.00  0.00    +0.000 A 
ATOM      8  C   UNL     1       0.452  10.026  19.247  0.00  0.00    +0.000 A 
ATOM      9  C   UNL     1       0.007  10.190  20.555  0.00  0.00    +0.000 A 
ATOM     10 CL   UNL     1      -1.055  11.513  20.879  0.00  0.00    +0.000 Cl
ATOM     11  C   UNL     1       0.422   9.291  21.542  0.00  0.00    +0.000 A 
ATOM     12 CL   UNL     1      -0.102   9.426  23.185  0.00  0.00    +0.000 Cl
ATOM     13  C   UNL     1       1.296   8.241  21.218  0.00  0.00    +0.000 A 
ENDBRANCH   4   6
BRANCH   1  14
ATOM     14  C   UNL     1       3.338   3.440  19.982  0.00  0.00    +0.000 C 
BRANCH  14  16
ATOM     15  O   UNL     1       2.877   2.417  17.806  0.00  0.00    +0.000 OA
ATOM     16  C   UNL     1       2.480   2.721  18.932  0.00  0.00    +0.000 C 
ATOM     17  N   UNL     1       1.165   2.541  19.315  0.00  0.00    +0.000 N 
ATOM     18  H   UNL     1       0.934   2.357  20.287  0.00  0.00    +0.000 HD
BRANCH  17  19
ATOM     19  O   UNL     1       0.346   1.883  18.365  0.00  0.00    +0.000 OA
ATOM     20  H   UNL     1      -0.122   1.212  18.909  0.00  0.00    +0.000 HD
ENDBRANCH  17  19
ENDBRANCH  14  16
ENDBRANCH   1  14
BRANCH   1  21
ATOM     21  C   UNL     1       4.951   5.308  19.497  0.00  0.00    +0.000 C 
BRANCH  21  22
ATOM     22  C   UNL     1       5.489   4.999  18.110  0.00  0.00    +0.000 A 
ATOM     23  C   UNL     1       6.800   4.558  17.870  0.00  0.00    +0.000 A 
ATOM     24  C   UNL     1       7.295   4.466  16.564  0.00  0.00    +0.000 A 
ATOM     25  C   UNL     1       6.466   4.793  15.484  0.00  0.00    +0.000 A 
ATOM     26  C   UNL     1       5.128   5.136  15.698  0.00  0.00    +0.000 A 
ATOM     27  C   UNL     1       4.647   5.237  17.007  0.00  0.00    +0.000 A 
BRANCH  25  28
ATOM     28  N   UNL     1       7.021   4.833  14.126  0.00  0.00    +0.000 N 
ATOM     29  O   UNL     1       6.550   4.051  13.287  0.00  0.00    +0.000 OA
ATOM     30  O   UNL     1       7.943   5.631  13.903  0.00  0.00    +0.000 OA
ENDBRANCH  25  28
ENDBRANCH  21  22
ENDBRANCH   1  21
TORSDOF 7
ENDMDL
MODEL 5
REMARK VINA RESULT:      -8.6      1.389      1.774
REMARK  Name = 
REMARK  7 active torsions:
REMARK  status: ('A' for Active; 'I' for Inactive)
REMARK    1  A    between atoms: C_2  and  C_3
REMARK    2  A    between atoms: C_3  and  N_4
REMARK    3  A    between atoms: N_4  and  C_5
REMARK    4  A    between atoms: C_5  and  C_6
REMARK    5  A    between atoms: C_9  and  N_10
REMARK    6  A    between atoms: N_17  and  C_18
REMARK    7  A    between atoms: N_26  and  O_27
REMARK                            x       y       z     vdW  Elec       q    Type
REMARK                         _______ _______ _______ _____ _____    ______ ____
ROOT
ATOM      1  N   UNL     1       3.601   4.952  19.623  0.00  0.00    +0.000 N 
ATOM      2  C   UNL     1       2.520   5.777  19.901  0.00  0.00    +0.000 C 
ATOM      3  O   UNL     1       1.469   5.276  20.303  0.00  0.00    +0.000 OA
ATOM      4  N   UNL     1       2.706   7.118  19.662  0.00  0.00    +0.000 N 
ATOM      5  H   UNL     1       3.421   7.356  18.990  0.00  0.00    +0.000 HD
ENDROOT
BRANCH   4   6
ATOM      6  C   UNL     1       1.786   8.143  19.991  0.00  0.00    +0.000 A 
ATOM      7  C   UNL     1       1.258   9.022  19.038  0.00  0.00    +0.000 A 
ATOM      8  C   UNL     1       0.377  10.042  19.406  0.00  0.00    +0.000 A 
ATOM      9  C   UNL     1      -0.007  10.188  20.735  0.00  0.00    +0.000 A 
ATOM     10 CL   UNL     1      -1.089  11.479  21.119  0.00  0.00    +0.000 Cl
ATOM     11  C   UNL     1       0.483   9.299  21.695  0.00  0.00    +0.000 A 
ATOM     12 CL   UNL     1       0.039   9.412  23.363  0.00  0.00    +0.000 Cl
ATOM     13  C   UNL     1       1.371   8.276  21.323  0.00  0.00    +0.000 A 
ENDBRANCH   4   6
BRANCH   1  14
ATOM     14  C   UNL     1       3.359   3.504  19.722  0.00  0.00    +0.000 C 
BRANCH  14  16
ATOM     15  O   UNL     1       2.550   2.993  17.469  0.00  0.00    +0.000 OA
ATOM     16  C   UNL     1       2.389   2.918  18.687  0.00  0.00    +0.000 C 
ATOM     17  N   UNL     1       1.239   2.389  19.239  0.00  0.00    +0.000 N 
ATOM     18  H   UNL     1       1.270   1.923  20.141  0.00  0.00    +0.000 HD
BRANCH  17  19
ATOM     19  O   UNL     1       0.321   1.842  18.309  0.00  0.00    +0.000 OA
ATOM     20  H   UNL     1      -0.195   2.629  18.024  0.00  0.00    +0.000 HD
ENDBRANCH  17  19
ENDBRANCH  14  16
ENDBRANCH   1  14
BRANCH   1  21
ATOM     21  C   UNL     1       4.988   5.405  19.482  0.00  0.00    +0.000 C 
BRANCH  21  22
ATOM     22  C   UNL     1       5.529   5.400  18.062  0.00  0.00    +0.000 A 
ATOM     23  C   UNL     1       4.869   6.004  16.980  0.00  0.00    +0.000 A 
ATOM     24  C   UNL     1       5.319   5.811  15.670  0.00  0.00    +0.000 A 
ATOM     25  C   UNL     1       6.457   5.028  15.437  0.00  0.00    +0.000 A 
ATOM     26  C   UNL     1       7.185   4.503  16.507  0.00  0.00    +0.000 A 
ATOM     27  C   UNL     1       6.720   4.692  17.812  0.00  0.00    +0.000 A 
BRANCH  25  28
ATOM     28  N   UNL     1       6.851   4.708  14.060  0.00  0.00    +0.000 N 
ATOM     29  O   UNL     1       7.654   5.467  13.499  0.00  0.00    +0.000 OA
ATOM     30  O   UNL     1       6.340   3.710  13.531  0.00  0.00    +0.000 OA
ENDBRANCH  25  28
ENDBRANCH  21  22
ENDBRANCH   1  21
TORSDOF 7
ENDMDL
MODEL 6
REMARK VINA RESULT:      -8.4      1.559      2.378
REMARK  Name = 
REMARK  7 active torsions:
REMARK  status: ('A' for Active; 'I' for Inactive)
REMARK    1  A    between atoms: C_2  and  C_3
REMARK    2  A    between atoms: C_3  and  N_4
REMARK    3  A    between atoms: N_4  and  C_5
REMARK    4  A    between atoms: C_5  and  C_6
REMARK    5  A    between atoms: C_9  and  N_10
REMARK    6  A    between atoms: N_17  and  C_18
REMARK    7  A    between atoms: N_26  and  O_27
REMARK                            x       y       z     vdW  Elec       q    Type
REMARK                         _______ _______ _______ _____ _____    ______ ____
ROOT
ATOM      1  N   UNL     1       3.519   5.033  19.568  0.00  0.00    +0.000 N 
ATOM      2  C   UNL     1       2.465   5.823  20.005  0.00  0.00    +0.000 C 
ATOM      3  O   UNL     1       1.466   5.283  20.484  0.00  0.00    +0.000 OA
ATOM      4  N   UNL     1       2.612   7.178  19.828  0.00  0.00    +0.000 N 
ATOM      5  H   UNL     1       3.250   7.466  19.101  0.00  0.00    +0.000 HD
ENDROOT
BRANCH   4   6
ATOM      6  C   UNL     1       1.721   8.167  20.311  0.00  0.00    +0.000 A 
ATOM      7  C   UNL     1       1.376   8.281  21.664  0.00  0.00    +0.000 A 
ATOM      8  C   UNL     1       0.468   9.250  22.098  0.00  0.00    +0.000 A 
ATOM      9  C   UNL     1      -0.098  10.136  21.187  0.00  0.00    +0.000 A 
ATOM     10 CL   UNL     1      -1.222  11.299  21.794  0.00  0.00    +0.000 Cl
ATOM     11  C   UNL     1       0.260  10.059  19.838  0.00  0.00    +0.000 A 
ATOM     12 CL   UNL     1      -0.394  11.135  18.652  0.00  0.00    +0.000 Cl
ATOM     13  C   UNL     1       1.171   9.083  19.404  0.00  0.00    +0.000 A 
ENDBRANCH   4   6
BRANCH   1  14
ATOM     14  C   UNL     1       3.303   3.578  19.606  0.00  0.00    +0.000 C 
BRANCH  14  16
ATOM     15  O   UNL     1       2.254   3.240  17.420  0.00  0.00    +0.000 OA
ATOM     16  C   UNL     1       2.246   3.035  18.634  0.00  0.00    +0.000 C 
ATOM     17  N   UNL     1       1.201   2.382  19.256  0.00  0.00    +0.000 N 
ATOM     18  H   UNL     1       1.364   1.832  20.095  0.00  0.00    +0.000 HD
BRANCH  17  19
ATOM     19  O   UNL     1       0.206   1.871  18.386  0.00  0.00    +0.000 OA
ATOM     20  H   UNL     1       0.719   1.640  17.580  0.00  0.00    +0.000 HD
ENDBRANCH  17  19
ENDBRANCH  14  16
ENDBRANCH   1  14
BRANCH   1  21
ATOM     21  C   UNL     1       4.878   5.516  19.310  0.00  0.00    +0.000 C 
BRANCH  21  22
ATOM     22  C   UNL     1       5.438   5.173  17.940  0.00  0.00    +0.000 A 
ATOM     23  C   UNL     1       6.689   4.567  17.745  0.00  0.00    +0.000 A 
ATOM     24  C   UNL     1       7.231   4.443  16.461  0.00  0.00    +0.000 A 
ATOM     25  C   UNL     1       6.506   4.904  15.356  0.00  0.00    +0.000 A 
ATOM     26  C   UNL     1       5.216   5.417  15.520  0.00  0.00    +0.000 A 
ATOM     27  C   UNL     1       4.689   5.548  16.809  0.00  0.00    +0.000 A 
BRANCH  25  28
ATOM     28  N   UNL     1       7.127   4.903  14.026  0.00  0.00    +0.000 N 
ATOM     29  O   UNL     1       6.678   4.116  13.180  0.00  0.00    +0.000 OA
ATOM     30  O   UNL     1       8.078   5.674  13.834  0.00  0.00    +0.000 OA
ENDBRANCH  25  28
ENDBRANCH  21  22
ENDBRANCH   1  21
TORSDOF 7
ENDMDL
MODEL 7
REMARK VINA RESULT:      -8.4      1.024      1.093
REMARK  Name = 
REMARK  7 active torsions:
REMARK  status: ('A' for Active; 'I' for Inactive)
REMARK    1  A    between atoms: C_2  and  C_3
REMARK    2  A    between atoms: C_3  and  N_4
REMARK    3  A    between atoms: N_4  and  C_5
REMARK    4  A    between atoms: C_5  and  C_6
REMARK    5  A    between atoms: C_9  and  N_10
REMARK    6  A    between atoms: N_17  and  C_18
REMARK    7  A    between atoms: N_26  and  O_27
REMARK                            x       y       z     vdW  Elec       q    Type
REMARK                         _______ _______ _______ _____ _____    ______ ____
ROOT
ATOM      1  N   UNL     1       3.290   4.555  19.921  0.00  0.00    +0.000 N 
ATOM      2  C   UNL     1       2.302   5.511  20.108  0.00  0.00    +0.000 C 
ATOM      3  O   UNL     1       1.192   5.159  20.508  0.00  0.00    +0.000 OA
ATOM      4  N   UNL     1       2.644   6.804  19.786  0.00  0.00    +0.000 N 
ATOM      5  H   UNL     1       3.397   6.913  19.123  0.00  0.00    +0.000 HD
ENDROOT
BRANCH   4   6
ATOM      6  C   UNL     1       1.837   7.944  20.016  0.00  0.00    +0.000 A 
ATOM      7  C   UNL     1       1.501   8.851  19.003  0.00  0.00    +0.000 A 
ATOM      8  C   UNL     1       0.729   9.983  19.275  0.00  0.00    +0.000 A 
ATOM      9  C   UNL     1       0.263  10.218  20.565  0.00  0.00    +0.000 A 
ATOM     10 CL   UNL     1      -0.675  11.644  20.830  0.00  0.00    +0.000 Cl
ATOM     11  C   UNL     1       0.560   9.306  21.582  0.00  0.00    +0.000 A 
ATOM     12 CL   UNL     1       0.005   9.527  23.205  0.00  0.00    +0.000 Cl
ATOM     13  C   UNL     1       1.339   8.170  21.306  0.00  0.00    +0.000 A 
ENDBRANCH   4   6
BRANCH   1  14
ATOM     14  C   UNL     1       2.884   3.152  20.108  0.00  0.00    +0.000 C 
BRANCH  14  16
ATOM     15  O   UNL     1       4.936   1.820  20.214  0.00  0.00    +0.000 OA
ATOM     16  C   UNL     1       3.889   2.097  19.626  0.00  0.00    +0.000 C 
ATOM     17  N   UNL     1       3.578   1.553  18.396  0.00  0.00    +0.000 N 
ATOM     18  H   UNL     1       2.608   1.406  18.130  0.00  0.00    +0.000 HD
BRANCH  17  19
ATOM     19  O   UNL     1       4.488   0.577  17.921  0.00  0.00    +0.000 OA
ATOM     20  H   UNL     1       4.345  -0.174  18.538  0.00  0.00    +0.000 HD
ENDBRANCH  17  19
ENDBRANCH  14  16
ENDBRANCH   1  14
BRANCH   1  21
ATOM     21  C   UNL     1       4.722   4.841  19.794  0.00  0.00    +0.000 C 
BRANCH  21  22
ATOM     22  C   UNL     1       5.232   4.976  18.369  0.00  0.00    +0.000 A 
ATOM     23  C   UNL     1       4.392   4.981  17.245  0.00  0.00    +0.000 A 
ATOM     24  C   UNL     1       4.927   4.923  15.953  0.00  0.00    +0.000 A 
ATOM     25  C   UNL     1       6.316   4.887  15.779  0.00  0.00    +0.000 A 
ATOM     26  C   UNL     1       7.169   4.984  16.882  0.00  0.00    +0.000 A 
ATOM     27  C   UNL     1       6.625   5.029  18.169  0.00  0.00    +0.000 A 
BRANCH  25  28
ATOM     28  N   UNL     1       6.877   4.687  14.438  0.00  0.00    +0.000 N 
ATOM     29  O   UNL     1       6.398   3.780  13.742  0.00  0.00    +0.000 OA
ATOM     30  O   UNL     1       7.812   5.422  14.089  0.00  0.00    +0.000 OA
ENDBRANCH  25  28
ENDBRANCH  21  22
ENDBRANCH   1  21
TORSDOF 7
ENDMDL
MODEL 8
REMARK VINA RESULT:      -8.3      1.582      2.289
REMARK  Name = 
REMARK  7 active torsions:
REMARK  status: ('A' for Active; 'I' for Inactive)
REMARK    1  A    between atoms: C_2  and  C_3
REMARK    2  A    between atoms: C_3  and  N_4
REMARK    3  A    between atoms: N_4  and  C_5
REMARK    4  A    between atoms: C_5  and  C_6
REMARK    5  A    between atoms: C_9  and  N_10
REMARK    6  A    between atoms: N_17  and  C_18
REMARK    7  A    between atoms: N_26  and  O_27
REMARK                            x       y       z     vdW  Elec       q    Type
REMARK                         _______ _______ _______ _____ _____    ______ ____
ROOT
ATOM      1  N   UNL     1       3.526   5.007  19.562  0.00  0.00    +0.000 N 
ATOM      2  C   UNL     1       2.456   5.805  19.943  0.00  0.00    +0.000 C 
ATOM      3  O   UNL     1       1.415   5.271  20.329  0.00  0.00    +0.000 OA
ATOM      4  N   UNL     1       2.640   7.162  19.819  0.00  0.00    +0.000 N 
ATOM      5  H   UNL     1       3.336   7.458  19.151  0.00  0.00    +0.000 HD
ENDROOT
BRANCH   4   6
ATOM      6  C   UNL     1       1.732   8.153  20.264  0.00  0.00    +0.000 A 
ATOM      7  C   UNL     1       1.382   8.310  21.611  0.00  0.00    +0.000 A 
ATOM      8  C   UNL     1       0.458   9.279  22.009  0.00  0.00    +0.000 A 
ATOM      9  C   UNL     1      -0.119  10.123  21.065  0.00  0.00    +0.000 A 
ATOM     10 CL   UNL     1      -1.263  11.290  21.627  0.00  0.00    +0.000 Cl
ATOM     11  C   UNL     1       0.244  10.004  19.721  0.00  0.00    +0.000 A 
ATOM     12 CL   UNL     1      -0.423  11.027  18.496  0.00  0.00    +0.000 Cl
ATOM     13  C   UNL     1       1.171   9.027  19.324  0.00  0.00    +0.000 A 
ENDBRANCH   4   6
BRANCH   1  14
ATOM     14  C   UNL     1       3.283   3.556  19.538  0.00  0.00    +0.000 C 
BRANCH  14  16
ATOM     15  O   UNL     1       2.145   3.417  17.375  0.00  0.00    +0.000 OA
ATOM     16  C   UNL     1       2.204   3.077  18.557  0.00  0.00    +0.000 C 
ATOM     17  N   UNL     1       1.217   2.310  19.145  0.00  0.00    +0.000 N 
ATOM     18  H   UNL     1       1.444   1.679  19.908  0.00  0.00    +0.000 HD
BRANCH  17  19
ATOM     19  O   UNL     1       0.204   1.855  18.266  0.00  0.00    +0.000 OA
ATOM     20  H   UNL     1       0.705   1.311  17.619  0.00  0.00    +0.000 HD
ENDBRANCH  17  19
ENDBRANCH  14  16
ENDBRANCH   1  14
BRANCH   1  21
ATOM     21  C   UNL     1       4.910   5.471  19.422  0.00  0.00    +0.000 C 
BRANCH  21  22
ATOM     22  C   UNL     1       5.461   5.446  18.006  0.00  0.00    +0.000 A 
ATOM     23  C   UNL     1       4.810   6.039  16.913  0.00  0.00    +0.000 A 
ATOM     24  C   UNL     1       5.269   5.827  15.608  0.00  0.00    +0.000 A 
ATOM     25  C   UNL     1       6.405   5.038  15.392  0.00  0.00    +0.000 A 
ATOM     26  C   UNL     1       7.125   4.524  16.474  0.00  0.00    +0.000 A 
ATOM     27  C   UNL     1       6.651   4.731  17.774  0.00  0.00    +0.000 A 
BRANCH  25  28
ATOM     28  N   UNL     1       6.808   4.700  14.022  0.00  0.00    +0.000 N 
ATOM     29  O   UNL     1       7.644   5.429  13.470  0.00  0.00    +0.000 OA
ATOM     30  O   UNL     1       6.271   3.718  13.490  0.00  0.00    +0.000 OA
ENDBRANCH  25  28
ENDBRANCH  21  22
ENDBRANCH   1  21
TORSDOF 7
ENDMDL
MODEL 9
REMARK VINA RESULT:      -8.2      1.223      1.689
REMARK  Name = 
REMARK  7 active torsions:
REMARK  status: ('A' for Active; 'I' for Inactive)
REMARK    1  A    between atoms: C_2  and  C_3
REMARK    2  A    between atoms: C_3  and  N_4
REMARK    3  A    between atoms: N_4  and  C_5
REMARK    4  A    between atoms: C_5  and  C_6
REMARK    5  A    between atoms: C_9  and  N_10
REMARK    6  A    between atoms: N_17  and  C_18
REMARK    7  A    between atoms: N_26  and  O_27
REMARK                            x       y       z     vdW  Elec       q    Type
REMARK                         _______ _______ _______ _____ _____    ______ ____
ROOT
ATOM      1  N   UNL     1       3.908   4.575  18.533  0.00  0.00    +0.000 N 
ATOM      2  C   UNL     1       2.857   5.450  18.770  0.00  0.00    +0.000 C 
ATOM      3  O   UNL     1       1.778   5.003  19.161  0.00  0.00    +0.000 OA
ATOM      4  N   UNL     1       3.104   6.776  18.506  0.00  0.00    +0.000 N 
ATOM      5  H   UNL     1       3.842   6.969  17.844  0.00  0.00    +0.000 HD
ENDROOT
BRANCH   4   6
ATOM      6  C   UNL     1       2.222   7.845  18.793  0.00  0.00    +0.000 A 
ATOM      7  C   UNL     1       1.723   8.703  17.804  0.00  0.00    +0.000 A 
ATOM      8  C   UNL     1       0.880   9.768  18.131  0.00  0.00    +0.000 A 
ATOM      9  C   UNL     1       0.504   9.982  19.453  0.00  0.00    +0.000 A 
ATOM     10 CL   UNL     1      -0.531  11.325  19.785  0.00  0.00    +0.000 Cl
ATOM     11  C   UNL     1       0.964   9.116  20.449  0.00  0.00    +0.000 A 
ATOM     12 CL   UNL     1       0.528   9.313  22.111  0.00  0.00    +0.000 Cl
ATOM     13  C   UNL     1       1.814   8.048  20.119  0.00  0.00    +0.000 A 
ENDBRANCH   4   6
BRANCH   1  14
ATOM     14  C   UNL     1       3.603   3.140  18.658  0.00  0.00    +0.000 C 
BRANCH  14  16
ATOM     15  O   UNL     1       4.806   1.861  20.364  0.00  0.00    +0.000 OA
ATOM     16  C   UNL     1       3.821   2.531  20.049  0.00  0.00    +0.000 C 
ATOM     17  N   UNL     1       2.750   2.699  20.905  0.00  0.00    +0.000 N 
ATOM     18  H   UNL     1       2.190   3.546  20.867  0.00  0.00    +0.000 HD
BRANCH  17  19
ATOM     19  O   UNL     1       2.918   2.144  22.197  0.00  0.00    +0.000 OA
ATOM     20  H   UNL     1       2.511   1.254  22.108  0.00  0.00    +0.000 HD
ENDBRANCH  17  19
ENDBRANCH  14  16
ENDBRANCH   1  14
BRANCH   1  21
ATOM     21  C   UNL     1       5.315   4.966  18.410  0.00  0.00    +0.000 C 
BRANCH  21  22
ATOM     22  C   UNL     1       5.923   4.776  17.030  0.00  0.00    +0.000 A 
ATOM     23  C   UNL     1       7.277   5.010  16.742  0.00  0.00    +0.000 A 
ATOM     24  C   UNL     1       7.739   4.996  15.422  0.00  0.00    +0.000 A 
ATOM     25  C   UNL     1       6.847   4.719  14.379  0.00  0.00    +0.000 A 
ATOM     26  C   UNL     1       5.519   4.383  14.654  0.00  0.00    +0.000 A 
ATOM     27  C   UNL     1       5.064   4.413  15.976  0.00  0.00    +0.000 A 
BRANCH  25  28
ATOM     28  N   UNL     1       7.296   4.840  12.986  0.00  0.00    +0.000 N 
ATOM     29  O   UNL     1       6.834   4.040  12.160  0.00  0.00    +0.000 OA
ATOM     30  O   UNL     1       8.127   5.721  12.723  0.00  0.00    +0.000 OA
ENDBRANCH  25  28
ENDBRANCH  21  22
ENDBRANCH   1  21
TORSDOF 7
ENDMDL
