MODEL 1
REMARK VINA RESULT:      -8.0      0.000      0.000
REMARK  Name = 
REMARK  4 active torsions:
REMARK  status: ('A' for Active; 'I' for Inactive)
REMARK    1  A    between atoms: C_2  and  O_3
REMARK    2  A    between atoms: C_2  and  C_4
REMARK    3  A    between atoms: N_6  and  C_7
REMARK    4  A    between atoms: C_12  and  N_13
REMARK                            x       y       z     vdW  Elec       q    Type
REMARK                         _______ _______ _______ _____ _____    ______ ____
ROOT
ATOM      1  C   UNL     1       4.414   5.047  17.977  0.00  0.00    +0.000 A 
ATOM      2  C   UNL     1       3.724   4.612  19.043  0.00  0.00    +0.000 A 
ATOM      3  N   UNL     1       2.739   5.313  19.716  0.00  0.00    +0.000 N 
ATOM      4  C   UNL     1       2.462   6.656  19.338  0.00  0.00    +0.000 A 
ATOM      5  C   UNL     1       1.585   7.487  20.056  0.00  0.00    +0.000 A 
ATOM      6  C   UNL     1       1.218   8.785  19.635  0.00  0.00    +0.000 A 
ATOM      7  C   UNL     1       1.869   9.256  18.476  0.00  0.00    +0.000 A 
ATOM      8  F   UNL     1       1.664  10.497  18.011  0.00  0.00    +0.000 F 
ATOM      9  C   UNL     1       2.781   8.482  17.762  0.00  0.00    +0.000 A 
ATOM     10  C   UNL     1       3.077   7.194  18.198  0.00  0.00    +0.000 A 
ATOM     11  C   UNL     1       4.097   6.400  17.477  0.00  0.00    +0.000 A 
ATOM     12  O   UNL     1       4.695   6.854  16.503  0.00  0.00    +0.000 OA
ENDROOT
BRANCH   6  13
ATOM     13  N   UNL     1       0.313   9.540  20.387  0.00  0.00    +0.000 N 
ATOM     14  C   UNL     1      -0.732  10.343  19.676  0.00  0.00    +0.000 C 
ATOM     15  C   UNL     1      -0.714  11.689  20.459  0.00  0.00    +0.000 C 
ATOM     16  C   UNL     1       0.763  11.801  20.815  0.00  0.00    +0.000 C 
ATOM     17  C   UNL     1       0.768  10.433  21.491  0.00  0.00    +0.000 C 
ATOM     18  C   UNL     1      -0.407  10.612  22.490  0.00  0.00    +0.000 C 
ATOM     19  N   UNL     1      -1.357  11.530  21.791  0.00  0.00    +0.000 NA
ATOM     20  H   UNL     1      -1.340  12.432  22.269  0.00  0.00    +0.000 HD
ENDBRANCH   6  13
BRANCH   3  21
ATOM     21  C   UNL     1       2.163   4.701  20.931  0.00  0.00    +0.000 C 
ATOM     22  C   UNL     1       1.146   3.584  20.893  0.00  0.00    +0.000 C 
ATOM     23  C   UNL     1       2.537   3.301  21.362  0.00  0.00    +0.000 C 
ENDBRANCH   3  21
BRANCH   1  25
ATOM     24  O   UNL     1       5.309   3.638  16.283  0.00  0.00    +0.000 OA
ATOM     25  C   UNL     1       5.444   4.176  17.376  0.00  0.00    +0.000 C 
BRANCH  25  26
ATOM     26  O   UNL     1       6.554   4.015  18.127  0.00  0.00    +0.000 OA
ATOM     27  H   UNL     1       7.397   4.199  17.644  0.00  0.00    +0.000 HD
ENDBRANCH  25  26
ENDBRANCH   1  25
TORSDOF 4
ENDMDL
MODEL 2
REMARK VINA RESULT:      -7.8      1.254      1.666
REMARK  Name = 
REMARK  4 active torsions:
REMARK  status: ('A' for Active; 'I' for Inactive)
REMARK    1  A    between atoms: C_2  and  O_3
REMARK    2  A    between atoms: C_2  and  C_4
REMARK    3  A    between atoms: N_6  and  C_7
REMARK    4  A    between atoms: C_12  and  N_13
REMARK                            x       y       z     vdW  Elec       q    Type
REMARK                         _______ _______ _______ _____ _____    ______ ____
ROOT
ATOM      1  C   UNL     1       5.444   4.871  17.124  0.00  0.00    +0.000 A 
ATOM      2  C   UNL     1       4.890   4.305  18.208  0.00  0.00    +0.000 A 
ATOM      3  N   UNL     1       3.873   4.843  18.977  0.00  0.00    +0.000 N 
ATOM      4  C   UNL     1       3.402   6.153  18.686  0.00  0.00    +0.000 A 
ATOM      5  C   UNL     1       2.479   6.831  19.500  0.00  0.00    +0.000 A 
ATOM      6  C   UNL     1       1.922   8.088  19.169  0.00  0.00    +0.000 A 
ATOM      7  C   UNL     1       2.426   8.688  17.997  0.00  0.00    +0.000 A 
ATOM      8  F   UNL     1       2.033   9.910  17.610  0.00  0.00    +0.000 F 
ATOM      9  C   UNL     1       3.377   8.070  17.188  0.00  0.00    +0.000 A 
ATOM     10  C   UNL     1       3.863   6.815  17.538  0.00  0.00    +0.000 A 
ATOM     11  C   UNL     1       4.924   6.191  16.714  0.00  0.00    +0.000 A 
ATOM     12  O   UNL     1       5.390   6.760  15.729  0.00  0.00    +0.000 OA
ENDROOT
BRANCH   6  13
ATOM     13  N   UNL     1       0.983   8.686  20.014  0.00  0.00    +0.000 N 
ATOM     14  C   UNL     1       0.956  10.178  20.131  0.00  0.00    +0.000 C 
ATOM     15  C   UNL     1       0.780  10.394  21.664  0.00  0.00    +0.000 C 
ATOM     16  C   UNL     1       1.580   9.221  22.218  0.00  0.00    +0.000 C 
ATOM     17  C   UNL     1       0.772   8.208  21.411  0.00  0.00    +0.000 C 
ATOM     18  C   UNL     1      -0.668   8.591  21.846  0.00  0.00    +0.000 C 
ATOM     19  N   UNL     1      -0.609  10.066  22.084  0.00  0.00    +0.000 NA
ATOM     20  H   UNL     1      -0.691  10.231  23.088  0.00  0.00    +0.000 HD
ENDBRANCH   6  13
BRANCH   3  21
ATOM     21  C   UNL     1       3.466   4.110  20.193  0.00  0.00    +0.000 C 
ATOM     22  C   UNL     1       2.059   3.608  20.425  0.00  0.00    +0.000 C 
ATOM     23  C   UNL     1       3.158   2.630  20.156  0.00  0.00    +0.000 C 
ENDBRANCH   3  21
BRANCH   1  25
ATOM     24  O   UNL     1       7.712   4.478  16.526  0.00  0.00    +0.000 OA
ATOM     25  C   UNL     1       6.532   4.168  16.415  0.00  0.00    +0.000 C 
BRANCH  25  26
ATOM     26  O   UNL     1       6.125   3.152  15.625  0.00  0.00    +0.000 OA
ATOM     27  H   UNL     1       6.708   2.992  14.842  0.00  0.00    +0.000 HD
ENDBRANCH  25  26
ENDBRANCH   1  25
TORSDOF 4
ENDMDL
MODEL 3
REMARK VINA RESULT:      -7.7      2.237      3.605
REMARK  Name = 
REMARK  4 active torsions:
REMARK  status: ('A' for Active; 'I' for Inactive)
REMARK    1  A    between atoms: C_2  and  O_3
REMARK    2  A    between atoms: C_2  and  C_4
REMARK    3  A    between atoms: N_6  and  C_7
REMARK    4  A    between atoms: C_12  and  N_13
REMARK                            x       y       z     vdW  Elec       q    Type
REMARK                         _______ _______ _______ _____ _____    ______ ____
ROOT
ATOM      1  C   UNL     1       3.711   3.565  19.144  0.00  0.00    +0.000 A 
ATOM      2  C   UNL     1       4.210   4.434  18.250  0.00  0.00    +0.000 A 
ATOM      3  N   UNL     1       3.921   5.786  18.181  0.00  0.00    +0.000 N 
ATOM      4  C   UNL     1       2.942   6.332  19.058  0.00  0.00    +0.000 A 
ATOM      5  C   UNL     1       2.483   7.656  18.961  0.00  0.00    +0.000 A 
ATOM      6  C   UNL     1       1.592   8.244  19.887  0.00  0.00    +0.000 A 
ATOM      7  C   UNL     1       1.098   7.382  20.888  0.00  0.00    +0.000 A 
ATOM      8  F   UNL     1       0.192   7.796  21.786  0.00  0.00    +0.000 F 
ATOM      9  C   UNL     1       1.491   6.050  20.990  0.00  0.00    +0.000 A 
ATOM     10  C   UNL     1       2.402   5.531  20.075  0.00  0.00    +0.000 A 
ATOM     11  C   UNL     1       2.765   4.098  20.145  0.00  0.00    +0.000 A 
ATOM     12  O   UNL     1       2.276   3.351  20.990  0.00  0.00    +0.000 OA
ENDROOT
BRANCH   6  13
ATOM     13  N   UNL     1       1.206   9.579  19.743  0.00  0.00    +0.000 N 
ATOM     14  C   UNL     1      -0.033  10.057  20.435  0.00  0.00    +0.000 C 
ATOM     15  C   UNL     1      -0.715  10.931  19.341  0.00  0.00    +0.000 C 
ATOM     16  C   UNL     1      -0.337  10.167  18.078  0.00  0.00    +0.000 C 
ATOM     17  C   UNL     1       1.152  10.237  18.405  0.00  0.00    +0.000 C 
ATOM     18  C   UNL     1       1.320  11.767  18.606  0.00  0.00    +0.000 C 
ATOM     19  N   UNL     1       0.011  12.219  19.169  0.00  0.00    +0.000 NA
ATOM     20  H   UNL     1      -0.470  12.769  18.457  0.00  0.00    +0.000 HD
ENDBRANCH   6  13
BRANCH   3  21
ATOM     21  C   UNL     1       4.494   6.558  17.060  0.00  0.00    +0.000 C 
ATOM     22  C   UNL     1       5.980   6.697  16.825  0.00  0.00    +0.000 C 
ATOM     23  C   UNL     1       5.158   5.872  15.888  0.00  0.00    +0.000 C 
ENDBRANCH   3  21
BRANCH   1  25
ATOM     24  O   UNL     1       3.672   1.363  18.246  0.00  0.00    +0.000 OA
ATOM     25  C   UNL     1       4.115   2.146  19.078  0.00  0.00    +0.000 C 
BRANCH  25  26
ATOM     26  O   UNL     1       5.015   1.773  20.012  0.00  0.00    +0.000 OA
ATOM     27  H   UNL     1       5.646   1.074  19.706  0.00  0.00    +0.000 HD
ENDBRANCH  25  26
ENDBRANCH   1  25
TORSDOF 4
ENDMDL
MODEL 4
REMARK VINA RESULT:      -7.6      2.966      6.771
REMARK  Name = 
REMARK  4 active torsions:
REMARK  status: ('A' for Active; 'I' for Inactive)
REMARK    1  A    between atoms: C_2  and  O_3
REMARK    2  A    between atoms: C_2  and  C_4
REMARK    3  A    between atoms: N_6  and  C_7
REMARK    4  A    between atoms: C_12  and  N_13
REMARK                            x       y       z     vdW  Elec       q    Type
REMARK                         _______ _______ _______ _____ _____    ______ ____
ROOT
ATOM      1  C   UNL     1       1.117  11.313  19.307  0.00  0.00    +0.000 A 
ATOM      2  C   UNL     1       0.843  10.922  20.562  0.00  0.00    +0.000 A 
ATOM      3  N   UNL     1       1.056   9.659  21.086  0.00  0.00    +0.000 N 
ATOM      4  C   UNL     1       1.521   8.622  20.230  0.00  0.00    +0.000 A 
ATOM      5  C   UNL     1       1.626   7.282  20.640  0.00  0.00    +0.000 A 
ATOM      6  C   UNL     1       2.185   6.261  19.838  0.00  0.00    +0.000 A 
ATOM      7  C   UNL     1       2.553   6.646  18.532  0.00  0.00    +0.000 A 
ATOM      8  F   UNL     1       3.029   5.758  17.647  0.00  0.00    +0.000 F 
ATOM      9  C   UNL     1       2.420   7.954  18.070  0.00  0.00    +0.000 A 
ATOM     10  C   UNL     1       1.901   8.930  18.915  0.00  0.00    +0.000 A 
ATOM     11  C   UNL     1       1.697  10.303  18.400  0.00  0.00    +0.000 A 
ATOM     12  O   UNL     1       1.971  10.600  17.239  0.00  0.00    +0.000 OA
ENDROOT
BRANCH   6  13
ATOM     13  N   UNL     1       2.286   4.956  20.328  0.00  0.00    +0.000 N 
ATOM     14  C   UNL     1       3.404   4.084  19.849  0.00  0.00    +0.000 C 
ATOM     15  C   UNL     1       2.689   2.721  19.608  0.00  0.00    +0.000 C 
ATOM     16  C   UNL     1       1.322   3.188  19.127  0.00  0.00    +0.000 C 
ATOM     17  C   UNL     1       1.106   4.045  20.372  0.00  0.00    +0.000 C 
ATOM     18  C   UNL     1       1.348   2.987  21.482  0.00  0.00    +0.000 C 
ATOM     19  N   UNL     1       2.368   2.060  20.903  0.00  0.00    +0.000 NA
ATOM     20  H   UNL     1       1.915   1.167  20.707  0.00  0.00    +0.000 HD
ENDBRANCH   6  13
BRANCH   3  21
ATOM     21  C   UNL     1       0.595   9.396  22.464  0.00  0.00    +0.000 C 
ATOM     22  C   UNL     1      -0.472  10.218  23.152  0.00  0.00    +0.000 C 
ATOM     23  C   UNL     1      -0.773   8.812  22.740  0.00  0.00    +0.000 C 
ENDBRANCH   3  21
BRANCH   1  25
ATOM     24  O   UNL     1       1.325  13.678  19.441  0.00  0.00    +0.000 OA
ATOM     25  C   UNL     1       0.821  12.701  18.899  0.00  0.00    +0.000 C 
BRANCH  25  26
ATOM     26  O   UNL     1      -0.055  12.813  17.879  0.00  0.00    +0.000 OA
ATOM     27  H   UNL     1       0.189  13.504  17.214  0.00  0.00    +0.000 HD
ENDBRANCH  25  26
ENDBRANCH   1  25
TORSDOF 4
ENDMDL
MODEL 5
REMARK VINA RESULT:      -7.5      1.037      1.583
REMARK  Name = 
REMARK  4 active torsions:
REMARK  status: ('A' for Active; 'I' for Inactive)
REMARK    1  A    between atoms: C_2  and  O_3
REMARK    2  A    between atoms: C_2  and  C_4
REMARK    3  A    between atoms: N_6  and  C_7
REMARK    4  A    between atoms: C_12  and  N_13
REMARK                            x       y       z     vdW  Elec       q    Type
REMARK                         _______ _______ _______ _____ _____    ______ ____
ROOT
ATOM      1  C   UNL     1       4.010   4.365  17.809  0.00  0.00    +0.000 A 
ATOM      2  C   UNL     1       3.451   4.014  18.978  0.00  0.00    +0.000 A 
ATOM      3  N   UNL     1       2.712   4.840  19.807  0.00  0.00    +0.000 N 
ATOM      4  C   UNL     1       2.582   6.218  19.477  0.00  0.00    +0.000 A 
ATOM      5  C   UNL     1       1.975   7.154  20.332  0.00  0.00    +0.000 A 
ATOM      6  C   UNL     1       1.744   8.502  19.975  0.00  0.00    +0.000 A 
ATOM      7  C   UNL     1       2.254   8.896  18.720  0.00  0.00    +0.000 A 
ATOM      8  F   UNL     1       2.164  10.164  18.293  0.00  0.00    +0.000 F 
ATOM      9  C   UNL     1       2.904   8.010  17.864  0.00  0.00    +0.000 A 
ATOM     10  C   UNL     1       3.070   6.683  18.247  0.00  0.00    +0.000 A 
ATOM     11  C   UNL     1       3.822   5.761  17.366  0.00  0.00    +0.000 A 
ATOM     12  O   UNL     1       4.309   6.142  16.303  0.00  0.00    +0.000 OA
ENDROOT
BRANCH   6  13
ATOM     13  N   UNL     1       1.104   9.367  20.867  0.00  0.00    +0.000 N 
ATOM     14  C   UNL     1       1.501   9.347  22.310  0.00  0.00    +0.000 C 
ATOM     15  C   UNL     1       0.126   9.415  23.040  0.00  0.00    +0.000 C 
ATOM     16  C   UNL     1      -0.750   8.612  22.087  0.00  0.00    +0.000 C 
ATOM     17  C   UNL     1      -0.381   9.497  20.900  0.00  0.00    +0.000 C 
ATOM     18  C   UNL     1      -0.736  10.895  21.475  0.00  0.00    +0.000 C 
ATOM     19  N   UNL     1      -0.455  10.781  22.939  0.00  0.00    +0.000 NA
ATOM     20  H   UNL     1      -1.345  10.792  23.437  0.00  0.00    +0.000 HD
ENDBRANCH   6  13
BRANCH   3  21
ATOM     21  C   UNL     1       2.263   4.294  21.104  0.00  0.00    +0.000 C 
ATOM     22  C   UNL     1       1.201   3.226  21.230  0.00  0.00    +0.000 C 
ATOM     23  C   UNL     1       2.625   2.891  21.537  0.00  0.00    +0.000 C 
ENDBRANCH   3  21
BRANCH   1  25
ATOM     24  O   UNL     1       5.660   3.664  16.247  0.00  0.00    +0.000 OA
ATOM     25  C   UNL     1       4.779   3.364  17.044  0.00  0.00    +0.000 C 
BRANCH  25  26
ATOM     26  O   UNL     1       4.434   2.082  17.288  0.00  0.00    +0.000 OA
ATOM     27  H   UNL     1       5.150   1.428  17.091  0.00  0.00    +0.000 HD
ENDBRANCH  25  26
ENDBRANCH   1  25
TORSDOF 4
ENDMDL
MODEL 6
REMARK VINA RESULT:      -7.4      2.323      3.642
REMARK  Name = 
REMARK  4 active torsions:
REMARK  status: ('A' for Active; 'I' for Inactive)
REMARK    1  A    between atoms: C_2  and  O_3
REMARK    2  A    between atoms: C_2  and  C_4
REMARK    3  A    between atoms: N_6  and  C_7
REMARK    4  A    between atoms: C_12  and  N_13
REMARK                            x       y       z     vdW  Elec       q    Type
REMARK                         _______ _______ _______ _____ _____    ______ ____
ROOT
ATOM      1  C   UNL     1       3.933   3.771  19.448  0.00  0.00    +0.000 A 
ATOM      2  C   UNL     1       4.414   4.452  18.395  0.00  0.00    +0.000 A 
ATOM      3  N   UNL     1       4.074   5.745  18.038  0.00  0.00    +0.000 N 
ATOM      4  C   UNL     1       3.059   6.423  18.771  0.00  0.00    +0.000 A 
ATOM      5  C   UNL     1       2.551   7.677  18.391  0.00  0.00    +0.000 A 
ATOM      6  C   UNL     1       1.622   8.410  19.164  0.00  0.00    +0.000 A 
ATOM      7  C   UNL     1       1.144   7.758  20.319  0.00  0.00    +0.000 A 
ATOM      8  F   UNL     1       0.207   8.315  21.101  0.00  0.00    +0.000 F 
ATOM      9  C   UNL     1       1.586   6.495  20.705  0.00  0.00    +0.000 A 
ATOM     10  C   UNL     1       2.532   5.834  19.929  0.00  0.00    +0.000 A 
ATOM     11  C   UNL     1       2.950   4.463  20.304  0.00  0.00    +0.000 A 
ATOM     12  O   UNL     1       2.475   3.893  21.284  0.00  0.00    +0.000 OA
ENDROOT
BRANCH   6  13
ATOM     13  N   UNL     1       1.187   9.667  18.736  0.00  0.00    +0.000 N 
ATOM     14  C   UNL     1       2.185  10.629  18.172  0.00  0.00    +0.000 C 
ATOM     15  C   UNL     1       1.770  11.976  18.836  0.00  0.00    +0.000 C 
ATOM     16  C   UNL     1       1.297  11.494  20.202  0.00  0.00    +0.000 C 
ATOM     17  C   UNL     1       0.301  10.517  19.583  0.00  0.00    +0.000 C 
ATOM     18  C   UNL     1      -0.488  11.478  18.653  0.00  0.00    +0.000 C 
ATOM     19  N   UNL     1       0.517  12.498  18.226  0.00  0.00    +0.000 NA
ATOM     20  H   UNL     1       0.284  13.384  18.675  0.00  0.00    +0.000 HD
ENDBRANCH   6  13
BRANCH   3  21
ATOM     21  C   UNL     1       4.636   6.287  16.785  0.00  0.00    +0.000 C 
ATOM     22  C   UNL     1       6.108   6.229  16.445  0.00  0.00    +0.000 C 
ATOM     23  C   UNL     1       5.141   5.376  15.689  0.00  0.00    +0.000 C 
ENDBRANCH   3  21
BRANCH   1  25
ATOM     24  O   UNL     1       5.085   2.072  20.648  0.00  0.00    +0.000 OA
ATOM     25  C   UNL     1       4.393   2.389  19.688  0.00  0.00    +0.000 C 
BRANCH  25  26
ATOM     26  O   UNL     1       3.992   1.493  18.760  0.00  0.00    +0.000 OA
ATOM     27  H   UNL     1       3.415   1.877  18.054  0.00  0.00    +0.000 HD
ENDBRANCH  25  26
ENDBRANCH   1  25
TORSDOF 4
ENDMDL
MODEL 7
REMARK VINA RESULT:      -7.3      4.903      6.326
REMARK  Name = 
REMARK  4 active torsions:
REMARK  status: ('A' for Active; 'I' for Inactive)
REMARK    1  A    between atoms: C_2  and  O_3
REMARK    2  A    between atoms: C_2  and  C_4
REMARK    3  A    between atoms: N_6  and  C_7
REMARK    4  A    between atoms: C_12  and  N_13
REMARK                            x       y       z     vdW  Elec       q    Type
REMARK                         _______ _______ _______ _____ _____    ______ ____
ROOT
ATOM      1  C   UNL     1       7.039   4.826  14.564  0.00  0.00    +0.000 A 
ATOM      2  C   UNL     1       7.642   5.038  15.744  0.00  0.00    +0.000 A 
ATOM      3  N   UNL     1       7.110   4.763  16.992  0.00  0.00    +0.000 N 
ATOM      4  C   UNL     1       5.768   4.297  17.086  0.00  0.00    +0.000 A 
ATOM      5  C   UNL     1       5.102   4.131  18.312  0.00  0.00    +0.000 A 
ATOM      6  C   UNL     1       3.810   3.570  18.428  0.00  0.00    +0.000 A 
ATOM      7  C   UNL     1       3.166   3.266  17.211  0.00  0.00    +0.000 A 
ATOM      8  F   UNL     1       1.911   2.795  17.179  0.00  0.00    +0.000 F 
ATOM      9  C   UNL     1       3.774   3.460  15.973  0.00  0.00    +0.000 A 
ATOM     10  C   UNL     1       5.063   3.979  15.916  0.00  0.00    +0.000 A 
ATOM     11  C   UNL     1       5.680   4.248  14.597  0.00  0.00    +0.000 A 
ATOM     12  O   UNL     1       5.077   4.030  13.549  0.00  0.00    +0.000 OA
ENDROOT
BRANCH   6  13
ATOM     13  N   UNL     1       3.224   3.407  19.686  0.00  0.00    +0.000 N 
ATOM     14  C   UNL     1       2.592   2.094  20.029  0.00  0.00    +0.000 C 
ATOM     15  C   UNL     1       1.272   2.528  20.734  0.00  0.00    +0.000 C 
ATOM     16  C   UNL     1       0.926   3.790  19.956  0.00  0.00    +0.000 C 
ATOM     17  C   UNL     1       2.285   4.420  20.249  0.00  0.00    +0.000 C 
ATOM     18  C   UNL     1       2.315   4.306  21.797  0.00  0.00    +0.000 C 
ATOM     19  N   UNL     1       1.554   3.055  22.097  0.00  0.00    +0.000 NA
ATOM     20  H   UNL     1       0.669   3.316  22.533  0.00  0.00    +0.000 HD
ENDBRANCH   6  13
BRANCH   3  21
ATOM     21  C   UNL     1       7.891   5.161  18.179  0.00  0.00    +0.000 C 
ATOM     22  C   UNL     1       8.037   6.596  18.632  0.00  0.00    +0.000 C 
ATOM     23  C   UNL     1       7.215   5.646  19.442  0.00  0.00    +0.000 C 
ENDBRANCH   3  21
BRANCH   1  25
ATOM     24  O   UNL     1       8.644   6.012  13.271  0.00  0.00    +0.000 OA
ATOM     25  C   UNL     1       7.742   5.184  13.316  0.00  0.00    +0.000 C 
BRANCH  25  26
ATOM     26  O   UNL     1       7.312   4.526  12.218  0.00  0.00    +0.000 OA
ATOM     27  H   UNL     1       6.775   3.719  12.418  0.00  0.00    +0.000 HD
ENDBRANCH  25  26
ENDBRANCH   1  25
TORSDOF 4
ENDMDL
MODEL 8
REMARK VINA RESULT:      -7.2      3.970      7.783
REMARK  Name = 
REMARK  4 active torsions:
REMARK  status: ('A' for Active; 'I' for Inactive)
REMARK    1  A    between atoms: C_2  and  O_3
REMARK    2  A    between atoms: C_2  and  C_4
REMARK    3  A    between atoms: N_6  and  C_7
REMARK    4  A    between atoms: C_12  and  N_13
REMARK                            x       y       z     vdW  Elec       q    Type
REMARK                         _______ _______ _______ _____ _____    ______ ____
ROOT
ATOM      1  C   UNL     1      -0.306  11.110  21.873  0.00  0.00    +0.000 A 
ATOM      2  C   UNL     1       0.024  11.590  20.663  0.00  0.00    +0.000 A 
ATOM      3  N   UNL     1       0.644  10.882  19.648  0.00  0.00    +0.000 N 
ATOM      4  C   UNL     1       1.071   9.547  19.894  0.00  0.00    +0.000 A 
ATOM      5  C   UNL     1       1.833   8.807  18.974  0.00  0.00    +0.000 A 
ATOM      6  C   UNL     1       2.174   7.448  19.157  0.00  0.00    +0.000 A 
ATOM      7  C   UNL     1       1.783   6.883  20.388  0.00  0.00    +0.000 A 
ATOM      8  F   UNL     1       2.106   5.623  20.716  0.00  0.00    +0.000 F 
ATOM      9  C   UNL     1       1.068   7.596  21.347  0.00  0.00    +0.000 A 
ATOM     10  C   UNL     1       0.723   8.921  21.100  0.00  0.00    +0.000 A 
ATOM     11  C   UNL     1       0.023   9.697  22.149  0.00  0.00    +0.000 A 
ATOM     12  O   UNL     1      -0.255   9.200  23.238  0.00  0.00    +0.000 OA
ENDROOT
BRANCH   6  13
ATOM     13  N   UNL     1       2.908   6.768  18.180  0.00  0.00    +0.000 N 
ATOM     14  C   UNL     1       2.591   5.333  17.900  0.00  0.00    +0.000 C 
ATOM     15  C   UNL     1       4.005   4.690  17.782  0.00  0.00    +0.000 C 
ATOM     16  C   UNL     1       4.783   5.507  18.806  0.00  0.00    +0.000 C 
ATOM     17  C   UNL     1       4.398   6.826  18.141  0.00  0.00    +0.000 C 
ATOM     18  C   UNL     1       4.859   6.548  16.685  0.00  0.00    +0.000 C 
ATOM     19  N   UNL     1       4.653   5.079  16.500  0.00  0.00    +0.000 NA
ATOM     20  H   UNL     1       5.569   4.631  16.451  0.00  0.00    +0.000 HD
ENDBRANCH   6  13
BRANCH   3  21
ATOM     21  C   UNL     1       1.016  11.616  18.422  0.00  0.00    +0.000 C 
ATOM     22  C   UNL     1       1.036  13.125  18.333  0.00  0.00    +0.000 C 
ATOM     23  C   UNL     1       2.325  12.366  18.319  0.00  0.00    +0.000 C 
ENDBRANCH   3  21
BRANCH   1  25
ATOM     24  O   UNL     1      -0.464  13.058  23.227  0.00  0.00    +0.000 OA
ATOM     25  C   UNL     1      -0.958  12.001  22.853  0.00  0.00    +0.000 C 
BRANCH  25  26
ATOM     26  O   UNL     1      -2.148  11.559  23.311  0.00  0.00    +0.000 OA
ATOM     27  H   UNL     1      -2.176  11.424  24.291  0.00  0.00    +0.000 HD
ENDBRANCH  25  26
ENDBRANCH   1  25
TORSDOF 4
ENDMDL
MODEL 9
REMARK VINA RESULT:      -7.2      2.994      6.900
REMARK  Name = 
REMARK  4 active torsions:
REMARK  status: ('A' for Active; 'I' for Inactive)
REMARK    1  A    between atoms: C_2  and  O_3
REMARK    2  A    between atoms: C_2  and  C_4
REMARK    3  A    between atoms: N_6  and  C_7
REMARK    4  A    between atoms: C_12  and  N_13
REMARK                            x       y       z     vdW  Elec       q    Type
REMARK                         _______ _______ _______ _____ _____    ______ ____
ROOT
ATOM      1  C   UNL     1       1.103  11.125  19.283  0.00  0.00    +0.000 A 
ATOM      2  C   UNL     1       0.776  10.503  20.428  0.00  0.00    +0.000 A 
ATOM      3  N   UNL     1       1.100   9.201  20.767  0.00  0.00    +0.000 N 
ATOM      4  C   UNL     1       1.759   8.378  19.811  0.00  0.00    +0.000 A 
ATOM      5  C   UNL     1       1.995   7.008  20.017  0.00  0.00    +0.000 A 
ATOM      6  C   UNL     1       2.740   6.202  19.126  0.00  0.00    +0.000 A 
ATOM      7  C   UNL     1       3.164   6.837  17.941  0.00  0.00    +0.000 A 
ATOM      8  F   UNL     1       3.819   6.166  16.981  0.00  0.00    +0.000 F 
ATOM      9  C   UNL     1       2.910   8.181  17.677  0.00  0.00    +0.000 A 
ATOM     10  C   UNL     1       2.206   8.940  18.607  0.00  0.00    +0.000 A 
ATOM     11  C   UNL     1       1.877  10.349  18.293  0.00  0.00    +0.000 A 
ATOM     12  O   UNL     1       2.207  10.864  17.227  0.00  0.00    +0.000 OA
ENDROOT
BRANCH   6  13
ATOM     13  N   UNL     1       2.961   4.853  19.415  0.00  0.00    +0.000 N 
ATOM     14  C   UNL     1       4.339   4.292  19.258  0.00  0.00    +0.000 C 
ATOM     15  C   UNL     1       4.071   2.922  18.566  0.00  0.00    +0.000 C 
ATOM     16  C   UNL     1       2.875   3.268  17.689  0.00  0.00    +0.000 C 
ATOM     17  C   UNL     1       2.070   3.783  18.879  0.00  0.00    +0.000 C 
ATOM     18  C   UNL     1       2.157   2.555  19.826  0.00  0.00    +0.000 C 
ATOM     19  N   UNL     1       3.492   1.950  19.533  0.00  0.00    +0.000 NA
ATOM     20  H   UNL     1       3.342   1.063  19.050  0.00  0.00    +0.000 HD
ENDBRANCH   6  13
BRANCH   3  21
ATOM     21  C   UNL     1       0.562   8.664  22.033  0.00  0.00    +0.000 C 
ATOM     22  C   UNL     1       0.335   9.513  23.263  0.00  0.00    +0.000 C 
ATOM     23  C   UNL     1      -0.839   8.992  22.497  0.00  0.00    +0.000 C 
ENDBRANCH   3  21
BRANCH   1  25
ATOM     24  O   UNL     1       0.899  13.421  19.870  0.00  0.00    +0.000 OA
ATOM     25  C   UNL     1       0.673  12.521  19.069  0.00  0.00    +0.000 C 
BRANCH  25  26
ATOM     26  O   UNL     1       0.003  12.733  17.916  0.00  0.00    +0.000 OA
ATOM     27  H   UNL     1      -0.463  11.933  17.569  0.00  0.00    +0.000 HD
ENDBRANCH  25  26
ENDBRANCH   1  25
TORSDOF 4
ENDMDL
