MODEL 1
REMARK VINA RESULT:      -7.7      0.000      0.000
REMARK  Name = 
REMARK  3 active torsions:
REMARK  status: ('A' for Active; 'I' for Inactive)
REMARK    1  A    between atoms: C_1  and  N_2
REMARK    2  A    between atoms: N_2  and  C_3
REMARK    3  A    between atoms: N_6  and  C_7
REMARK                            x       y       z     vdW  Elec       q    Type
REMARK                         _______ _______ _______ _____ _____    ______ ____
ROOT
ATOM      1  C   UNL     1       3.771   4.730  18.958  0.00  0.00    +0.000 A 
ATOM      2  N   UNL     1       3.521   3.751  19.866  0.00  0.00    +0.000 NA
ATOM      3  C   UNL     1       2.650   3.941  20.853  0.00  0.00    +0.000 A 
ATOM      4  N   UNL     1       2.456   2.873  21.711  0.00  0.00    +0.000 N 
ATOM      5  N   UNL     1       1.993   5.065  21.114  0.00  0.00    +0.000 NA
ATOM      6  C   UNL     1       2.203   6.069  20.225  0.00  0.00    +0.000 A 
ATOM      7  C   UNL     1       3.057   5.934  19.133  0.00  0.00    +0.000 A 
ATOM      8  S   UNL     1       3.059   7.381  18.209  0.00  0.00    +0.000 S 
ATOM      9  C   UNL     1       1.984   8.193  19.249  0.00  0.00    +0.000 A 
ATOM     10  C   UNL     1       1.520   9.513  19.095  0.00  0.00    +0.000 A 
ATOM     11  C   UNL     1       0.657  10.036  20.057  0.00  0.00    +0.000 A 
ATOM     12  C   UNL     1       0.269   9.259  21.140  0.00  0.00    +0.000 A 
ATOM     13 CL   UNL     1      -0.784   9.931  22.323  0.00  0.00    +0.000 Cl
ATOM     14  C   UNL     1       0.722   7.944  21.281  0.00  0.00    +0.000 A 
ATOM     15  C   UNL     1       1.600   7.384  20.315  0.00  0.00    +0.000 A 
ATOM     16  H   UNL     1       3.245   2.245  21.647  0.00  0.00    +0.000 HD
ATOM     17  H   UNL     1       2.192   3.200  22.630  0.00  0.00    +0.000 HD
ENDROOT
BRANCH   1  21
ATOM     18  C   UNL     1       6.801   4.453  16.783  0.00  0.00    +0.000 C 
ATOM     19  C   UNL     1       5.638   3.878  15.966  0.00  0.00    +0.000 C 
ATOM     20  C   UNL     1       4.401   4.518  16.586  0.00  0.00    +0.000 C 
ATOM     21  N   UNL     1       4.730   4.497  18.001  0.00  0.00    +0.000 N 
ATOM     22  C   UNL     1       6.168   4.660  18.186  0.00  0.00    +0.000 C 
BRANCH  18  24
ATOM     23  C   UNL     1       7.352   6.811  17.046  0.00  0.00    +0.000 C 
ATOM     24  N   UNL     1       7.330   5.669  16.139  0.00  0.00    +0.000 NA
ATOM     25  H   UNL     1       8.286   5.484  15.832  0.00  0.00    +0.000 HD
ENDBRANCH  18  24
ENDBRANCH   1  21
TORSDOF 2
ENDMDL
MODEL 2
REMARK VINA RESULT:      -7.6      1.475      2.094
REMARK  Name = 
REMARK  3 active torsions:
REMARK  status: ('A' for Active; 'I' for Inactive)
REMARK    1  A    between atoms: C_1  and  N_2
REMARK    2  A    between atoms: N_2  and  C_3
REMARK    3  A    between atoms: N_6  and  C_7
REMARK                            x       y       z     vdW  Elec       q    Type
REMARK                         _______ _______ _______ _____ _____    ______ ____
ROOT
ATOM      1  C   UNL     1       4.476   4.819  17.760  0.00  0.00    +0.000 A 
ATOM      2  N   UNL     1       4.477   3.718  18.556  0.00  0.00    +0.000 NA
ATOM      3  C   UNL     1       3.734   3.673  19.659  0.00  0.00    +0.000 A 
ATOM      4  N   UNL     1       3.793   2.498  20.387  0.00  0.00    +0.000 N 
ATOM      5  N   UNL     1       2.988   4.659  20.144  0.00  0.00    +0.000 NA
ATOM      6  C   UNL     1       2.948   5.777  19.375  0.00  0.00    +0.000 A 
ATOM      7  C   UNL     1       3.652   5.886  18.178  0.00  0.00    +0.000 A 
ATOM      8  S   UNL     1       3.349   7.415  17.459  0.00  0.00    +0.000 S 
ATOM      9  C   UNL     1       2.338   7.946  18.720  0.00  0.00    +0.000 A 
ATOM     10  C   UNL     1       1.700   9.199  18.799  0.00  0.00    +0.000 A 
ATOM     11  C   UNL     1       0.922   9.484  19.920  0.00  0.00    +0.000 A 
ATOM     12  C   UNL     1       0.785   8.543  20.930  0.00  0.00    +0.000 A 
ATOM     13 CL   UNL     1      -0.167   8.924  22.312  0.00  0.00    +0.000 Cl
ATOM     14  C   UNL     1       1.411   7.296  20.841  0.00  0.00    +0.000 A 
ATOM     15  C   UNL     1       2.207   6.976  19.710  0.00  0.00    +0.000 A 
ATOM     16  H   UNL     1       4.637   1.996  20.145  0.00  0.00    +0.000 HD
ATOM     17  H   UNL     1       3.621   2.679  21.366  0.00  0.00    +0.000 HD
ENDROOT
BRANCH   1  21
ATOM     18  C   UNL     1       6.190   4.652  14.440  0.00  0.00    +0.000 C 
ATOM     19  C   UNL     1       7.290   4.919  15.472  0.00  0.00    +0.000 C 
ATOM     20  C   UNL     1       6.699   4.408  16.782  0.00  0.00    +0.000 C 
ATOM     21  N   UNL     1       5.314   4.832  16.670  0.00  0.00    +0.000 N 
ATOM     22  C   UNL     1       4.889   4.802  15.275  0.00  0.00    +0.000 C 
BRANCH  18  24
ATOM     23  C   UNL     1       6.035   3.342  12.391  0.00  0.00    +0.000 C 
ATOM     24  N   UNL     1       6.389   3.335  13.806  0.00  0.00    +0.000 NA
ATOM     25  H   UNL     1       7.374   3.082  13.890  0.00  0.00    +0.000 HD
ENDBRANCH  18  24
ENDBRANCH   1  21
TORSDOF 2
ENDMDL
MODEL 3
REMARK VINA RESULT:      -7.5      0.978      1.150
REMARK  Name = 
REMARK  3 active torsions:
REMARK  status: ('A' for Active; 'I' for Inactive)
REMARK    1  A    between atoms: C_1  and  N_2
REMARK    2  A    between atoms: N_2  and  C_3
REMARK    3  A    between atoms: N_6  and  C_7
REMARK                            x       y       z     vdW  Elec       q    Type
REMARK                         _______ _______ _______ _____ _____    ______ ____
ROOT
ATOM      1  C   UNL     1       3.438   5.476  18.472  0.00  0.00    +0.000 A 
ATOM      2  N   UNL     1       3.343   4.419  19.320  0.00  0.00    +0.000 NA
ATOM      3  C   UNL     1       2.609   4.495  20.427  0.00  0.00    +0.000 A 
ATOM      4  N   UNL     1       2.565   3.356  21.211  0.00  0.00    +0.000 N 
ATOM      5  N   UNL     1       1.962   5.568  20.867  0.00  0.00    +0.000 NA
ATOM      6  C   UNL     1       2.020   6.647  20.046  0.00  0.00    +0.000 A 
ATOM      7  C   UNL     1       2.720   6.633  18.842  0.00  0.00    +0.000 A 
ATOM      8  S   UNL     1       2.554   8.148  18.051  0.00  0.00    +0.000 S 
ATOM      9  C   UNL     1       1.608   8.831  19.290  0.00  0.00    +0.000 A 
ATOM     10  C   UNL     1       1.090  10.140  19.311  0.00  0.00    +0.000 A 
ATOM     11  C   UNL     1       0.352  10.549  20.420  0.00  0.00    +0.000 A 
ATOM     12  C   UNL     1       0.137   9.674  21.476  0.00  0.00    +0.000 A 
ATOM     13 CL   UNL     1      -0.762  10.207  22.842  0.00  0.00    +0.000 Cl
ATOM     14  C   UNL     1       0.644   8.371  21.444  0.00  0.00    +0.000 A 
ATOM     15  C   UNL     1       1.397   7.925  20.326  0.00  0.00    +0.000 A 
ATOM     16  H   UNL     1       3.357   2.766  20.989  0.00  0.00    +0.000 HD
ATOM     17  H   UNL     1       2.420   3.598  22.181  0.00  0.00    +0.000 HD
ENDROOT
BRANCH   1  21
ATOM     18  C   UNL     1       5.936   4.596  15.831  0.00  0.00    +0.000 C 
ATOM     19  C   UNL     1       5.337   5.946  15.417  0.00  0.00    +0.000 C 
ATOM     20  C   UNL     1       4.814   6.533  16.723  0.00  0.00    +0.000 C 
ATOM     21  N   UNL     1       4.264   5.359  17.379  0.00  0.00    +0.000 N 
ATOM     22  C   UNL     1       5.041   4.175  17.028  0.00  0.00    +0.000 C 
BRANCH  18  24
ATOM     23  C   UNL     1       7.669   4.512  17.540  0.00  0.00    +0.000 C 
ATOM     24  N   UNL     1       7.372   4.742  16.131  0.00  0.00    +0.000 NA
ATOM     25  H   UNL     1       7.889   4.057  15.577  0.00  0.00    +0.000 HD
ENDBRANCH  18  24
ENDBRANCH   1  21
TORSDOF 2
ENDMDL
MODEL 4
REMARK VINA RESULT:      -7.4      0.929      1.003
REMARK  Name = 
REMARK  3 active torsions:
REMARK  status: ('A' for Active; 'I' for Inactive)
REMARK    1  A    between atoms: C_1  and  N_2
REMARK    2  A    between atoms: N_2  and  C_3
REMARK    3  A    between atoms: N_6  and  C_7
REMARK                            x       y       z     vdW  Elec       q    Type
REMARK                         _______ _______ _______ _____ _____    ______ ____
ROOT
ATOM      1  C   UNL     1       4.173   4.420  18.581  0.00  0.00    +0.000 A 
ATOM      2  N   UNL     1       4.020   3.421  19.490  0.00  0.00    +0.000 NA
ATOM      3  C   UNL     1       3.195   3.560  20.524  0.00  0.00    +0.000 A 
ATOM      4  N   UNL     1       3.099   2.476  21.379  0.00  0.00    +0.000 N 
ATOM      5  N   UNL     1       2.499   4.648  20.833  0.00  0.00    +0.000 NA
ATOM      6  C   UNL     1       2.613   5.670  19.946  0.00  0.00    +0.000 A 
ATOM      7  C   UNL     1       3.412   5.586  18.808  0.00  0.00    +0.000 A 
ATOM      8  S   UNL     1       3.294   7.040  17.903  0.00  0.00    +0.000 S 
ATOM      9  C   UNL     1       2.239   7.789  19.008  0.00  0.00    +0.000 A 
ATOM     10  C   UNL     1       1.704   9.086  18.895  0.00  0.00    +0.000 A 
ATOM     11  C   UNL     1       0.871   9.557  19.908  0.00  0.00    +0.000 A 
ATOM     12  C   UNL     1       0.579   8.752  21.000  0.00  0.00    +0.000 A 
ATOM     13 CL   UNL     1      -0.439   9.361  22.247  0.00  0.00    +0.000 Cl
ATOM     14  C   UNL     1       1.103   7.460  21.102  0.00  0.00    +0.000 A 
ATOM     15  C   UNL     1       1.952   6.952  20.084  0.00  0.00    +0.000 A 
ATOM     16  H   UNL     1       3.913   1.888  21.265  0.00  0.00    +0.000 HD
ATOM     17  H   UNL     1       2.870   2.781  22.314  0.00  0.00    +0.000 HD
ENDROOT
BRANCH   1  21
ATOM     18  C   UNL     1       6.999   4.475  16.132  0.00  0.00    +0.000 C 
ATOM     19  C   UNL     1       5.988   3.458  15.590  0.00  0.00    +0.000 C 
ATOM     20  C   UNL     1       4.668   3.874  16.230  0.00  0.00    +0.000 C 
ATOM     21  N   UNL     1       5.089   4.243  17.571  0.00  0.00    +0.000 N 
ATOM     22  C   UNL     1       6.434   4.807  17.540  0.00  0.00    +0.000 C 
BRANCH  18  24
ATOM     23  C   UNL     1       7.492   5.207  13.861  0.00  0.00    +0.000 C 
ATOM     24  N   UNL     1       7.121   5.619  15.210  0.00  0.00    +0.000 NA
ATOM     25  H   UNL     1       6.219   6.095  15.164  0.00  0.00    +0.000 HD
ENDBRANCH  18  24
ENDBRANCH   1  21
TORSDOF 2
ENDMDL
MODEL 5
REMARK VINA RESULT:      -6.7      4.125      7.164
REMARK  Name = 
REMARK  3 active torsions:
REMARK  status: ('A' for Active; 'I' for Inactive)
REMARK    1  A    between atoms: C_1  and  N_2
REMARK    2  A    between atoms: N_2  and  C_3
REMARK    3  A    between atoms: N_6  and  C_7
REMARK                            x       y       z     vdW  Elec       q    Type
REMARK                         _______ _______ _______ _____ _____    ______ ____
ROOT
ATOM      1  C   UNL     1       5.117   4.631  19.102  0.00  0.00    +0.000 A 
ATOM      2  N   UNL     1       6.201   5.180  19.709  0.00  0.00    +0.000 NA
ATOM      3  C   UNL     1       7.248   5.589  18.998  0.00  0.00    +0.000 A 
ATOM      4  N   UNL     1       8.291   6.150  19.712  0.00  0.00    +0.000 N 
ATOM      5  N   UNL     1       7.401   5.464  17.684  0.00  0.00    +0.000 NA
ATOM      6  C   UNL     1       6.337   4.930  17.033  0.00  0.00    +0.000 A 
ATOM      7  C   UNL     1       5.180   4.527  17.697  0.00  0.00    +0.000 A 
ATOM      8  S   UNL     1       4.035   3.930  16.565  0.00  0.00    +0.000 S 
ATOM      9  C   UNL     1       5.056   4.158  15.224  0.00  0.00    +0.000 A 
ATOM     10  C   UNL     1       4.746   3.854  13.884  0.00  0.00    +0.000 A 
ATOM     11  C   UNL     1       5.711   4.081  12.905  0.00  0.00    +0.000 A 
ATOM     12  C   UNL     1       6.950   4.599  13.256  0.00  0.00    +0.000 A 
ATOM     13 CL   UNL     1       8.132   4.855  12.033  0.00  0.00    +0.000 Cl
ATOM     14  C   UNL     1       7.249   4.911  14.586  0.00  0.00    +0.000 A 
ATOM     15  C   UNL     1       6.284   4.693  15.604  0.00  0.00    +0.000 A 
ATOM     16  H   UNL     1       8.230   5.858  20.678  0.00  0.00    +0.000 HD
ATOM     17  H   UNL     1       9.169   6.002  19.234  0.00  0.00    +0.000 HD
ENDROOT
BRANCH   1  21
ATOM     18  C   UNL     1       2.435   2.767  20.925  0.00  0.00    +0.000 C 
ATOM     19  C   UNL     1       2.312   4.229  21.369  0.00  0.00    +0.000 C 
ATOM     20  C   UNL     1       2.963   5.014  20.235  0.00  0.00    +0.000 C 
ATOM     21  N   UNL     1       4.094   4.168  19.896  0.00  0.00    +0.000 N 
ATOM     22  C   UNL     1       3.755   2.764  20.106  0.00  0.00    +0.000 C 
BRANCH  18  24
ATOM     23  C   UNL     1       1.514   2.030  18.793  0.00  0.00    +0.000 C 
ATOM     24  N   UNL     1       1.228   2.351  20.187  0.00  0.00    +0.000 NA
ATOM     25  H   UNL     1       0.844   1.519  20.636  0.00  0.00    +0.000 HD
ENDBRANCH  18  24
ENDBRANCH   1  21
TORSDOF 2
ENDMDL
MODEL 6
REMARK VINA RESULT:      -6.7      3.926      5.728
REMARK  Name = 
REMARK  3 active torsions:
REMARK  status: ('A' for Active; 'I' for Inactive)
REMARK    1  A    between atoms: C_1  and  N_2
REMARK    2  A    between atoms: N_2  and  C_3
REMARK    3  A    between atoms: N_6  and  C_7
REMARK                            x       y       z     vdW  Elec       q    Type
REMARK                         _______ _______ _______ _____ _____    ______ ____
ROOT
ATOM      1  C   UNL     1       6.412   4.985  15.497  0.00  0.00    +0.000 A 
ATOM      2  N   UNL     1       7.133   6.006  16.029  0.00  0.00    +0.000 NA
ATOM      3  C   UNL     1       6.968   6.371  17.297  0.00  0.00    +0.000 A 
ATOM      4  N   UNL     1       7.766   7.409  17.744  0.00  0.00    +0.000 N 
ATOM      5  N   UNL     1       6.084   5.866  18.150  0.00  0.00    +0.000 NA
ATOM      6  C   UNL     1       5.347   4.834  17.666  0.00  0.00    +0.000 A 
ATOM      7  C   UNL     1       5.497   4.354  16.366  0.00  0.00    +0.000 A 
ATOM      8  S   UNL     1       4.433   3.033  16.105  0.00  0.00    +0.000 S 
ATOM      9  C   UNL     1       3.754   3.111  17.663  0.00  0.00    +0.000 A 
ATOM     10  C   UNL     1       2.743   2.272  18.170  0.00  0.00    +0.000 A 
ATOM     11  C   UNL     1       2.280   2.489  19.466  0.00  0.00    +0.000 A 
ATOM     12  C   UNL     1       2.814   3.514  20.234  0.00  0.00    +0.000 A 
ATOM     13 CL   UNL     1       2.215   3.775  21.825  0.00  0.00    +0.000 Cl
ATOM     14  C   UNL     1       3.827   4.337  19.730  0.00  0.00    +0.000 A 
ATOM     15  C   UNL     1       4.320   4.138  18.414  0.00  0.00    +0.000 A 
ATOM     16  H   UNL     1       8.104   7.936  16.950  0.00  0.00    +0.000 HD
ATOM     17  H   UNL     1       7.302   7.921  18.481  0.00  0.00    +0.000 HD
ENDROOT
BRANCH   1  21
ATOM     18  C   UNL     1       6.505   3.626  12.013  0.00  0.00    +0.000 C 
ATOM     19  C   UNL     1       7.413   4.862  12.012  0.00  0.00    +0.000 C 
ATOM     20  C   UNL     1       7.816   5.024  13.473  0.00  0.00    +0.000 C 
ATOM     21  N   UNL     1       6.579   4.698  14.163  0.00  0.00    +0.000 N 
ATOM     22  C   UNL     1       5.834   3.693  13.413  0.00  0.00    +0.000 C 
BRANCH  18  24
ATOM     23  C   UNL     1       6.500   1.368  11.100  0.00  0.00    +0.000 C 
ATOM     24  N   UNL     1       7.292   2.410  11.744  0.00  0.00    +0.000 NA
ATOM     25  H   UNL     1       8.065   2.655  11.123  0.00  0.00    +0.000 HD
ENDBRANCH  18  24
ENDBRANCH   1  21
TORSDOF 2
ENDMDL
MODEL 7
REMARK VINA RESULT:      -6.7      1.190      1.711
REMARK  Name = 
REMARK  3 active torsions:
REMARK  status: ('A' for Active; 'I' for Inactive)
REMARK    1  A    between atoms: C_1  and  N_2
REMARK    2  A    between atoms: N_2  and  C_3
REMARK    3  A    between atoms: N_6  and  C_7
REMARK                            x       y       z     vdW  Elec       q    Type
REMARK                         _______ _______ _______ _____ _____    ______ ____
ROOT
ATOM      1  C   UNL     1       3.887   5.570  18.660  0.00  0.00    +0.000 A 
ATOM      2  N   UNL     1       3.569   4.652  19.609  0.00  0.00    +0.000 NA
ATOM      3  C   UNL     1       2.610   4.893  20.499  0.00  0.00    +0.000 A 
ATOM      4  N   UNL     1       2.353   3.884  21.409  0.00  0.00    +0.000 N 
ATOM      5  N   UNL     1       1.919   6.021  20.620  0.00  0.00    +0.000 NA
ATOM      6  C   UNL     1       2.195   6.965  19.685  0.00  0.00    +0.000 A 
ATOM      7  C   UNL     1       3.145   6.770  18.685  0.00  0.00    +0.000 A 
ATOM      8  S   UNL     1       3.213   8.150  17.666  0.00  0.00    +0.000 S 
ATOM      9  C   UNL     1       2.038   9.011  18.547  0.00  0.00    +0.000 A 
ATOM     10  C   UNL     1       1.574  10.309  18.260  0.00  0.00    +0.000 A 
ATOM     11  C   UNL     1       0.622  10.880  19.102  0.00  0.00    +0.000 A 
ATOM     12  C   UNL     1       0.147  10.173  20.198  0.00  0.00    +0.000 A 
ATOM     13 CL   UNL     1      -1.015  10.906  21.233  0.00  0.00    +0.000 Cl
ATOM     14  C   UNL     1       0.603   8.880  20.471  0.00  0.00    +0.000 A 
ATOM     15  C   UNL     1       1.570   8.271  19.629  0.00  0.00    +0.000 A 
ATOM     16  H   UNL     1       3.153   3.267  21.460  0.00  0.00    +0.000 HD
ATOM     17  H   UNL     1       2.004   4.269  22.276  0.00  0.00    +0.000 HD
ENDROOT
BRANCH   1  21
ATOM     18  C   UNL     1       6.245   4.856  15.845  0.00  0.00    +0.000 C 
ATOM     19  C   UNL     1       7.043   4.634  17.135  0.00  0.00    +0.000 C 
ATOM     20  C   UNL     1       5.975   4.352  18.186  0.00  0.00    +0.000 C 
ATOM     21  N   UNL     1       4.931   5.290  17.810  0.00  0.00    +0.000 N 
ATOM     22  C   UNL     1       4.919   5.478  16.363  0.00  0.00    +0.000 C 
BRANCH  18  24
ATOM     23  C   UNL     1       6.119   3.791  13.658  0.00  0.00    +0.000 C 
ATOM     24  N   UNL     1       6.106   3.591  15.102  0.00  0.00    +0.000 NA
ATOM     25  H   UNL     1       6.888   2.983  15.349  0.00  0.00    +0.000 HD
ENDBRANCH  18  24
ENDBRANCH   1  21
TORSDOF 2
ENDMDL
MODEL 8
REMARK VINA RESULT:      -6.7      4.196      7.383
REMARK  Name = 
REMARK  3 active torsions:
REMARK  status: ('A' for Active; 'I' for Inactive)
REMARK    1  A    between atoms: C_1  and  N_2
REMARK    2  A    between atoms: N_2  and  C_3
REMARK    3  A    between atoms: N_6  and  C_7
REMARK                            x       y       z     vdW  Elec       q    Type
REMARK                         _______ _______ _______ _____ _____    ______ ____
ROOT
ATOM      1  C   UNL     1       0.542  10.381  20.137  0.00  0.00    +0.000 A 
ATOM      2  N   UNL     1       0.119  10.329  21.427  0.00  0.00    +0.000 NA
ATOM      3  C   UNL     1       0.372   9.267  22.187  0.00  0.00    +0.000 A 
ATOM      4  N   UNL     1      -0.086   9.325  23.491  0.00  0.00    +0.000 N 
ATOM      5  N   UNL     1       0.977   8.150  21.798  0.00  0.00    +0.000 NA
ATOM      6  C   UNL     1       1.427   8.160  20.517  0.00  0.00    +0.000 A 
ATOM      7  C   UNL     1       1.252   9.254  19.672  0.00  0.00    +0.000 A 
ATOM      8  S   UNL     1       1.969   8.933  18.145  0.00  0.00    +0.000 S 
ATOM      9  C   UNL     1       2.469   7.363  18.571  0.00  0.00    +0.000 A 
ATOM     10  C   UNL     1       3.159   6.459  17.741  0.00  0.00    +0.000 A 
ATOM     11  C   UNL     1       3.473   5.197  18.241  0.00  0.00    +0.000 A 
ATOM     12  C   UNL     1       3.110   4.851  19.535  0.00  0.00    +0.000 A 
ATOM     13 CL   UNL     1       3.494   3.281  20.125  0.00  0.00    +0.000 Cl
ATOM     14  C   UNL     1       2.437   5.757  20.360  0.00  0.00    +0.000 A 
ATOM     15  C   UNL     1       2.106   7.051  19.878  0.00  0.00    +0.000 A 
ATOM     16  H   UNL     1      -0.821  10.017  23.556  0.00  0.00    +0.000 HD
ATOM     17  H   UNL     1      -0.285   8.398  23.838  0.00  0.00    +0.000 HD
ENDROOT
BRANCH   1  21
ATOM     18  C   UNL     1      -0.009  13.716  18.536  0.00  0.00    +0.000 C 
ATOM     19  C   UNL     1      -0.948  12.740  17.817  0.00  0.00    +0.000 C 
ATOM     20  C   UNL     1      -1.140  11.608  18.821  0.00  0.00    +0.000 C 
ATOM     21  N   UNL     1       0.193  11.476  19.383  0.00  0.00    +0.000 N 
ATOM     22  C   UNL     1       0.855  12.776  19.421  0.00  0.00    +0.000 C 
BRANCH  18  24
ATOM     23  C   UNL     1      -0.396  16.093  18.899  0.00  0.00    +0.000 C 
ATOM     24  N   UNL     1      -0.786  14.736  19.263  0.00  0.00    +0.000 NA
ATOM     25  H   UNL     1      -1.774  14.613  19.035  0.00  0.00    +0.000 HD
ENDBRANCH  18  24
ENDBRANCH   1  21
TORSDOF 2
ENDMDL
MODEL 9
REMARK VINA RESULT:      -6.5      4.021      5.229
REMARK  Name = 
REMARK  3 active torsions:
REMARK  status: ('A' for Active; 'I' for Inactive)
REMARK    1  A    between atoms: C_1  and  N_2
REMARK    2  A    between atoms: N_2  and  C_3
REMARK    3  A    between atoms: N_6  and  C_7
REMARK                            x       y       z     vdW  Elec       q    Type
REMARK                         _______ _______ _______ _____ _____    ______ ____
ROOT
ATOM      1  C   UNL     1       6.167   4.479  16.542  0.00  0.00    +0.000 A 
ATOM      2  N   UNL     1       7.111   5.020  17.356  0.00  0.00    +0.000 NA
ATOM      3  C   UNL     1       6.952   5.024  18.677  0.00  0.00    +0.000 A 
ATOM      4  N   UNL     1       7.981   5.583  19.414  0.00  0.00    +0.000 N 
ATOM      5  N   UNL     1       5.887   4.589  19.341  0.00  0.00    +0.000 NA
ATOM      6  C   UNL     1       4.922   4.029  18.568  0.00  0.00    +0.000 A 
ATOM      7  C   UNL     1       5.034   3.935  17.183  0.00  0.00    +0.000 A 
ATOM      8  S   UNL     1       3.652   3.148  16.536  0.00  0.00    +0.000 S 
ATOM      9  C   UNL     1       2.894   2.967  18.049  0.00  0.00    +0.000 A 
ATOM     10  C   UNL     1       1.639   2.372  18.282  0.00  0.00    +0.000 A 
ATOM     11  C   UNL     1       1.151   2.327  19.586  0.00  0.00    +0.000 A 
ATOM     12  C   UNL     1       1.898   2.860  20.628  0.00  0.00    +0.000 A 
ATOM     13 CL   UNL     1       1.267   2.809  22.228  0.00  0.00    +0.000 Cl
ATOM     14  C   UNL     1       3.149   3.439  20.393  0.00  0.00    +0.000 A 
ATOM     15  C   UNL     1       3.673   3.496  19.075  0.00  0.00    +0.000 A 
ATOM     16  H   UNL     1       8.528   6.190  18.819  0.00  0.00    +0.000 HD
ATOM     17  H   UNL     1       7.628   5.970  20.278  0.00  0.00    +0.000 HD
ENDROOT
BRANCH   1  21
ATOM     18  C   UNL     1       6.201   4.205  12.812  0.00  0.00    +0.000 C 
ATOM     19  C   UNL     1       7.342   5.161  13.178  0.00  0.00    +0.000 C 
ATOM     20  C   UNL     1       7.676   4.801  14.622  0.00  0.00    +0.000 C 
ATOM     21  N   UNL     1       6.357   4.563  15.183  0.00  0.00    +0.000 N 
ATOM     22  C   UNL     1       5.470   4.005  14.168  0.00  0.00    +0.000 C 
BRANCH  18  24
ATOM     23  C   UNL     1       5.689   2.150  11.608  0.00  0.00    +0.000 C 
ATOM     24  N   UNL     1       6.737   2.979  12.192  0.00  0.00    +0.000 NA
ATOM     25  H   UNL     1       7.385   3.248  11.450  0.00  0.00    +0.000 HD
ENDBRANCH  18  24
ENDBRANCH   1  21
TORSDOF 2
ENDMDL
