MODEL 1
REMARK VINA RESULT:      -7.7      0.000      0.000
REMARK  Name = 
REMARK  6 active torsions:
REMARK  status: ('A' for Active; 'I' for Inactive)
REMARK    1  A    between atoms: N_12  and  C_13
REMARK    2  A    between atoms: C_13  and  C_14
REMARK    3  A    between atoms: C_20  and  C_21
REMARK    4  A    between atoms: C_21  and  O_22
REMARK    5  A    between atoms: O_22  and  C_23
REMARK    6  A    between atoms: C_23  and  C_24
REMARK                            x       y       z     vdW  Elec       q    Type
REMARK                         _______ _______ _______ _____ _____    ______ ____
ROOT
ATOM      1  C   UNL     1       2.381  11.866  17.884  0.00  0.00    +0.000 C 
ATOM      2  C   UNL     1       1.829  11.826  19.114  0.00  0.00    +0.000 C 
ATOM      3  C   UNL     1       1.860  13.026  19.996  0.00  0.00    +0.000 A 
ATOM      4  C   UNL     1       2.913  13.956  19.927  0.00  0.00    +0.000 A 
ATOM      5  C   UNL     1       2.957  15.070  20.775  0.00  0.00    +0.000 A 
ATOM      6  C   UNL     1       1.958  15.268  21.725  0.00  0.00    +0.000 A 
ATOM      7  C   UNL     1       0.913  14.356  21.825  0.00  0.00    +0.000 A 
ATOM      8  C   UNL     1       0.869  13.250  20.964  0.00  0.00    +0.000 A 
ATOM      9  S   UNL     1      -0.485  12.123  21.168  0.00  0.00    +0.000 S 
ATOM     10  O   UNL     1      -1.709  12.864  20.978  0.00  0.00    +0.000 OA
ATOM     11  O   UNL     1      -0.220  11.384  22.384  0.00  0.00    +0.000 OA
ATOM     12  N   UNL     1      -0.301  11.066  19.864  0.00  0.00    +0.000 NA
ATOM     13  C   UNL     1       1.099  10.609  19.701  0.00  0.00    +0.000 C 
ENDROOT
BRANCH  12  14
ATOM     14  C   UNL     1      -1.457  10.237  19.489  0.00  0.00    +0.000 C 
BRANCH  14  15
ATOM     15  C   UNL     1      -2.201  10.531  18.201  0.00  0.00    +0.000 A 
ATOM     16  C   UNL     1      -1.835   9.908  16.996  0.00  0.00    +0.000 A 
ATOM     17  C   UNL     1      -2.607  10.073  15.840  0.00  0.00    +0.000 A 
ATOM     18  C   UNL     1      -3.743  10.880  15.864  0.00  0.00    +0.000 A 
ATOM     19  C   UNL     1      -4.104  11.526  17.039  0.00  0.00    +0.000 A 
ATOM     20  C   UNL     1      -3.352  11.334  18.199  0.00  0.00    +0.000 A 
ENDBRANCH  14  15
ENDBRANCH  12  14
BRANCH  13  21
ATOM     21  C   UNL     1       1.329   9.290  18.942  0.00  0.00    +0.000 C 
BRANCH  21  22
ATOM     22  O   UNL     1       1.737   8.201  19.790  0.00  0.00    +0.000 OA
BRANCH  22  23
ATOM     23  C   UNL     1       2.577   7.257  19.117  0.00  0.00    +0.000 C 
BRANCH  23  24
ATOM     24  C   UNL     1       2.021   5.859  19.206  0.00  0.00    +0.000 A 
ATOM     25  C   UNL     1       1.954   5.028  18.083  0.00  0.00    +0.000 A 
ATOM     26  C   UNL     1       1.512   3.708  18.202  0.00  0.00    +0.000 A 
ATOM     27  C   UNL     1       1.153   3.203  19.449  0.00  0.00    +0.000 A 
ATOM     28  C   UNL     1       1.230   4.015  20.577  0.00  0.00    +0.000 A 
ATOM     29  C   UNL     1       1.666   5.337  20.460  0.00  0.00    +0.000 A 
ENDBRANCH  23  24
ENDBRANCH  22  23
ENDBRANCH  21  22
ENDBRANCH  13  21
TORSDOF 6
ENDMDL
MODEL 2
REMARK VINA RESULT:      -7.3      4.237      9.000
REMARK  Name = 
REMARK  6 active torsions:
REMARK  status: ('A' for Active; 'I' for Inactive)
REMARK    1  A    between atoms: N_12  and  C_13
REMARK    2  A    between atoms: C_13  and  C_14
REMARK    3  A    between atoms: C_20  and  C_21
REMARK    4  A    between atoms: C_21  and  O_22
REMARK    5  A    between atoms: O_22  and  C_23
REMARK    6  A    between atoms: C_23  and  C_24
REMARK                            x       y       z     vdW  Elec       q    Type
REMARK                         _______ _______ _______ _____ _____    ______ ____
ROOT
ATOM      1  C   UNL     1       1.300   5.336  17.428  0.00  0.00    +0.000 C 
ATOM      2  C   UNL     1       2.423   5.354  18.174  0.00  0.00    +0.000 C 
ATOM      3  C   UNL     1       2.694   4.269  19.158  0.00  0.00    +0.000 A 
ATOM      4  C   UNL     1       1.644   3.597  19.811  0.00  0.00    +0.000 A 
ATOM      5  C   UNL     1       1.898   2.596  20.757  0.00  0.00    +0.000 A 
ATOM      6  C   UNL     1       3.209   2.258  21.087  0.00  0.00    +0.000 A 
ATOM      7  C   UNL     1       4.265   2.917  20.469  0.00  0.00    +0.000 A 
ATOM      8  C   UNL     1       4.003   3.910  19.512  0.00  0.00    +0.000 A 
ATOM      9  S   UNL     1       5.404   4.717  18.783  0.00  0.00    +0.000 S 
ATOM     10  O   UNL     1       6.212   3.707  18.143  0.00  0.00    +0.000 OA
ATOM     11  O   UNL     1       5.943   5.595  19.800  0.00  0.00    +0.000 OA
ATOM     12  N   UNL     1       4.708   5.675  17.580  0.00  0.00    +0.000 NA
ATOM     13  C   UNL     1       3.524   6.420  18.066  0.00  0.00    +0.000 C 
ENDROOT
BRANCH  12  14
ATOM     14  C   UNL     1       5.591   6.189  16.521  0.00  0.00    +0.000 C 
BRANCH  14  15
ATOM     15  C   UNL     1       5.917   5.310  15.329  0.00  0.00    +0.000 A 
ATOM     16  C   UNL     1       4.954   4.447  14.782  0.00  0.00    +0.000 A 
ATOM     17  C   UNL     1       5.212   3.741  13.601  0.00  0.00    +0.000 A 
ATOM     18  C   UNL     1       6.442   3.872  12.959  0.00  0.00    +0.000 A 
ATOM     19  C   UNL     1       7.416   4.700  13.501  0.00  0.00    +0.000 A 
ATOM     20  C   UNL     1       7.146   5.428  14.661  0.00  0.00    +0.000 A 
ENDBRANCH  14  15
ENDBRANCH  12  14
BRANCH  13  21
ATOM     21  C   UNL     1       3.119   7.689  17.294  0.00  0.00    +0.000 C 
BRANCH  21  22
ATOM     22  O   UNL     1       2.834   8.814  18.146  0.00  0.00    +0.000 OA
BRANCH  22  23
ATOM     23  C   UNL     1       1.446   9.169  18.152  0.00  0.00    +0.000 C 
BRANCH  23  24
ATOM     24  C   UNL     1       0.949   9.434  19.549  0.00  0.00    +0.000 A 
ATOM     25  C   UNL     1       0.053  10.475  19.820  0.00  0.00    +0.000 A 
ATOM     26  C   UNL     1      -0.459  10.653  21.107  0.00  0.00    +0.000 A 
ATOM     27  C   UNL     1      -0.096   9.781  22.129  0.00  0.00    +0.000 A 
ATOM     28  C   UNL     1       0.783   8.732  21.870  0.00  0.00    +0.000 A 
ATOM     29  C   UNL     1       1.302   8.555  20.585  0.00  0.00    +0.000 A 
ENDBRANCH  23  24
ENDBRANCH  22  23
ENDBRANCH  21  22
ENDBRANCH  13  21
TORSDOF 6
ENDMDL
MODEL 3
REMARK VINA RESULT:      -7.1      6.278      9.811
REMARK  Name = 
REMARK  6 active torsions:
REMARK  status: ('A' for Active; 'I' for Inactive)
REMARK    1  A    between atoms: N_12  and  C_13
REMARK    2  A    between atoms: C_13  and  C_14
REMARK    3  A    between atoms: C_20  and  C_21
REMARK    4  A    between atoms: C_21  and  O_22
REMARK    5  A    between atoms: O_22  and  C_23
REMARK    6  A    between atoms: C_23  and  C_24
REMARK                            x       y       z     vdW  Elec       q    Type
REMARK                         _______ _______ _______ _____ _____    ______ ____
ROOT
ATOM      1  C   UNL     1       4.191   7.897  16.738  0.00  0.00    +0.000 C 
ATOM      2  C   UNL     1       4.611   6.987  17.641  0.00  0.00    +0.000 C 
ATOM      3  C   UNL     1       3.646   6.358  18.585  0.00  0.00    +0.000 A 
ATOM      4  C   UNL     1       2.508   7.051  19.035  0.00  0.00    +0.000 A 
ATOM      5  C   UNL     1       1.615   6.471  19.946  0.00  0.00    +0.000 A 
ATOM      6  C   UNL     1       1.853   5.192  20.442  0.00  0.00    +0.000 A 
ATOM      7  C   UNL     1       2.979   4.490  20.026  0.00  0.00    +0.000 A 
ATOM      8  C   UNL     1       3.861   5.072  19.104  0.00  0.00    +0.000 A 
ATOM      9  S   UNL     1       5.284   4.121  18.638  0.00  0.00    +0.000 S 
ATOM     10  O   UNL     1       4.817   2.882  18.063  0.00  0.00    +0.000 OA
ATOM     11  O   UNL     1       6.180   4.146  19.775  0.00  0.00    +0.000 OA
ATOM     12  N   UNL     1       5.974   5.047  17.407  0.00  0.00    +0.000 NA
ATOM     13  C   UNL     1       6.057   6.483  17.760  0.00  0.00    +0.000 C 
ENDROOT
BRANCH  12  14
ATOM     14  C   UNL     1       6.948   4.388  16.522  0.00  0.00    +0.000 C 
BRANCH  14  15
ATOM     15  C   UNL     1       6.717   4.392  15.023  0.00  0.00    +0.000 A 
ATOM     16  C   UNL     1       7.603   5.052  14.157  0.00  0.00    +0.000 A 
ATOM     17  C   UNL     1       7.467   4.939  12.768  0.00  0.00    +0.000 A 
ATOM     18  C   UNL     1       6.432   4.182  12.224  0.00  0.00    +0.000 A 
ATOM     19  C   UNL     1       5.530   3.545  13.066  0.00  0.00    +0.000 A 
ATOM     20  C   UNL     1       5.686   3.632  14.450  0.00  0.00    +0.000 A 
ENDBRANCH  14  15
ENDBRANCH  12  14
BRANCH  13  21
ATOM     21  C   UNL     1       7.101   7.335  17.016  0.00  0.00    +0.000 C 
BRANCH  21  22
ATOM     22  O   UNL     1       7.347   8.612  17.633  0.00  0.00    +0.000 OA
BRANCH  22  23
ATOM     23  C   UNL     1       8.530   8.621  18.441  0.00  0.00    +0.000 C 
BRANCH  23  24
ATOM     24  C   UNL     1       8.958  10.025  18.780  0.00  0.00    +0.000 A 
ATOM     25  C   UNL     1       9.601  10.320  19.987  0.00  0.00    +0.000 A 
ATOM     26  C   UNL     1      10.063  11.612  20.248  0.00  0.00    +0.000 A 
ATOM     27  C   UNL     1       9.903  12.616  19.296  0.00  0.00    +0.000 A 
ATOM     28  C   UNL     1       9.278  12.332  18.084  0.00  0.00    +0.000 A 
ATOM     29  C   UNL     1       8.809  11.042  17.824  0.00  0.00    +0.000 A 
ENDBRANCH  23  24
ENDBRANCH  22  23
ENDBRANCH  21  22
ENDBRANCH  13  21
TORSDOF 6
ENDMDL
MODEL 4
REMARK VINA RESULT:      -7.1      0.727      1.156
REMARK  Name = 
REMARK  6 active torsions:
REMARK  status: ('A' for Active; 'I' for Inactive)
REMARK    1  A    between atoms: N_12  and  C_13
REMARK    2  A    between atoms: C_13  and  C_14
REMARK    3  A    between atoms: C_20  and  C_21
REMARK    4  A    between atoms: C_21  and  O_22
REMARK    5  A    between atoms: O_22  and  C_23
REMARK    6  A    between atoms: C_23  and  C_24
REMARK                            x       y       z     vdW  Elec       q    Type
REMARK                         _______ _______ _______ _____ _____    ______ ____
ROOT
ATOM      1  C   UNL     1       1.830  12.836  17.776  0.00  0.00    +0.000 C 
ATOM      2  C   UNL     1       1.439  12.490  19.020  0.00  0.00    +0.000 C 
ATOM      3  C   UNL     1       1.316  13.521  20.088  0.00  0.00    +0.000 A 
ATOM      4  C   UNL     1       2.139  14.663  20.099  0.00  0.00    +0.000 A 
ATOM      5  C   UNL     1       2.044  15.619  21.118  0.00  0.00    +0.000 A 
ATOM      6  C   UNL     1       1.138  15.444  22.161  0.00  0.00    +0.000 A 
ATOM      7  C   UNL     1       0.324  14.317  22.185  0.00  0.00    +0.000 A 
ATOM      8  C   UNL     1       0.415  13.370  21.153  0.00  0.00    +0.000 A 
ATOM      9  S   UNL     1      -0.643  11.952  21.265  0.00  0.00    +0.000 S 
ATOM     10  O   UNL     1      -2.008  12.420  21.298  0.00  0.00    +0.000 OA
ATOM     11  O   UNL     1      -0.096  11.117  22.314  0.00  0.00    +0.000 OA
ATOM     12  N   UNL     1      -0.389  11.170  19.790  0.00  0.00    +0.000 NA
ATOM     13  C   UNL     1       1.047  11.067  19.445  0.00  0.00    +0.000 C 
ENDROOT
BRANCH  12  14
ATOM     14  C   UNL     1      -1.382  10.170  19.368  0.00  0.00    +0.000 C 
BRANCH  14  15
ATOM     15  C   UNL     1      -2.262  10.451  18.166  0.00  0.00    +0.000 A 
ATOM     16  C   UNL     1      -2.010   9.839  16.927  0.00  0.00    +0.000 A 
ATOM     17  C   UNL     1      -2.902   9.991  15.858  0.00  0.00    +0.000 A 
ATOM     18  C   UNL     1      -4.047  10.771  16.004  0.00  0.00    +0.000 A 
ATOM     19  C   UNL     1      -4.298  11.406  17.214  0.00  0.00    +0.000 A 
ATOM     20  C   UNL     1      -3.425  11.227  18.289  0.00  0.00    +0.000 A 
ENDBRANCH  14  15
ENDBRANCH  12  14
BRANCH  13  21
ATOM     21  C   UNL     1       1.461   9.962  18.457  0.00  0.00    +0.000 C 
BRANCH  21  22
ATOM     22  O   UNL     1       1.777   8.710  19.093  0.00  0.00    +0.000 OA
BRANCH  22  23
ATOM     23  C   UNL     1       2.363   7.761  18.193  0.00  0.00    +0.000 C 
BRANCH  23  24
ATOM     24  C   UNL     1       2.378   6.375  18.783  0.00  0.00    +0.000 A 
ATOM     25  C   UNL     1       2.000   6.143  20.110  0.00  0.00    +0.000 A 
ATOM     26  C   UNL     1       1.942   4.842  20.614  0.00  0.00    +0.000 A 
ATOM     27  C   UNL     1       2.244   3.760  19.790  0.00  0.00    +0.000 A 
ATOM     28  C   UNL     1       2.607   3.976  18.463  0.00  0.00    +0.000 A 
ATOM     29  C   UNL     1       2.672   5.278  17.958  0.00  0.00    +0.000 A 
ENDBRANCH  23  24
ENDBRANCH  22  23
ENDBRANCH  21  22
ENDBRANCH  13  21
TORSDOF 6
ENDMDL
MODEL 5
REMARK VINA RESULT:      -7.0      0.755      1.188
REMARK  Name = 
REMARK  6 active torsions:
REMARK  status: ('A' for Active; 'I' for Inactive)
REMARK    1  A    between atoms: N_12  and  C_13
REMARK    2  A    between atoms: C_13  and  C_14
REMARK    3  A    between atoms: C_20  and  C_21
REMARK    4  A    between atoms: C_21  and  O_22
REMARK    5  A    between atoms: O_22  and  C_23
REMARK    6  A    between atoms: C_23  and  C_24
REMARK                            x       y       z     vdW  Elec       q    Type
REMARK                         _______ _______ _______ _____ _____    ______ ____
ROOT
ATOM      1  C   UNL     1       2.216  10.921  17.663  0.00  0.00    +0.000 C 
ATOM      2  C   UNL     1       1.647  11.392  18.792  0.00  0.00    +0.000 C 
ATOM      3  C   UNL     1       1.872  12.800  19.222  0.00  0.00    +0.000 A 
ATOM      4  C   UNL     1       3.072  13.472  18.924  0.00  0.00    +0.000 A 
ATOM      5  C   UNL     1       3.296  14.787  19.352  0.00  0.00    +0.000 A 
ATOM      6  C   UNL     1       2.332  15.453  20.105  0.00  0.00    +0.000 A 
ATOM      7  C   UNL     1       1.143  14.808  20.428  0.00  0.00    +0.000 A 
ATOM      8  C   UNL     1       0.921  13.495  19.984  0.00  0.00    +0.000 A 
ATOM      9  S   UNL     1      -0.612  12.735  20.453  0.00  0.00    +0.000 S 
ATOM     10  O   UNL     1      -1.685  13.551  19.937  0.00  0.00    +0.000 OA
ATOM     11  O   UNL     1      -0.498  12.425  21.862  0.00  0.00    +0.000 OA
ATOM     12  N   UNL     1      -0.594  11.282  19.594  0.00  0.00    +0.000 NA
ATOM     13  C   UNL     1       0.706  10.581  19.697  0.00  0.00    +0.000 C 
ENDROOT
BRANCH  12  14
ATOM     14  C   UNL     1      -1.871  10.569  19.434  0.00  0.00    +0.000 C 
BRANCH  14  15
ATOM     15  C   UNL     1      -2.560  10.564  18.082  0.00  0.00    +0.000 A 
ATOM     16  C   UNL     1      -3.734  11.303  17.866  0.00  0.00    +0.000 A 
ATOM     17  C   UNL     1      -4.289  11.409  16.585  0.00  0.00    +0.000 A 
ATOM     18  C   UNL     1      -3.692  10.761  15.506  0.00  0.00    +0.000 A 
ATOM     19  C   UNL     1      -2.546  10.003  15.707  0.00  0.00    +0.000 A 
ATOM     20  C   UNL     1      -1.975   9.925  16.978  0.00  0.00    +0.000 A 
ENDBRANCH  14  15
ENDBRANCH  12  14
BRANCH  13  21
ATOM     21  C   UNL     1       0.715   9.063  19.440  0.00  0.00    +0.000 C 
BRANCH  21  22
ATOM     22  O   UNL     1       1.796   8.375  20.095  0.00  0.00    +0.000 OA
BRANCH  22  23
ATOM     23  C   UNL     1       2.533   7.525  19.207  0.00  0.00    +0.000 C 
BRANCH  23  24
ATOM     24  C   UNL     1       2.042   6.102  19.270  0.00  0.00    +0.000 A 
ATOM     25  C   UNL     1       2.035   5.283  18.136  0.00  0.00    +0.000 A 
ATOM     26  C   UNL     1       1.654   3.942  18.232  0.00  0.00    +0.000 A 
ATOM     27  C   UNL     1       1.296   3.405  19.466  0.00  0.00    +0.000 A 
ATOM     28  C   UNL     1       1.314   4.206  20.605  0.00  0.00    +0.000 A 
ATOM     29  C   UNL     1       1.689   5.549  20.511  0.00  0.00    +0.000 A 
ENDBRANCH  23  24
ENDBRANCH  22  23
ENDBRANCH  21  22
ENDBRANCH  13  21
TORSDOF 6
ENDMDL
MODEL 6
REMARK VINA RESULT:      -6.9      4.213      8.994
REMARK  Name = 
REMARK  6 active torsions:
REMARK  status: ('A' for Active; 'I' for Inactive)
REMARK    1  A    between atoms: N_12  and  C_13
REMARK    2  A    between atoms: C_13  and  C_14
REMARK    3  A    between atoms: C_20  and  C_21
REMARK    4  A    between atoms: C_21  and  O_22
REMARK    5  A    between atoms: O_22  and  C_23
REMARK    6  A    between atoms: C_23  and  C_24
REMARK                            x       y       z     vdW  Elec       q    Type
REMARK                         _______ _______ _______ _____ _____    ______ ____
ROOT
ATOM      1  C   UNL     1       1.319   5.347  17.456  0.00  0.00    +0.000 C 
ATOM      2  C   UNL     1       2.439   5.347  18.208  0.00  0.00    +0.000 C 
ATOM      3  C   UNL     1       2.718   4.228  19.150  0.00  0.00    +0.000 A 
ATOM      4  C   UNL     1       1.673   3.520  19.771  0.00  0.00    +0.000 A 
ATOM      5  C   UNL     1       1.935   2.486  20.679  0.00  0.00    +0.000 A 
ATOM      6  C   UNL     1       3.248   2.150  21.001  0.00  0.00    +0.000 A 
ATOM      7  C   UNL     1       4.300   2.844  20.414  0.00  0.00    +0.000 A 
ATOM      8  C   UNL     1       4.030   3.871  19.495  0.00  0.00    +0.000 A 
ATOM      9  S   UNL     1       5.424   4.721  18.804  0.00  0.00    +0.000 S 
ATOM     10  O   UNL     1       6.246   3.745  18.129  0.00  0.00    +0.000 OA
ATOM     11  O   UNL     1       5.950   5.564  19.857  0.00  0.00    +0.000 OA
ATOM     12  N   UNL     1       4.722   5.717  17.636  0.00  0.00    +0.000 NA
ATOM     13  C   UNL     1       3.528   6.429  18.146  0.00  0.00    +0.000 C 
ENDROOT
BRANCH  12  14
ATOM     14  C   UNL     1       5.604   6.281  16.602  0.00  0.00    +0.000 C 
BRANCH  14  15
ATOM     15  C   UNL     1       5.866   5.493  15.333  0.00  0.00    +0.000 A 
ATOM     16  C   UNL     1       7.093   5.597  14.658  0.00  0.00    +0.000 A 
ATOM     17  C   UNL     1       7.384   4.767  13.568  0.00  0.00    +0.000 A 
ATOM     18  C   UNL     1       6.447   3.837  13.124  0.00  0.00    +0.000 A 
ATOM     19  C   UNL     1       5.218   3.740  13.762  0.00  0.00    +0.000 A 
ATOM     20  C   UNL     1       4.941   4.545  14.869  0.00  0.00    +0.000 A 
ENDBRANCH  14  15
ENDBRANCH  12  14
BRANCH  13  21
ATOM     21  C   UNL     1       3.112   7.723  17.422  0.00  0.00    +0.000 C 
BRANCH  21  22
ATOM     22  O   UNL     1       1.782   8.164  17.750  0.00  0.00    +0.000 OA
BRANCH  22  23
ATOM     23  C   UNL     1       1.749   9.507  18.246  0.00  0.00    +0.000 C 
BRANCH  23  24
ATOM     24  C   UNL     1       1.135   9.574  19.621  0.00  0.00    +0.000 A 
ATOM     25  C   UNL     1       1.254   8.513  20.525  0.00  0.00    +0.000 A 
ATOM     26  C   UNL     1       0.749   8.626  21.822  0.00  0.00    +0.000 A 
ATOM     27  C   UNL     1       0.139   9.809  22.232  0.00  0.00    +0.000 A 
ATOM     28  C   UNL     1       0.029  10.878  21.347  0.00  0.00    +0.000 A 
ATOM     29  C   UNL     1       0.527  10.765  20.047  0.00  0.00    +0.000 A 
ENDBRANCH  23  24
ENDBRANCH  22  23
ENDBRANCH  21  22
ENDBRANCH  13  21
TORSDOF 6
ENDMDL
MODEL 7
REMARK VINA RESULT:      -6.9      4.176      9.205
REMARK  Name = 
REMARK  6 active torsions:
REMARK  status: ('A' for Active; 'I' for Inactive)
REMARK    1  A    between atoms: N_12  and  C_13
REMARK    2  A    between atoms: C_13  and  C_14
REMARK    3  A    between atoms: C_20  and  C_21
REMARK    4  A    between atoms: C_21  and  O_22
REMARK    5  A    between atoms: O_22  and  C_23
REMARK    6  A    between atoms: C_23  and  C_24
REMARK                            x       y       z     vdW  Elec       q    Type
REMARK                         _______ _______ _______ _____ _____    ______ ____
ROOT
ATOM      1  C   UNL     1       1.308   5.502  17.684  0.00  0.00    +0.000 C 
ATOM      2  C   UNL     1       2.464   5.430  18.376  0.00  0.00    +0.000 C 
ATOM      3  C   UNL     1       2.735   4.275  19.276  0.00  0.00    +0.000 A 
ATOM      4  C   UNL     1       1.690   3.602  19.935  0.00  0.00    +0.000 A 
ATOM      5  C   UNL     1       1.946   2.533  20.804  0.00  0.00    +0.000 A 
ATOM      6  C   UNL     1       3.256   2.127  21.049  0.00  0.00    +0.000 A 
ATOM      7  C   UNL     1       4.309   2.784  20.423  0.00  0.00    +0.000 A 
ATOM      8  C   UNL     1       4.044   3.845  19.543  0.00  0.00    +0.000 A 
ATOM      9  S   UNL     1       5.442   4.645  18.800  0.00  0.00    +0.000 S 
ATOM     10  O   UNL     1       6.178   3.648  18.061  0.00  0.00    +0.000 OA
ATOM     11  O   UNL     1       6.061   5.435  19.843  0.00  0.00    +0.000 OA
ATOM     12  N   UNL     1       4.731   5.703  17.694  0.00  0.00    +0.000 NA
ATOM     13  C   UNL     1       3.601   6.459  18.282  0.00  0.00    +0.000 C 
ENDROOT
BRANCH  12  14
ATOM     14  C   UNL     1       5.585   6.251  16.628  0.00  0.00    +0.000 C 
BRANCH  14  15
ATOM     15  C   UNL     1       5.939   5.383  15.435  0.00  0.00    +0.000 A 
ATOM     16  C   UNL     1       4.987   4.531  14.853  0.00  0.00    +0.000 A 
ATOM     17  C   UNL     1       5.273   3.838  13.671  0.00  0.00    +0.000 A 
ATOM     18  C   UNL     1       6.520   3.968  13.065  0.00  0.00    +0.000 A 
ATOM     19  C   UNL     1       7.483   4.785  13.642  0.00  0.00    +0.000 A 
ATOM     20  C   UNL     1       7.186   5.502  14.802  0.00  0.00    +0.000 A 
ENDBRANCH  14  15
ENDBRANCH  12  14
BRANCH  13  21
ATOM     21  C   UNL     1       3.213   7.789  17.610  0.00  0.00    +0.000 C 
BRANCH  21  22
ATOM     22  O   UNL     1       2.441   8.658  18.459  0.00  0.00    +0.000 OA
BRANCH  22  23
ATOM     23  C   UNL     1       1.678   9.621  17.721  0.00  0.00    +0.000 C 
BRANCH  23  24
ATOM     24  C   UNL     1       0.609  10.251  18.576  0.00  0.00    +0.000 A 
ATOM     25  C   UNL     1       0.927  10.946  19.748  0.00  0.00    +0.000 A 
ATOM     26  C   UNL     1      -0.069  11.593  20.482  0.00  0.00    +0.000 A 
ATOM     27  C   UNL     1      -1.389  11.568  20.040  0.00  0.00    +0.000 A 
ATOM     28  C   UNL     1      -1.717  10.893  18.867  0.00  0.00    +0.000 A 
ATOM     29  C   UNL     1      -0.723  10.239  18.134  0.00  0.00    +0.000 A 
ENDBRANCH  23  24
ENDBRANCH  22  23
ENDBRANCH  21  22
ENDBRANCH  13  21
TORSDOF 6
ENDMDL
MODEL 8
REMARK VINA RESULT:      -6.9      3.305      6.318
REMARK  Name = 
REMARK  6 active torsions:
REMARK  status: ('A' for Active; 'I' for Inactive)
REMARK    1  A    between atoms: N_12  and  C_13
REMARK    2  A    between atoms: C_13  and  C_14
REMARK    3  A    between atoms: C_20  and  C_21
REMARK    4  A    between atoms: C_21  and  O_22
REMARK    5  A    between atoms: O_22  and  C_23
REMARK    6  A    between atoms: C_23  and  C_24
REMARK                            x       y       z     vdW  Elec       q    Type
REMARK                         _______ _______ _______ _____ _____    ______ ____
ROOT
ATOM      1  C   UNL     1      -0.374  10.308  22.354  0.00  0.00    +0.000 C 
ATOM      2  C   UNL     1      -0.515  11.589  21.957  0.00  0.00    +0.000 C 
ATOM      3  C   UNL     1      -1.459  12.499  22.663  0.00  0.00    +0.000 A 
ATOM      4  C   UNL     1      -2.631  12.009  23.268  0.00  0.00    +0.000 A 
ATOM      5  C   UNL     1      -3.534  12.868  23.908  0.00  0.00    +0.000 A 
ATOM      6  C   UNL     1      -3.295  14.240  23.938  0.00  0.00    +0.000 A 
ATOM      7  C   UNL     1      -2.153  14.754  23.334  0.00  0.00    +0.000 A 
ATOM      8  C   UNL     1      -1.247  13.885  22.706  0.00  0.00    +0.000 A 
ATOM      9  S   UNL     1       0.175  14.620  21.942  0.00  0.00    +0.000 S 
ATOM     10  O   UNL     1       0.903  15.337  22.962  0.00  0.00    +0.000 OA
ATOM     11  O   UNL     1      -0.299  15.272  20.741  0.00  0.00    +0.000 OA
ATOM     12  N   UNL     1       1.095  13.281  21.483  0.00  0.00    +0.000 NA
ATOM     13  C   UNL     1       0.280  12.240  20.815  0.00  0.00    +0.000 C 
ENDROOT
BRANCH  12  14
ATOM     14  C   UNL     1       2.514  13.504  21.168  0.00  0.00    +0.000 C 
BRANCH  14  15
ATOM     15  C   UNL     1       2.894  14.534  20.121  0.00  0.00    +0.000 A 
ATOM     16  C   UNL     1       2.558  14.349  18.770  0.00  0.00    +0.000 A 
ATOM     17  C   UNL     1       2.785  15.361  17.830  0.00  0.00    +0.000 A 
ATOM     18  C   UNL     1       3.370  16.564  18.220  0.00  0.00    +0.000 A 
ATOM     19  C   UNL     1       3.734  16.753  19.547  0.00  0.00    +0.000 A 
ATOM     20  C   UNL     1       3.477  15.756  20.489  0.00  0.00    +0.000 A 
ENDBRANCH  14  15
ENDBRANCH  12  14
BRANCH  13  21
ATOM     21  C   UNL     1       1.015  11.248  19.894  0.00  0.00    +0.000 C 
BRANCH  21  22
ATOM     22  O   UNL     1       0.447  11.159  18.575  0.00  0.00    +0.000 OA
BRANCH  22  23
ATOM     23  C   UNL     1      -0.376   9.999  18.402  0.00  0.00    +0.000 C 
BRANCH  23  24
ATOM     24  C   UNL     1      -1.747  10.364  17.894  0.00  0.00    +0.000 A 
ATOM     25  C   UNL     1      -2.603  11.188  18.633  0.00  0.00    +0.000 A 
ATOM     26  C   UNL     1      -3.836  11.582  18.109  0.00  0.00    +0.000 A 
ATOM     27  C   UNL     1      -4.216  11.170  16.834  0.00  0.00    +0.000 A 
ATOM     28  C   UNL     1      -3.367  10.363  16.082  0.00  0.00    +0.000 A 
ATOM     29  C   UNL     1      -2.135   9.962  16.606  0.00  0.00    +0.000 A 
ENDBRANCH  23  24
ENDBRANCH  22  23
ENDBRANCH  21  22
ENDBRANCH  13  21
TORSDOF 6
ENDMDL
MODEL 9
REMARK VINA RESULT:      -6.9      1.605      2.257
REMARK  Name = 
REMARK  6 active torsions:
REMARK  status: ('A' for Active; 'I' for Inactive)
REMARK    1  A    between atoms: N_12  and  C_13
REMARK    2  A    between atoms: C_13  and  C_14
REMARK    3  A    between atoms: C_20  and  C_21
REMARK    4  A    between atoms: C_21  and  O_22
REMARK    5  A    between atoms: O_22  and  C_23
REMARK    6  A    between atoms: C_23  and  C_24
REMARK                            x       y       z     vdW  Elec       q    Type
REMARK                         _______ _______ _______ _____ _____    ______ ____
ROOT
ATOM      1  C   UNL     1       1.986  10.959  17.960  0.00  0.00    +0.000 C 
ATOM      2  C   UNL     1       1.623  11.871  18.886  0.00  0.00    +0.000 C 
ATOM      3  C   UNL     1       2.141  13.266  18.816  0.00  0.00    +0.000 A 
ATOM      4  C   UNL     1       3.409  13.548  18.276  0.00  0.00    +0.000 A 
ATOM      5  C   UNL     1       3.908  14.856  18.237  0.00  0.00    +0.000 A 
ATOM      6  C   UNL     1       3.159  15.909  18.755  0.00  0.00    +0.000 A 
ATOM      7  C   UNL     1       1.909  15.657  19.310  0.00  0.00    +0.000 A 
ATOM      8  C   UNL     1       1.409  14.346  19.334  0.00  0.00    +0.000 A 
ATOM      9  S   UNL     1      -0.184  14.103  20.075  0.00  0.00    +0.000 S 
ATOM     10  O   UNL     1      -1.135  14.912  19.350  0.00  0.00    +0.000 OA
ATOM     11  O   UNL     1       0.006  14.243  21.503  0.00  0.00    +0.000 OA
ATOM     12  N   UNL     1      -0.513  12.481  19.746  0.00  0.00    +0.000 NA
ATOM     13  C   UNL     1       0.642  11.600  20.036  0.00  0.00    +0.000 C 
ENDROOT
BRANCH  12  14
ATOM     14  C   UNL     1      -1.908  12.029  19.871  0.00  0.00    +0.000 C 
BRANCH  14  15
ATOM     15  C   UNL     1      -2.660  11.577  18.634  0.00  0.00    +0.000 A 
ATOM     16  C   UNL     1      -4.054  11.718  18.543  0.00  0.00    +0.000 A 
ATOM     17  C   UNL     1      -4.728  11.429  17.350  0.00  0.00    +0.000 A 
ATOM     18  C   UNL     1      -4.023  10.976  16.238  0.00  0.00    +0.000 A 
ATOM     19  C   UNL     1      -2.647  10.804  16.318  0.00  0.00    +0.000 A 
ATOM     20  C   UNL     1      -1.972  11.123  17.498  0.00  0.00    +0.000 A 
ENDBRANCH  14  15
ENDBRANCH  12  14
BRANCH  13  21
ATOM     21  C   UNL     1       0.349  10.112  20.298  0.00  0.00    +0.000 C 
BRANCH  21  22
ATOM     22  O   UNL     1       1.481   9.384  20.809  0.00  0.00    +0.000 OA
BRANCH  22  23
ATOM     23  C   UNL     1       1.154   8.042  21.187  0.00  0.00    +0.000 C 
BRANCH  23  24
ATOM     24  C   UNL     1       1.817   7.035  20.282  0.00  0.00    +0.000 A 
ATOM     25  C   UNL     1       1.785   5.666  20.567  0.00  0.00    +0.000 A 
ATOM     26  C   UNL     1       2.333   4.742  19.675  0.00  0.00    +0.000 A 
ATOM     27  C   UNL     1       2.902   5.179  18.480  0.00  0.00    +0.000 A 
ATOM     28  C   UNL     1       2.926   6.538  18.178  0.00  0.00    +0.000 A 
ATOM     29  C   UNL     1       2.384   7.465  19.072  0.00  0.00    +0.000 A 
ENDBRANCH  23  24
ENDBRANCH  22  23
ENDBRANCH  21  22
ENDBRANCH  13  21
TORSDOF 6
ENDMDL
