MODEL 1
REMARK VINA RESULT:      -8.0      0.000      0.000
REMARK  Name = 
REMARK  6 active torsions:
REMARK  status: ('A' for Active; 'I' for Inactive)
REMARK    1  A    between atoms: C_1  and  C_2
REMARK    2  A    between atoms: C_2  and  C_4
REMARK    3  A    between atoms: C_4  and  C_5
REMARK    4  A    between atoms: C_5  and  C_6
REMARK    5  A    between atoms: N_7  and  C_8
REMARK    6  A    between atoms: C_11  and  C_12
REMARK                            x       y       z     vdW  Elec       q    Type
REMARK                         _______ _______ _______ _____ _____    ______ ____
ROOT
ATOM      1  C   UNL     1       4.127   6.065  17.732  0.00  0.00    +0.000 A 
ATOM      2  C   UNL     1       3.698   7.323  17.313  0.00  0.00    +0.000 A 
ATOM      3  C   UNL     1       2.819   8.084  18.095  0.00  0.00    +0.000 A 
ATOM      4  C   UNL     1       2.286   7.582  19.289  0.00  0.00    +0.000 A 
ATOM      5  C   UNL     1       2.672   6.297  19.687  0.00  0.00    +0.000 A 
ATOM      6  C   UNL     1       3.585   5.557  18.917  0.00  0.00    +0.000 A 
ENDROOT
BRANCH   4   7
ATOM      7  C   UNL     1       1.370   8.427  20.067  0.00  0.00    +0.000 A 
ATOM      8  N   UNL     1       0.786   9.531  19.630  0.00  0.00    +0.000 NA
ATOM      9  C   UNL     1       0.103  10.056  20.698  0.00  0.00    +0.000 A 
ATOM     10  C   UNL     1      -0.644  11.239  20.797  0.00  0.00    +0.000 A 
ATOM     11  C   UNL     1      -1.205  11.576  22.035  0.00  0.00    +0.000 A 
ATOM     12  C   UNL     1      -1.042  10.744  23.145  0.00  0.00    +0.000 A 
ATOM     13  C   UNL     1      -0.325   9.543  23.057  0.00  0.00    +0.000 A 
ATOM     14  C   UNL     1       0.238   9.243  21.814  0.00  0.00    +0.000 A 
ATOM     15  N   UNL     1       1.004   8.196  21.374  0.00  0.00    +0.000 N 
ATOM     16  H   UNL     1       1.287   7.407  21.933  0.00  0.00    +0.000 HD
ENDBRANCH   4   7
BRANCH   1  19
ATOM     17  C   UNL     1       6.287   5.269  17.074  0.00  0.00    +0.000 C 
ATOM     18  C   UNL     1       7.106   6.204  17.932  0.00  0.00    +0.000 C 
ATOM     19  N   UNL     1       4.989   5.237  16.991  0.00  0.00    +0.000 NA
BRANCH  17  20
ATOM     20  C   UNL     1       7.060   4.312  16.190  0.00  0.00    +0.000 C 
BRANCH  20  22
ATOM     21  C   UNL     1       6.126   3.931  13.817  0.00  0.00    +0.000 C 
ATOM     22  C   UNL     1       7.049   4.693  14.731  0.00  0.00    +0.000 C 
ATOM     23  O   UNL     1       7.767   5.598  14.306  0.00  0.00    +0.000 OA
ENDBRANCH  20  22
ENDBRANCH  17  20
ENDBRANCH   1  19
TORSDOF 4
ENDMDL
MODEL 2
REMARK VINA RESULT:      -7.9      0.131      1.027
REMARK  Name = 
REMARK  6 active torsions:
REMARK  status: ('A' for Active; 'I' for Inactive)
REMARK    1  A    between atoms: C_1  and  C_2
REMARK    2  A    between atoms: C_2  and  C_4
REMARK    3  A    between atoms: C_4  and  C_5
REMARK    4  A    between atoms: C_5  and  C_6
REMARK    5  A    between atoms: N_7  and  C_8
REMARK    6  A    between atoms: C_11  and  C_12
REMARK                            x       y       z     vdW  Elec       q    Type
REMARK                         _______ _______ _______ _____ _____    ______ ____
ROOT
ATOM      1  C   UNL     1       4.047   5.949  17.779  0.00  0.00    +0.000 A 
ATOM      2  C   UNL     1       3.557   5.589  19.032  0.00  0.00    +0.000 A 
ATOM      3  C   UNL     1       2.673   6.424  19.730  0.00  0.00    +0.000 A 
ATOM      4  C   UNL     1       2.307   7.679  19.227  0.00  0.00    +0.000 A 
ATOM      5  C   UNL     1       2.840   8.068  17.992  0.00  0.00    +0.000 A 
ATOM      6  C   UNL     1       3.693   7.208  17.281  0.00  0.00    +0.000 A 
ENDROOT
BRANCH   4   7
ATOM      7  C   UNL     1       1.377   8.509  20.003  0.00  0.00    +0.000 A 
ATOM      8  N   UNL     1       0.746   9.581  19.552  0.00  0.00    +0.000 NA
ATOM      9  C   UNL     1       0.064  10.107  20.621  0.00  0.00    +0.000 A 
ATOM     10  C   UNL     1      -0.722  11.265  20.707  0.00  0.00    +0.000 A 
ATOM     11  C   UNL     1      -1.272  11.612  21.948  0.00  0.00    +0.000 A 
ATOM     12  C   UNL     1      -1.057  10.813  23.074  0.00  0.00    +0.000 A 
ATOM     13  C   UNL     1      -0.300   9.636  22.999  0.00  0.00    +0.000 A 
ATOM     14  C   UNL     1       0.250   9.327  21.753  0.00  0.00    +0.000 A 
ATOM     15  N   UNL     1       1.045   8.296  21.322  0.00  0.00    +0.000 N 
ATOM     16  H   UNL     1       1.366   7.532  21.893  0.00  0.00    +0.000 HD
ENDBRANCH   4   7
BRANCH   1  19
ATOM     17  C   UNL     1       6.242   5.189  17.197  0.00  0.00    +0.000 C 
ATOM     18  C   UNL     1       7.009   6.049  18.174  0.00  0.00    +0.000 C 
ATOM     19  N   UNL     1       4.952   5.174  17.031  0.00  0.00    +0.000 NA
BRANCH  17  20
ATOM     20  C   UNL     1       7.066   4.297  16.291  0.00  0.00    +0.000 C 
BRANCH  20  22
ATOM     21  C   UNL     1       6.070   3.963  13.937  0.00  0.00    +0.000 C 
ATOM     22  C   UNL     1       7.022   4.703  14.840  0.00  0.00    +0.000 C 
ATOM     23  O   UNL     1       7.737   5.609  14.412  0.00  0.00    +0.000 OA
ENDBRANCH  20  22
ENDBRANCH  17  20
ENDBRANCH   1  19
TORSDOF 4
ENDMDL
MODEL 3
REMARK VINA RESULT:      -7.7      0.428      1.309
REMARK  Name = 
REMARK  6 active torsions:
REMARK  status: ('A' for Active; 'I' for Inactive)
REMARK    1  A    between atoms: C_1  and  C_2
REMARK    2  A    between atoms: C_2  and  C_4
REMARK    3  A    between atoms: C_4  and  C_5
REMARK    4  A    between atoms: C_5  and  C_6
REMARK    5  A    between atoms: N_7  and  C_8
REMARK    6  A    between atoms: C_11  and  C_12
REMARK                            x       y       z     vdW  Elec       q    Type
REMARK                         _______ _______ _______ _____ _____    ______ ____
ROOT
ATOM      1  C   UNL     1       3.740   6.112  17.897  0.00  0.00    +0.000 A 
ATOM      2  C   UNL     1       3.346   7.367  17.436  0.00  0.00    +0.000 A 
ATOM      3  C   UNL     1       2.576   8.222  18.235  0.00  0.00    +0.000 A 
ATOM      4  C   UNL     1       2.115   7.821  19.496  0.00  0.00    +0.000 A 
ATOM      5  C   UNL     1       2.463   6.540  19.941  0.00  0.00    +0.000 A 
ATOM      6  C   UNL     1       3.269   5.705  19.151  0.00  0.00    +0.000 A 
ENDROOT
BRANCH   4   7
ATOM      7  C   UNL     1       1.312   8.761  20.288  0.00  0.00    +0.000 A 
ATOM      8  N   UNL     1       1.001   8.619  21.566  0.00  0.00    +0.000 NA
ATOM      9  C   UNL     1       0.163   9.659  21.880  0.00  0.00    +0.000 A 
ATOM     10  C   UNL     1      -0.494   9.955  23.082  0.00  0.00    +0.000 A 
ATOM     11  C   UNL     1      -1.348  11.065  23.124  0.00  0.00    +0.000 A 
ATOM     12  C   UNL     1      -1.528  11.871  21.997  0.00  0.00    +0.000 A 
ATOM     13  C   UNL     1      -0.855  11.608  20.797  0.00  0.00    +0.000 A 
ATOM     14  C   UNL     1      -0.025  10.485  20.781  0.00  0.00    +0.000 A 
ATOM     15  N   UNL     1       0.750   9.921  19.802  0.00  0.00    +0.000 N 
ATOM     16  H   UNL     1       0.855  10.278  18.866  0.00  0.00    +0.000 HD
ENDBRANCH   4   7
BRANCH   1  19
ATOM     17  C   UNL     1       5.794   5.157  17.121  0.00  0.00    +0.000 C 
ATOM     18  C   UNL     1       6.729   6.094  17.849  0.00  0.00    +0.000 C 
ATOM     19  N   UNL     1       4.494   5.194  17.145  0.00  0.00    +0.000 NA
BRANCH  17  20
ATOM     20  C   UNL     1       6.441   4.107  16.242  0.00  0.00    +0.000 C 
BRANCH  20  22
ATOM     21  C   UNL     1       6.024   3.994  13.700  0.00  0.00    +0.000 C 
ATOM     22  C   UNL     1       6.775   4.600  14.857  0.00  0.00    +0.000 C 
ATOM     23  O   UNL     1       7.628   5.470  14.681  0.00  0.00    +0.000 OA
ENDBRANCH  20  22
ENDBRANCH  17  20
ENDBRANCH   1  19
TORSDOF 4
ENDMDL
MODEL 4
REMARK VINA RESULT:      -7.6      0.438      1.661
REMARK  Name = 
REMARK  6 active torsions:
REMARK  status: ('A' for Active; 'I' for Inactive)
REMARK    1  A    between atoms: C_1  and  C_2
REMARK    2  A    between atoms: C_2  and  C_4
REMARK    3  A    between atoms: C_4  and  C_5
REMARK    4  A    between atoms: C_5  and  C_6
REMARK    5  A    between atoms: N_7  and  C_8
REMARK    6  A    between atoms: C_11  and  C_12
REMARK                            x       y       z     vdW  Elec       q    Type
REMARK                         _______ _______ _______ _____ _____    ______ ____
ROOT
ATOM      1  C   UNL     1       3.631   5.885  17.905  0.00  0.00    +0.000 A 
ATOM      2  C   UNL     1       3.146   5.568  19.172  0.00  0.00    +0.000 A 
ATOM      3  C   UNL     1       2.385   6.489  19.905  0.00  0.00    +0.000 A 
ATOM      4  C   UNL     1       2.143   7.781  19.424  0.00  0.00    +0.000 A 
ATOM      5  C   UNL     1       2.675   8.122  18.174  0.00  0.00    +0.000 A 
ATOM      6  C   UNL     1       3.403   7.181  17.428  0.00  0.00    +0.000 A 
ENDROOT
BRANCH   4   7
ATOM      7  C   UNL     1       1.338   8.701  20.237  0.00  0.00    +0.000 A 
ATOM      8  N   UNL     1       1.032   8.531  21.513  0.00  0.00    +0.000 NA
ATOM      9  C   UNL     1       0.189   9.561  21.849  0.00  0.00    +0.000 A 
ATOM     10  C   UNL     1      -0.466   9.830  23.059  0.00  0.00    +0.000 A 
ATOM     11  C   UNL     1      -1.326  10.934  23.125  0.00  0.00    +0.000 A 
ATOM     12  C   UNL     1      -1.514  11.761  22.015  0.00  0.00    +0.000 A 
ATOM     13  C   UNL     1      -0.843  11.525  20.808  0.00  0.00    +0.000 A 
ATOM     14  C   UNL     1      -0.007  10.407  20.768  0.00  0.00    +0.000 A 
ATOM     15  N   UNL     1       0.768   9.867  19.775  0.00  0.00    +0.000 N 
ATOM     16  H   UNL     1       0.869  10.243  18.846  0.00  0.00    +0.000 HD
ENDBRANCH   4   7
BRANCH   1  19
ATOM     17  C   UNL     1       5.718   4.977  17.161  0.00  0.00    +0.000 C 
ATOM     18  C   UNL     1       6.619   5.845  18.007  0.00  0.00    +0.000 C 
ATOM     19  N   UNL     1       4.419   5.023  17.121  0.00  0.00    +0.000 NA
BRANCH  17  20
ATOM     20  C   UNL     1       6.404   3.993  16.235  0.00  0.00    +0.000 C 
BRANCH  20  22
ATOM     21  C   UNL     1       5.919   4.029  13.703  0.00  0.00    +0.000 C 
ATOM     22  C   UNL     1       6.709   4.559  14.871  0.00  0.00    +0.000 C 
ATOM     23  O   UNL     1       7.571   5.424  14.721  0.00  0.00    +0.000 OA
ENDBRANCH  20  22
ENDBRANCH  17  20
ENDBRANCH   1  19
TORSDOF 4
ENDMDL
MODEL 5
REMARK VINA RESULT:      -7.4      5.250      7.683
REMARK  Name = 
REMARK  6 active torsions:
REMARK  status: ('A' for Active; 'I' for Inactive)
REMARK    1  A    between atoms: C_1  and  C_2
REMARK    2  A    between atoms: C_2  and  C_4
REMARK    3  A    between atoms: C_4  and  C_5
REMARK    4  A    between atoms: C_5  and  C_6
REMARK    5  A    between atoms: N_7  and  C_8
REMARK    6  A    between atoms: C_11  and  C_12
REMARK                            x       y       z     vdW  Elec       q    Type
REMARK                         _______ _______ _______ _____ _____    ______ ____
ROOT
ATOM      1  C   UNL     1       6.494   5.717  17.812  0.00  0.00    +0.000 A 
ATOM      2  C   UNL     1       7.586   5.781  18.676  0.00  0.00    +0.000 A 
ATOM      3  C   UNL     1       8.273   6.985  18.884  0.00  0.00    +0.000 A 
ATOM      4  C   UNL     1       7.934   8.147  18.180  0.00  0.00    +0.000 A 
ATOM      5  C   UNL     1       6.873   8.074  17.271  0.00  0.00    +0.000 A 
ATOM      6  C   UNL     1       6.163   6.874  17.099  0.00  0.00    +0.000 A 
ENDROOT
BRANCH   4   7
ATOM      7  C   UNL     1       8.690   9.379  18.441  0.00  0.00    +0.000 A 
ATOM      8  N   UNL     1       8.991  10.301  17.541  0.00  0.00    +0.000 NA
ATOM      9  C   UNL     1       9.784  11.222  18.179  0.00  0.00    +0.000 A 
ATOM     10  C   UNL     1      10.414  12.369  17.678  0.00  0.00    +0.000 A 
ATOM     11  C   UNL     1      11.223  13.120  18.540  0.00  0.00    +0.000 A 
ATOM     12  C   UNL     1      11.386  12.746  19.876  0.00  0.00    +0.000 A 
ATOM     13  C   UNL     1      10.739  11.620  20.401  0.00  0.00    +0.000 A 
ATOM     14  C   UNL     1       9.953  10.881  19.513  0.00  0.00    +0.000 A 
ATOM     15  N   UNL     1       9.213   9.738  19.664  0.00  0.00    +0.000 N 
ATOM     16  H   UNL     1       9.105   9.224  20.523  0.00  0.00    +0.000 HD
ENDBRANCH   4   7
BRANCH   1  19
ATOM     17  C   UNL     1       4.705   4.170  18.186  0.00  0.00    +0.000 C 
ATOM     18  C   UNL     1       4.072   4.886  19.355  0.00  0.00    +0.000 C 
ATOM     19  N   UNL     1       5.771   4.542  17.539  0.00  0.00    +0.000 NA
BRANCH  17  20
ATOM     20  C   UNL     1       4.061   2.865  17.764  0.00  0.00    +0.000 C 
BRANCH  20  22
ATOM     21  C   UNL     1       1.887   2.061  18.892  0.00  0.00    +0.000 C 
ATOM     22  C   UNL     1       2.555   2.888  17.824  0.00  0.00    +0.000 C 
ATOM     23  O   UNL     1       1.897   3.561  17.031  0.00  0.00    +0.000 OA
ENDBRANCH  20  22
ENDBRANCH  17  20
ENDBRANCH   1  19
TORSDOF 4
ENDMDL
MODEL 6
REMARK VINA RESULT:      -7.4      5.228      7.629
REMARK  Name = 
REMARK  6 active torsions:
REMARK  status: ('A' for Active; 'I' for Inactive)
REMARK    1  A    between atoms: C_1  and  C_2
REMARK    2  A    between atoms: C_2  and  C_4
REMARK    3  A    between atoms: C_4  and  C_5
REMARK    4  A    between atoms: C_5  and  C_6
REMARK    5  A    between atoms: N_7  and  C_8
REMARK    6  A    between atoms: C_11  and  C_12
REMARK                            x       y       z     vdW  Elec       q    Type
REMARK                         _______ _______ _______ _____ _____    ______ ____
ROOT
ATOM      1  C   UNL     1       6.486   5.736  17.686  0.00  0.00    +0.000 A 
ATOM      2  C   UNL     1       6.154   6.951  17.089  0.00  0.00    +0.000 A 
ATOM      3  C   UNL     1       6.900   8.110  17.346  0.00  0.00    +0.000 A 
ATOM      4  C   UNL     1       7.959   8.106  18.262  0.00  0.00    +0.000 A 
ATOM      5  C   UNL     1       8.262   6.900  18.905  0.00  0.00    +0.000 A 
ATOM      6  C   UNL     1       7.535   5.734  18.612  0.00  0.00    +0.000 A 
ENDROOT
BRANCH   4   7
ATOM      7  C   UNL     1       8.704   9.351  18.488  0.00  0.00    +0.000 A 
ATOM      8  N   UNL     1       9.001  10.248  17.562  0.00  0.00    +0.000 NA
ATOM      9  C   UNL     1       9.784  11.194  18.174  0.00  0.00    +0.000 A 
ATOM     10  C   UNL     1      10.407  12.331  17.641  0.00  0.00    +0.000 A 
ATOM     11  C   UNL     1      11.207  13.114  18.483  0.00  0.00    +0.000 A 
ATOM     12  C   UNL     1      11.368  12.781  19.830  0.00  0.00    +0.000 A 
ATOM     13  C   UNL     1      10.728  11.666  20.387  0.00  0.00    +0.000 A 
ATOM     14  C   UNL     1       9.952  10.895  19.519  0.00  0.00    +0.000 A 
ATOM     15  N   UNL     1       9.219   9.751  19.701  0.00  0.00    +0.000 N 
ATOM     16  H   UNL     1       9.112   9.262  20.575  0.00  0.00    +0.000 HD
ENDBRANCH   4   7
BRANCH   1  19
ATOM     17  C   UNL     1       4.729   4.189  18.187  0.00  0.00    +0.000 C 
ATOM     18  C   UNL     1       4.115   4.958  19.333  0.00  0.00    +0.000 C 
ATOM     19  N   UNL     1       5.772   4.540  17.493  0.00  0.00    +0.000 NA
BRANCH  17  20
ATOM     20  C   UNL     1       4.092   2.855  17.850  0.00  0.00    +0.000 C 
BRANCH  20  22
ATOM     21  C   UNL     1       1.888   2.104  18.956  0.00  0.00    +0.000 C 
ATOM     22  C   UNL     1       2.585   2.883  17.871  0.00  0.00    +0.000 C 
ATOM     23  O   UNL     1       1.950   3.523  17.033  0.00  0.00    +0.000 OA
ENDBRANCH  20  22
ENDBRANCH  17  20
ENDBRANCH   1  19
TORSDOF 4
ENDMDL
MODEL 7
REMARK VINA RESULT:      -7.2      1.069      1.712
REMARK  Name = 
REMARK  6 active torsions:
REMARK  status: ('A' for Active; 'I' for Inactive)
REMARK    1  A    between atoms: C_1  and  C_2
REMARK    2  A    between atoms: C_2  and  C_4
REMARK    3  A    between atoms: C_4  and  C_5
REMARK    4  A    between atoms: C_5  and  C_6
REMARK    5  A    between atoms: N_7  and  C_8
REMARK    6  A    between atoms: C_11  and  C_12
REMARK                            x       y       z     vdW  Elec       q    Type
REMARK                         _______ _______ _______ _____ _____    ______ ____
ROOT
ATOM      1  C   UNL     1       3.800   6.120  18.179  0.00  0.00    +0.000 A 
ATOM      2  C   UNL     1       3.313   5.856  19.458  0.00  0.00    +0.000 A 
ATOM      3  C   UNL     1       2.411   6.729  20.081  0.00  0.00    +0.000 A 
ATOM      4  C   UNL     1       2.021   7.929  19.474  0.00  0.00    +0.000 A 
ATOM      5  C   UNL     1       2.550   8.224  18.212  0.00  0.00    +0.000 A 
ATOM      6  C   UNL     1       3.422   7.325  17.576  0.00  0.00    +0.000 A 
ENDROOT
BRANCH   4   7
ATOM      7  C   UNL     1       1.072   8.802  20.176  0.00  0.00    +0.000 A 
ATOM      8  N   UNL     1       0.465   9.855  19.652  0.00  0.00    +0.000 NA
ATOM      9  C   UNL     1      -0.248  10.437  20.670  0.00  0.00    +0.000 A 
ATOM     10  C   UNL     1      -1.027  11.603  20.672  0.00  0.00    +0.000 A 
ATOM     11  C   UNL     1      -1.616  12.014  21.875  0.00  0.00    +0.000 A 
ATOM     12  C   UNL     1      -1.447  11.269  23.045  0.00  0.00    +0.000 A 
ATOM     13  C   UNL     1      -0.697  10.085  23.054  0.00  0.00    +0.000 A 
ATOM     14  C   UNL     1      -0.108   9.712  21.844  0.00  0.00    +0.000 A 
ATOM     15  N   UNL     1       0.693   8.656  21.492  0.00  0.00    +0.000 N 
ATOM     16  H   UNL     1       0.988   7.919  22.110  0.00  0.00    +0.000 HD
ENDBRANCH   4   7
BRANCH   1  19
ATOM     17  C   UNL     1       4.438   4.137  16.997  0.00  0.00    +0.000 C 
ATOM     18  C   UNL     1       3.105   3.431  17.073  0.00  0.00    +0.000 C 
ATOM     19  N   UNL     1       4.722   5.303  17.501  0.00  0.00    +0.000 NA
BRANCH  17  20
ATOM     20  C   UNL     1       5.561   3.388  16.310  0.00  0.00    +0.000 C 
BRANCH  20  22
ATOM     21  C   UNL     1       5.939   4.520  14.025  0.00  0.00    +0.000 C 
ATOM     22  C   UNL     1       6.419   4.259  15.429  0.00  0.00    +0.000 C 
ATOM     23  O   UNL     1       7.472   4.742  15.845  0.00  0.00    +0.000 OA
ENDBRANCH  20  22
ENDBRANCH  17  20
ENDBRANCH   1  19
TORSDOF 4
ENDMDL
MODEL 8
REMARK VINA RESULT:      -7.1      0.881      1.165
REMARK  Name = 
REMARK  6 active torsions:
REMARK  status: ('A' for Active; 'I' for Inactive)
REMARK    1  A    between atoms: C_1  and  C_2
REMARK    2  A    between atoms: C_2  and  C_4
REMARK    3  A    between atoms: C_4  and  C_5
REMARK    4  A    between atoms: C_5  and  C_6
REMARK    5  A    between atoms: N_7  and  C_8
REMARK    6  A    between atoms: C_11  and  C_12
REMARK                            x       y       z     vdW  Elec       q    Type
REMARK                         _______ _______ _______ _____ _____    ______ ____
ROOT
ATOM      1  C   UNL     1       4.126   6.272  17.803  0.00  0.00    +0.000 A 
ATOM      2  C   UNL     1       3.570   7.450  17.307  0.00  0.00    +0.000 A 
ATOM      3  C   UNL     1       2.664   8.199  18.070  0.00  0.00    +0.000 A 
ATOM      4  C   UNL     1       2.231   7.757  19.327  0.00  0.00    +0.000 A 
ATOM      5  C   UNL     1       2.745   6.547  19.806  0.00  0.00    +0.000 A 
ATOM      6  C   UNL     1       3.684   5.823  19.053  0.00  0.00    +0.000 A 
ENDROOT
BRANCH   4   7
ATOM      7  C   UNL     1       1.281   8.586  20.080  0.00  0.00    +0.000 A 
ATOM      8  N   UNL     1       0.655   9.654  19.613  0.00  0.00    +0.000 NA
ATOM      9  C   UNL     1      -0.051  10.180  20.666  0.00  0.00    +0.000 A 
ATOM     10  C   UNL     1      -0.844  11.335  20.732  0.00  0.00    +0.000 A 
ATOM     11  C   UNL     1      -1.422  11.682  21.959  0.00  0.00    +0.000 A 
ATOM     12  C   UNL     1      -1.228  10.887  23.092  0.00  0.00    +0.000 A 
ATOM     13  C   UNL     1      -0.465   9.713  23.036  0.00  0.00    +0.000 A 
ATOM     14  C   UNL     1       0.113   9.403  21.803  0.00  0.00    +0.000 A 
ATOM     15  N   UNL     1       0.921   8.375  21.393  0.00  0.00    +0.000 N 
ATOM     16  H   UNL     1       1.233   7.613  21.972  0.00  0.00    +0.000 HD
ENDBRANCH   4   7
BRANCH   1  19
ATOM     17  C   UNL     1       4.750   4.258  16.671  0.00  0.00    +0.000 C 
ATOM     18  C   UNL     1       3.462   3.501  16.898  0.00  0.00    +0.000 C 
ATOM     19  N   UNL     1       5.023   5.459  17.088  0.00  0.00    +0.000 NA
BRANCH  17  20
ATOM     20  C   UNL     1       5.844   3.519  15.926  0.00  0.00    +0.000 C 
BRANCH  20  22
ATOM     21  C   UNL     1       5.955   3.898  13.379  0.00  0.00    +0.000 C 
ATOM     22  C   UNL     1       6.409   4.291  14.761  0.00  0.00    +0.000 C 
ATOM     23  O   UNL     1       7.208   5.210  14.934  0.00  0.00    +0.000 OA
ENDBRANCH  20  22
ENDBRANCH  17  20
ENDBRANCH   1  19
TORSDOF 4
ENDMDL
MODEL 9
REMARK VINA RESULT:      -7.1      5.238      7.577
REMARK  Name = 
REMARK  6 active torsions:
REMARK  status: ('A' for Active; 'I' for Inactive)
REMARK    1  A    between atoms: C_1  and  C_2
REMARK    2  A    between atoms: C_2  and  C_4
REMARK    3  A    between atoms: C_4  and  C_5
REMARK    4  A    between atoms: C_5  and  C_6
REMARK    5  A    between atoms: N_7  and  C_8
REMARK    6  A    between atoms: C_11  and  C_12
REMARK                            x       y       z     vdW  Elec       q    Type
REMARK                         _______ _______ _______ _____ _____    ______ ____
ROOT
ATOM      1  C   UNL     1       6.391   5.720  17.774  0.00  0.00    +0.000 A 
ATOM      2  C   UNL     1       7.533   5.781  18.570  0.00  0.00    +0.000 A 
ATOM      3  C   UNL     1       8.217   6.989  18.760  0.00  0.00    +0.000 A 
ATOM      4  C   UNL     1       7.821   8.161  18.106  0.00  0.00    +0.000 A 
ATOM      5  C   UNL     1       6.705   8.093  17.263  0.00  0.00    +0.000 A 
ATOM      6  C   UNL     1       6.001   6.887  17.109  0.00  0.00    +0.000 A 
ENDROOT
BRANCH   4   7
ATOM      7  C   UNL     1       8.576   9.397  18.346  0.00  0.00    +0.000 A 
ATOM      8  N   UNL     1       9.351   9.633  19.393  0.00  0.00    +0.000 NA
ATOM      9  C   UNL     1       9.779  10.931  19.274  0.00  0.00    +0.000 A 
ATOM     10  C   UNL     1      10.579  11.699  20.132  0.00  0.00    +0.000 A 
ATOM     11  C   UNL     1      10.829  13.036  19.799  0.00  0.00    +0.000 A 
ATOM     12  C   UNL     1      10.308  13.590  18.627  0.00  0.00    +0.000 A 
ATOM     13  C   UNL     1       9.533  12.829  17.742  0.00  0.00    +0.000 A 
ATOM     14  C   UNL     1       9.286  11.505  18.111  0.00  0.00    +0.000 A 
ATOM     15  N   UNL     1       8.568  10.499  17.519  0.00  0.00    +0.000 N 
ATOM     16  H   UNL     1       8.080  10.571  16.641  0.00  0.00    +0.000 HD
ENDBRANCH   4   7
BRANCH   1  19
ATOM     17  C   UNL     1       4.636   4.150  18.212  0.00  0.00    +0.000 C 
ATOM     18  C   UNL     1       4.051   4.847  19.418  0.00  0.00    +0.000 C 
ATOM     19  N   UNL     1       5.666   4.541  17.520  0.00  0.00    +0.000 NA
BRANCH  17  20
ATOM     20  C   UNL     1       3.985   2.845  17.804  0.00  0.00    +0.000 C 
BRANCH  20  22
ATOM     21  C   UNL     1       1.815   2.034  18.936  0.00  0.00    +0.000 C 
ATOM     22  C   UNL     1       2.479   2.872  17.875  0.00  0.00    +0.000 C 
ATOM     23  O   UNL     1       1.819   3.558  17.095  0.00  0.00    +0.000 OA
ENDBRANCH  20  22
ENDBRANCH  17  20
ENDBRANCH   1  19
TORSDOF 4
ENDMDL
