MODEL 1
REMARK VINA RESULT:      -8.0      0.000      0.000
REMARK  Name = 
REMARK  10 active torsions:
REMARK  status: ('A' for Active; 'I' for Inactive)
REMARK    1  A    between atoms: C_1  and  O_2
REMARK    2  A    between atoms: O_2  and  C_3
REMARK    3  A    between atoms: C_6  and  C_7
REMARK    4  A    between atoms: C_7  and  C_8
REMARK    5  A    between atoms: C_8  and  N_9
REMARK    6  A    between atoms: C_10  and  C_12
REMARK    7  A    between atoms: C_12  and  C_13
REMARK    8  A    between atoms: C_13  and  N_14
REMARK    9  A    between atoms: C_29  and  O_30
REMARK   10  A    between atoms: O_30  and  C_31
REMARK                            x       y       z     vdW  Elec       q    Type
REMARK                         _______ _______ _______ _____ _____    ______ ____
ROOT
ATOM      1  N   UNL     1       6.861   6.969  17.971  0.00  0.00    +0.000 N 
ATOM      2  C   UNL     1       6.897   5.914  17.074  0.00  0.00    +0.000 C 
ATOM      3  O   UNL     1       7.517   5.960  16.017  0.00  0.00    +0.000 OA
ATOM      4  H   UNL     1       6.182   6.945  18.722  0.00  0.00    +0.000 HD
ENDROOT
BRANCH   1   5
ATOM      5  C   UNL     1       7.527   8.219  17.645  0.00  0.00    +0.000 C 
BRANCH   5   6
ATOM      6  C   UNL     1       8.717   8.533  18.557  0.00  0.00    +0.000 C 
BRANCH   6  10
ATOM      7  C   UNL     1       9.092  12.819  19.053  0.00  0.00    +0.000 A 
ATOM      8  C   UNL     1       8.723  12.268  17.813  0.00  0.00    +0.000 A 
ATOM      9  C   UNL     1       8.612  10.884  17.639  0.00  0.00    +0.000 A 
ATOM     10  C   UNL     1       8.931  10.024  18.685  0.00  0.00    +0.000 A 
ATOM     11  C   UNL     1       9.407  10.577  19.886  0.00  0.00    +0.000 A 
ATOM     12  C   UNL     1       9.504  11.963  20.082  0.00  0.00    +0.000 A 
BRANCH   7  14
ATOM     13  C   UNL     1       8.895  14.950  18.056  0.00  0.00    +0.000 C 
ATOM     14  O   UNL     1       9.049  14.176  19.253  0.00  0.00    +0.000 OA
ENDBRANCH   7  14
BRANCH  12  15
ATOM     15  O   UNL     1       9.979  12.248  21.330  0.00  0.00    +0.000 OA
ATOM     16  C   UNL     1       9.082  12.562  22.381  0.00  0.00    +0.000 C 
ENDBRANCH  12  15
ENDBRANCH   6  10
ENDBRANCH   5   6
ENDBRANCH   1   5
BRANCH   2  17
ATOM     17  C   UNL     1       6.107   4.706  17.530  0.00  0.00    +0.000 C 
BRANCH  17  18
ATOM     18  C   UNL     1       4.651   4.785  17.071  0.00  0.00    +0.000 C 
BRANCH  18  19
ATOM     19  N   UNL     1       3.779   5.387  18.087  0.00  0.00    +0.000 N 
ATOM     20  C   UNL     1       3.379   6.717  17.939  0.00  0.00    +0.000 A 
ATOM     21  O   UNL     1       3.704   7.404  16.977  0.00  0.00    +0.000 OA
ATOM     22  C   UNL     1       2.547   7.227  19.001  0.00  0.00    +0.000 A 
ATOM     23  C   UNL     1       2.035   8.500  19.187  0.00  0.00    +0.000 A 
ATOM     24  C   UNL     1       1.276   8.484  20.379  0.00  0.00    +0.000 A 
ATOM     25  C   UNL     1       1.342   7.204  20.888  0.00  0.00    +0.000 A 
ATOM     26  N   UNL     1       2.123   6.444  20.046  0.00  0.00    +0.000 N 
ATOM     27  C   UNL     1       2.480   5.093  20.146  0.00  0.00    +0.000 A 
ATOM     28  C   UNL     1       2.025   4.272  21.178  0.00  0.00    +0.000 A 
ATOM     29  C   UNL     1       2.427   2.944  21.203  0.00  0.00    +0.000 A 
ATOM     30  C   UNL     1       3.267   2.495  20.197  0.00  0.00    +0.000 A 
ATOM     31  N   UNL     1       3.712   3.275  19.186  0.00  0.00    +0.000 NA
ATOM     32  C   UNL     1       3.321   4.572  19.158  0.00  0.00    +0.000 A 
ENDBRANCH  18  19
ENDBRANCH  17  18
ENDBRANCH   2  17
TORSDOF 8
ENDMDL
MODEL 2
REMARK VINA RESULT:      -7.9      1.431      2.893
REMARK  Name = 
REMARK  10 active torsions:
REMARK  status: ('A' for Active; 'I' for Inactive)
REMARK    1  A    between atoms: C_1  and  O_2
REMARK    2  A    between atoms: O_2  and  C_3
REMARK    3  A    between atoms: C_6  and  C_7
REMARK    4  A    between atoms: C_7  and  C_8
REMARK    5  A    between atoms: C_8  and  N_9
REMARK    6  A    between atoms: C_10  and  C_12
REMARK    7  A    between atoms: C_12  and  C_13
REMARK    8  A    between atoms: C_13  and  N_14
REMARK    9  A    between atoms: C_29  and  O_30
REMARK   10  A    between atoms: O_30  and  C_31
REMARK                            x       y       z     vdW  Elec       q    Type
REMARK                         _______ _______ _______ _____ _____    ______ ____
ROOT
ATOM      1  N   UNL     1       7.875   7.570  18.498  0.00  0.00    +0.000 N 
ATOM      2  C   UNL     1       7.592   6.574  17.578  0.00  0.00    +0.000 C 
ATOM      3  O   UNL     1       7.666   6.746  16.366  0.00  0.00    +0.000 OA
ATOM      4  H   UNL     1       7.611   7.428  19.465  0.00  0.00    +0.000 HD
ENDROOT
BRANCH   1   5
ATOM      5  C   UNL     1       8.219   8.905  18.036  0.00  0.00    +0.000 C 
BRANCH   5   6
ATOM      6  C   UNL     1       9.328   9.569  18.857  0.00  0.00    +0.000 C 
BRANCH   6  10
ATOM      7  C   UNL     1       8.602  13.832  19.075  0.00  0.00    +0.000 A 
ATOM      8  C   UNL     1       8.474  13.142  17.857  0.00  0.00    +0.000 A 
ATOM      9  C   UNL     1       8.719  11.767  17.773  0.00  0.00    +0.000 A 
ATOM     10  C   UNL     1       9.159  11.070  18.894  0.00  0.00    +0.000 A 
ATOM     11  C   UNL     1       9.395  11.787  20.080  0.00  0.00    +0.000 A 
ATOM     12  C   UNL     1       9.133  13.161  20.184  0.00  0.00    +0.000 A 
BRANCH   7  14
ATOM     13  C   UNL     1       7.875  15.764  17.930  0.00  0.00    +0.000 C 
ATOM     14  O   UNL     1       8.212  15.145  19.177  0.00  0.00    +0.000 OA
ENDBRANCH   7  14
BRANCH  12  15
ATOM     15  O   UNL     1       9.429  13.621  21.435  0.00  0.00    +0.000 OA
ATOM     16  C   UNL     1       8.944  12.940  22.579  0.00  0.00    +0.000 C 
ENDBRANCH  12  15
ENDBRANCH   6  10
ENDBRANCH   5   6
ENDBRANCH   1   5
BRANCH   2  17
ATOM     17  C   UNL     1       7.193   5.259  18.213  0.00  0.00    +0.000 C 
BRANCH  17  18
ATOM     18  C   UNL     1       5.987   4.641  17.507  0.00  0.00    +0.000 C 
BRANCH  18  19
ATOM     19  N   UNL     1       4.777   4.676  18.337  0.00  0.00    +0.000 N 
ATOM     20  C   UNL     1       4.516   3.615  19.206  0.00  0.00    +0.000 A 
ATOM     21  O   UNL     1       5.273   2.658  19.330  0.00  0.00    +0.000 OA
ATOM     22  C   UNL     1       3.290   3.727  19.958  0.00  0.00    +0.000 A 
ATOM     23  C   UNL     1       2.716   2.836  20.849  0.00  0.00    +0.000 A 
ATOM     24  C   UNL     1       1.518   3.417  21.322  0.00  0.00    +0.000 A 
ATOM     25  C   UNL     1       1.393   4.647  20.710  0.00  0.00    +0.000 A 
ATOM     26  N   UNL     1       2.473   4.828  19.876  0.00  0.00    +0.000 N 
ATOM     27  C   UNL     1       2.782   5.913  19.046  0.00  0.00    +0.000 A 
ATOM     28  C   UNL     1       1.985   7.057  18.982  0.00  0.00    +0.000 A 
ATOM     29  C   UNL     1       2.363   8.088  18.133  0.00  0.00    +0.000 A 
ATOM     30  C   UNL     1       3.519   7.931  17.387  0.00  0.00    +0.000 A 
ATOM     31  N   UNL     1       4.307   6.833  17.442  0.00  0.00    +0.000 NA
ATOM     32  C   UNL     1       3.940   5.824  18.270  0.00  0.00    +0.000 A 
ENDBRANCH  18  19
ENDBRANCH  17  18
ENDBRANCH   2  17
TORSDOF 8
ENDMDL
MODEL 3
REMARK VINA RESULT:      -7.8      5.445      9.548
REMARK  Name = 
REMARK  10 active torsions:
REMARK  status: ('A' for Active; 'I' for Inactive)
REMARK    1  A    between atoms: C_1  and  O_2
REMARK    2  A    between atoms: O_2  and  C_3
REMARK    3  A    between atoms: C_6  and  C_7
REMARK    4  A    between atoms: C_7  and  C_8
REMARK    5  A    between atoms: C_8  and  N_9
REMARK    6  A    between atoms: C_10  and  C_12
REMARK    7  A    between atoms: C_12  and  C_13
REMARK    8  A    between atoms: C_13  and  N_14
REMARK    9  A    between atoms: C_29  and  O_30
REMARK   10  A    between atoms: O_30  and  C_31
REMARK                            x       y       z     vdW  Elec       q    Type
REMARK                         _______ _______ _______ _____ _____    ______ ____
ROOT
ATOM      1  N   UNL     1      -0.147   9.308  21.578  0.00  0.00    +0.000 N 
ATOM      2  C   UNL     1      -0.191  10.009  22.770  0.00  0.00    +0.000 C 
ATOM      3  O   UNL     1       0.494   9.713  23.743  0.00  0.00    +0.000 OA
ATOM      4  H   UNL     1      -0.869   9.476  20.887  0.00  0.00    +0.000 HD
ENDROOT
BRANCH   1   5
ATOM      5  C   UNL     1       0.693   8.127  21.463  0.00  0.00    +0.000 C 
BRANCH   5   6
ATOM      6  C   UNL     1       1.635   8.163  20.255  0.00  0.00    +0.000 C 
BRANCH   6  10
ATOM      7  C   UNL     1       2.985   4.196  19.163  0.00  0.00    +0.000 A 
ATOM      8  C   UNL     1       2.236   4.403  20.335  0.00  0.00    +0.000 A 
ATOM      9  C   UNL     1       1.806   5.683  20.703  0.00  0.00    +0.000 A 
ATOM     10  C   UNL     1       2.174   6.786  19.939  0.00  0.00    +0.000 A 
ATOM     11  C   UNL     1       3.017   6.586  18.833  0.00  0.00    +0.000 A 
ATOM     12  C   UNL     1       3.438   5.307  18.440  0.00  0.00    +0.000 A 
BRANCH   7  14
ATOM     13  C   UNL     1       2.422   2.448  17.680  0.00  0.00    +0.000 C 
ATOM     14  O   UNL     1       3.269   2.923  18.733  0.00  0.00    +0.000 OA
ENDBRANCH   7  14
BRANCH  12  15
ATOM     15  O   UNL     1       4.236   5.374  17.334  0.00  0.00    +0.000 OA
ATOM     16  C   UNL     1       4.686   6.628  16.854  0.00  0.00    +0.000 C 
ENDBRANCH  12  15
ENDBRANCH   6  10
ENDBRANCH   5   6
ENDBRANCH   1   5
BRANCH   2  17
ATOM     17  C   UNL     1      -1.156  11.175  22.752  0.00  0.00    +0.000 C 
BRANCH  17  18
ATOM     18  C   UNL     1      -0.937  12.062  21.526  0.00  0.00    +0.000 C 
BRANCH  18  19
ATOM     19  N   UNL     1      -2.103  12.080  20.635  0.00  0.00    +0.000 N 
ATOM     20  C   UNL     1      -3.222  12.834  20.994  0.00  0.00    +0.000 A 
ATOM     21  O   UNL     1      -3.267  13.510  22.017  0.00  0.00    +0.000 OA
ATOM     22  C   UNL     1      -4.328  12.767  20.069  0.00  0.00    +0.000 A 
ATOM     23  C   UNL     1      -5.586  13.339  20.155  0.00  0.00    +0.000 A 
ATOM     24  C   UNL     1      -6.298  12.977  18.989  0.00  0.00    +0.000 A 
ATOM     25  C   UNL     1      -5.457  12.197  18.223  0.00  0.00    +0.000 A 
ATOM     26  N   UNL     1      -4.260  12.067  18.890  0.00  0.00    +0.000 N 
ATOM     27  C   UNL     1      -3.106  11.369  18.513  0.00  0.00    +0.000 A 
ATOM     28  C   UNL     1      -3.004  10.688  17.300  0.00  0.00    +0.000 A 
ATOM     29  C   UNL     1      -1.824  10.020  17.003  0.00  0.00    +0.000 A 
ATOM     30  C   UNL     1      -0.798  10.062  17.933  0.00  0.00    +0.000 A 
ATOM     31  N   UNL     1      -0.876  10.722  19.111  0.00  0.00    +0.000 NA
ATOM     32  C   UNL     1      -2.028  11.375  19.403  0.00  0.00    +0.000 A 
ENDBRANCH  18  19
ENDBRANCH  17  18
ENDBRANCH   2  17
TORSDOF 8
ENDMDL
MODEL 4
REMARK VINA RESULT:      -7.6      1.678      3.414
REMARK  Name = 
REMARK  10 active torsions:
REMARK  status: ('A' for Active; 'I' for Inactive)
REMARK    1  A    between atoms: C_1  and  O_2
REMARK    2  A    between atoms: O_2  and  C_3
REMARK    3  A    between atoms: C_6  and  C_7
REMARK    4  A    between atoms: C_7  and  C_8
REMARK    5  A    between atoms: C_8  and  N_9
REMARK    6  A    between atoms: C_10  and  C_12
REMARK    7  A    between atoms: C_12  and  C_13
REMARK    8  A    between atoms: C_13  and  N_14
REMARK    9  A    between atoms: C_29  and  O_30
REMARK   10  A    between atoms: O_30  and  C_31
REMARK                            x       y       z     vdW  Elec       q    Type
REMARK                         _______ _______ _______ _____ _____    ______ ____
ROOT
ATOM      1  N   UNL     1       8.457   7.932  18.681  0.00  0.00    +0.000 N 
ATOM      2  C   UNL     1       7.543   7.343  17.824  0.00  0.00    +0.000 C 
ATOM      3  O   UNL     1       7.061   7.927  16.860  0.00  0.00    +0.000 OA
ATOM      4  H   UNL     1       8.666   7.473  19.559  0.00  0.00    +0.000 HD
ENDROOT
BRANCH   1   5
ATOM      5  C   UNL     1       8.834   9.323  18.491  0.00  0.00    +0.000 C 
BRANCH   5   6
ATOM      6  C   UNL     1       9.357   9.994  19.765  0.00  0.00    +0.000 C 
BRANCH   6  10
ATOM      7  C   UNL     1      10.711  13.978  18.746  0.00  0.00    +0.000 A 
ATOM      8  C   UNL     1      11.478  13.151  19.584  0.00  0.00    +0.000 A 
ATOM      9  C   UNL     1      11.043  11.866  19.930  0.00  0.00    +0.000 A 
ATOM     10  C   UNL     1       9.802  11.413  19.495  0.00  0.00    +0.000 A 
ATOM     11  C   UNL     1       8.990  12.287  18.752  0.00  0.00    +0.000 A 
ATOM     12  C   UNL     1       9.422  13.569  18.380  0.00  0.00    +0.000 A 
BRANCH   7  14
ATOM     13  C   UNL     1      11.722  15.132  16.951  0.00  0.00    +0.000 C 
ATOM     14  O   UNL     1      11.217  15.171  18.291  0.00  0.00    +0.000 OA
ENDBRANCH   7  14
BRANCH  12  15
ATOM     15  O   UNL     1       8.463  14.216  17.655  0.00  0.00    +0.000 OA
ATOM     16  C   UNL     1       7.356  14.812  18.307  0.00  0.00    +0.000 C 
ENDBRANCH  12  15
ENDBRANCH   6  10
ENDBRANCH   5   6
ENDBRANCH   1   5
BRANCH   2  17
ATOM     17  C   UNL     1       7.207   5.912  18.188  0.00  0.00    +0.000 C 
BRANCH  17  18
ATOM     18  C   UNL     1       5.988   5.410  17.414  0.00  0.00    +0.000 C 
BRANCH  18  19
ATOM     19  N   UNL     1       4.813   5.237  18.276  0.00  0.00    +0.000 N 
ATOM     20  C   UNL     1       4.719   4.099  19.080  0.00  0.00    +0.000 A 
ATOM     21  O   UNL     1       5.595   3.242  19.119  0.00  0.00    +0.000 OA
ATOM     22  C   UNL     1       3.516   4.004  19.869  0.00  0.00    +0.000 A 
ATOM     23  C   UNL     1       3.091   2.993  20.714  0.00  0.00    +0.000 A 
ATOM     24  C   UNL     1       1.846   3.384  21.255  0.00  0.00    +0.000 A 
ATOM     25  C   UNL     1       1.544   4.623  20.731  0.00  0.00    +0.000 A 
ATOM     26  N   UNL     1       2.563   4.994  19.882  0.00  0.00    +0.000 N 
ATOM     27  C   UNL     1       2.703   6.160  19.119  0.00  0.00    +0.000 A 
ATOM     28  C   UNL     1       1.766   7.193  19.151  0.00  0.00    +0.000 A 
ATOM     29  C   UNL     1       1.980   8.316  18.364  0.00  0.00    +0.000 A 
ATOM     30  C   UNL     1       3.120   8.356  17.578  0.00  0.00    +0.000 A 
ATOM     31  N   UNL     1       4.042   7.367  17.539  0.00  0.00    +0.000 NA
ATOM     32  C   UNL     1       3.836   6.270  18.308  0.00  0.00    +0.000 A 
ENDBRANCH  18  19
ENDBRANCH  17  18
ENDBRANCH   2  17
TORSDOF 8
ENDMDL
MODEL 5
REMARK VINA RESULT:      -7.6      2.887      9.695
REMARK  Name = 
REMARK  10 active torsions:
REMARK  status: ('A' for Active; 'I' for Inactive)
REMARK    1  A    between atoms: C_1  and  O_2
REMARK    2  A    between atoms: O_2  and  C_3
REMARK    3  A    between atoms: C_6  and  C_7
REMARK    4  A    between atoms: C_7  and  C_8
REMARK    5  A    between atoms: C_8  and  N_9
REMARK    6  A    between atoms: C_10  and  C_12
REMARK    7  A    between atoms: C_12  and  C_13
REMARK    8  A    between atoms: C_13  and  N_14
REMARK    9  A    between atoms: C_29  and  O_30
REMARK   10  A    between atoms: O_30  and  C_31
REMARK                            x       y       z     vdW  Elec       q    Type
REMARK                         _______ _______ _______ _____ _____    ______ ____
ROOT
ATOM      1  N   UNL     1       7.297   7.963  17.054  0.00  0.00    +0.000 N 
ATOM      2  C   UNL     1       8.124   8.352  18.094  0.00  0.00    +0.000 C 
ATOM      3  O   UNL     1       8.599   7.559  18.900  0.00  0.00    +0.000 OA
ATOM      4  H   UNL     1       6.785   8.674  16.547  0.00  0.00    +0.000 HD
ENDROOT
BRANCH   1   5
ATOM      5  C   UNL     1       6.906   6.568  16.924  0.00  0.00    +0.000 C 
BRANCH   5   6
ATOM      6  C   UNL     1       5.581   6.372  16.180  0.00  0.00    +0.000 C 
BRANCH   6  10
ATOM      7  C   UNL     1       3.066   3.827  18.618  0.00  0.00    +0.000 A 
ATOM      8  C   UNL     1       3.657   3.338  17.441  0.00  0.00    +0.000 A 
ATOM      9  C   UNL     1       4.461   4.156  16.639  0.00  0.00    +0.000 A 
ATOM     10  C   UNL     1       4.634   5.496  16.968  0.00  0.00    +0.000 A 
ATOM     11  C   UNL     1       3.948   6.008  18.083  0.00  0.00    +0.000 A 
ATOM     12  C   UNL     1       3.157   5.195  18.907  0.00  0.00    +0.000 A 
BRANCH   7  14
ATOM     13  C   UNL     1       1.020   2.788  19.172  0.00  0.00    +0.000 C 
ATOM     14  O   UNL     1       2.408   2.978  19.473  0.00  0.00    +0.000 OA
ENDBRANCH   7  14
BRANCH  12  15
ATOM     15  O   UNL     1       2.609   5.919  19.927  0.00  0.00    +0.000 OA
ATOM     16  C   UNL     1       2.223   7.266  19.718  0.00  0.00    +0.000 C 
ENDBRANCH  12  15
ENDBRANCH   6  10
ENDBRANCH   5   6
ENDBRANCH   1   5
BRANCH   2  17
ATOM     17  C   UNL     1       8.390   9.842  18.130  0.00  0.00    +0.000 C 
BRANCH  17  18
ATOM     18  C   UNL     1       9.755  10.150  18.746  0.00  0.00    +0.000 C 
BRANCH  18  19
ATOM     19  N   UNL     1       9.795  11.475  19.375  0.00  0.00    +0.000 N 
ATOM     20  C   UNL     1       9.362  11.616  20.695  0.00  0.00    +0.000 A 
ATOM     21  O   UNL     1       8.969  10.669  21.368  0.00  0.00    +0.000 OA
ATOM     22  C   UNL     1       9.413  12.960  21.217  0.00  0.00    +0.000 A 
ATOM     23  C   UNL     1       9.008  13.445  22.448  0.00  0.00    +0.000 A 
ATOM     24  C   UNL     1       9.277  14.832  22.470  0.00  0.00    +0.000 A 
ATOM     25  C   UNL     1       9.841  15.157  21.254  0.00  0.00    +0.000 A 
ATOM     26  N   UNL     1       9.916  14.013  20.492  0.00  0.00    +0.000 N 
ATOM     27  C   UNL     1      10.407  13.843  19.191  0.00  0.00    +0.000 A 
ATOM     28  C   UNL     1      10.960  14.892  18.456  0.00  0.00    +0.000 A 
ATOM     29  C   UNL     1      11.424  14.639  17.173  0.00  0.00    +0.000 A 
ATOM     30  C   UNL     1      11.315  13.349  16.681  0.00  0.00    +0.000 A 
ATOM     31  N   UNL     1      10.790  12.319  17.382  0.00  0.00    +0.000 NA
ATOM     32  C   UNL     1      10.335  12.563  18.635  0.00  0.00    +0.000 A 
ENDBRANCH  18  19
ENDBRANCH  17  18
ENDBRANCH   2  17
TORSDOF 8
ENDMDL
MODEL 6
REMARK VINA RESULT:      -7.6      5.354      9.364
REMARK  Name = 
REMARK  10 active torsions:
REMARK  status: ('A' for Active; 'I' for Inactive)
REMARK    1  A    between atoms: C_1  and  O_2
REMARK    2  A    between atoms: O_2  and  C_3
REMARK    3  A    between atoms: C_6  and  C_7
REMARK    4  A    between atoms: C_7  and  C_8
REMARK    5  A    between atoms: C_8  and  N_9
REMARK    6  A    between atoms: C_10  and  C_12
REMARK    7  A    between atoms: C_12  and  C_13
REMARK    8  A    between atoms: C_13  and  N_14
REMARK    9  A    between atoms: C_29  and  O_30
REMARK   10  A    between atoms: O_30  and  C_31
REMARK                            x       y       z     vdW  Elec       q    Type
REMARK                         _______ _______ _______ _____ _____    ______ ____
ROOT
ATOM      1  N   UNL     1       0.968   9.242  20.996  0.00  0.00    +0.000 N 
ATOM      2  C   UNL     1      -0.231   9.310  21.686  0.00  0.00    +0.000 C 
ATOM      3  O   UNL     1      -0.830   8.315  22.079  0.00  0.00    +0.000 OA
ATOM      4  H   UNL     1       1.310  10.075  20.532  0.00  0.00    +0.000 HD
ENDROOT
BRANCH   1   5
ATOM      5  C   UNL     1       1.534   7.947  20.654  0.00  0.00    +0.000 C 
BRANCH   5   6
ATOM      6  C   UNL     1       2.123   7.893  19.241  0.00  0.00    +0.000 C 
BRANCH   6  10
ATOM      7  C   UNL     1       3.636   3.970  18.204  0.00  0.00    +0.000 A 
ATOM      8  C   UNL     1       2.844   4.155  19.351  0.00  0.00    +0.000 A 
ATOM      9  C   UNL     1       2.362   5.421  19.702  0.00  0.00    +0.000 A 
ATOM     10  C   UNL     1       2.716   6.534  18.947  0.00  0.00    +0.000 A 
ATOM     11  C   UNL     1       3.600   6.359  17.868  0.00  0.00    +0.000 A 
ATOM     12  C   UNL     1       4.075   5.093  17.492  0.00  0.00    +0.000 A 
BRANCH   7  14
ATOM     13  C   UNL     1       3.239   1.653  18.424  0.00  0.00    +0.000 C 
ATOM     14  O   UNL     1       3.974   2.706  17.788  0.00  0.00    +0.000 OA
ENDBRANCH   7  14
BRANCH  12  15
ATOM     15  O   UNL     1       4.904   5.184  16.411  0.00  0.00    +0.000 OA
ATOM     16  C   UNL     1       5.189   6.446  15.834  0.00  0.00    +0.000 C 
ENDBRANCH  12  15
ENDBRANCH   6  10
ENDBRANCH   5   6
ENDBRANCH   1   5
BRANCH   2  17
ATOM     17  C   UNL     1      -0.719  10.725  21.913  0.00  0.00    +0.000 C 
BRANCH  17  18
ATOM     18  C   UNL     1      -0.433  11.615  20.704  0.00  0.00    +0.000 C 
BRANCH  18  19
ATOM     19  N   UNL     1      -1.485  11.526  19.685  0.00  0.00    +0.000 N 
ATOM     20  C   UNL     1      -1.234  10.822  18.506  0.00  0.00    +0.000 A 
ATOM     21  O   UNL     1      -0.173  10.246  18.291  0.00  0.00    +0.000 OA
ATOM     22  C   UNL     1      -2.318  10.814  17.554  0.00  0.00    +0.000 A 
ATOM     23  C   UNL     1      -2.373  10.267  16.283  0.00  0.00    +0.000 A 
ATOM     24  C   UNL     1      -3.662  10.525  15.763  0.00  0.00    +0.000 A 
ATOM     25  C   UNL     1      -4.359  11.220  16.729  0.00  0.00    +0.000 A 
ATOM     26  N   UNL     1      -3.532  11.398  17.816  0.00  0.00    +0.000 N 
ATOM     27  C   UNL     1      -3.791  12.045  19.031  0.00  0.00    +0.000 A 
ATOM     28  C   UNL     1      -5.032  12.608  19.331  0.00  0.00    +0.000 A 
ATOM     29  C   UNL     1      -5.206  13.232  20.559  0.00  0.00    +0.000 A 
ATOM     30  C   UNL     1      -4.130  13.266  21.432  0.00  0.00    +0.000 A 
ATOM     31  N   UNL     1      -2.923  12.721  21.161  0.00  0.00    +0.000 NA
ATOM     32  C   UNL     1      -2.752  12.111  19.963  0.00  0.00    +0.000 A 
ENDBRANCH  18  19
ENDBRANCH  17  18
ENDBRANCH   2  17
TORSDOF 8
ENDMDL
MODEL 7
REMARK VINA RESULT:      -7.6      1.625      3.267
REMARK  Name = 
REMARK  10 active torsions:
REMARK  status: ('A' for Active; 'I' for Inactive)
REMARK    1  A    between atoms: C_1  and  O_2
REMARK    2  A    between atoms: O_2  and  C_3
REMARK    3  A    between atoms: C_6  and  C_7
REMARK    4  A    between atoms: C_7  and  C_8
REMARK    5  A    between atoms: C_8  and  N_9
REMARK    6  A    between atoms: C_10  and  C_12
REMARK    7  A    between atoms: C_12  and  C_13
REMARK    8  A    between atoms: C_13  and  N_14
REMARK    9  A    between atoms: C_29  and  O_30
REMARK   10  A    between atoms: O_30  and  C_31
REMARK                            x       y       z     vdW  Elec       q    Type
REMARK                         _______ _______ _______ _____ _____    ______ ____
ROOT
ATOM      1  N   UNL     1       7.202   7.145  17.247  0.00  0.00    +0.000 N 
ATOM      2  C   UNL     1       7.434   6.140  18.171  0.00  0.00    +0.000 C 
ATOM      3  O   UNL     1       7.858   6.358  19.300  0.00  0.00    +0.000 OA
ATOM      4  H   UNL     1       7.041   6.890  16.281  0.00  0.00    +0.000 HD
ENDROOT
BRANCH   1   5
ATOM      5  C   UNL     1       7.524   8.523  17.581  0.00  0.00    +0.000 C 
BRANCH   5   6
ATOM      6  C   UNL     1       8.728   8.659  18.518  0.00  0.00    +0.000 C 
BRANCH   6  10
ATOM      7  C   UNL     1       9.784  12.806  19.180  0.00  0.00    +0.000 A 
ATOM      8  C   UNL     1      10.218  11.803  20.065  0.00  0.00    +0.000 A 
ATOM      9  C   UNL     1       9.871  10.462  19.867  0.00  0.00    +0.000 A 
ATOM     10  C   UNL     1       9.030  10.109  18.816  0.00  0.00    +0.000 A 
ATOM     11  C   UNL     1       8.508  11.130  18.003  0.00  0.00    +0.000 A 
ATOM     12  C   UNL     1       8.864  12.476  18.176  0.00  0.00    +0.000 A 
BRANCH   7  14
ATOM     13  C   UNL     1       9.650  14.852  20.350  0.00  0.00    +0.000 C 
ATOM     14  O   UNL     1      10.255  14.090  19.296  0.00  0.00    +0.000 OA
ENDBRANCH   7  14
BRANCH  12  15
ATOM     15  O   UNL     1       8.238  13.268  17.257  0.00  0.00    +0.000 OA
ATOM     16  C   UNL     1       7.115  14.046  17.633  0.00  0.00    +0.000 C 
ENDBRANCH  12  15
ENDBRANCH   6  10
ENDBRANCH   5   6
ENDBRANCH   1   5
BRANCH   2  17
ATOM     17  C   UNL     1       7.105   4.756  17.654  0.00  0.00    +0.000 C 
BRANCH  17  18
ATOM     18  C   UNL     1       5.699   4.702  17.056  0.00  0.00    +0.000 C 
BRANCH  18  19
ATOM     19  N   UNL     1       4.654   4.723  18.086  0.00  0.00    +0.000 N 
ATOM     20  C   UNL     1       4.522   3.630  18.945  0.00  0.00    +0.000 A 
ATOM     21  O   UNL     1       5.264   2.654  18.895  0.00  0.00    +0.000 OA
ATOM     22  C   UNL     1       3.449   3.730  19.905  0.00  0.00    +0.000 A 
ATOM     23  C   UNL     1       3.018   2.811  20.846  0.00  0.00    +0.000 A 
ATOM     24  C   UNL     1       1.936   3.393  21.545  0.00  0.00    +0.000 A 
ATOM     25  C   UNL     1       1.737   4.651  21.015  0.00  0.00    +0.000 A 
ATOM     26  N   UNL     1       2.659   4.848  20.011  0.00  0.00    +0.000 N 
ATOM     27  C   UNL     1       2.846   5.964  19.185  0.00  0.00    +0.000 A 
ATOM     28  C   UNL     1       2.080   7.124  19.308  0.00  0.00    +0.000 A 
ATOM     29  C   UNL     1       2.330   8.184  18.448  0.00  0.00    +0.000 A 
ATOM     30  C   UNL     1       3.334   8.039  17.504  0.00  0.00    +0.000 A 
ATOM     31  N   UNL     1       4.090   6.925  17.376  0.00  0.00    +0.000 NA
ATOM     32  C   UNL     1       3.848   5.888  18.214  0.00  0.00    +0.000 A 
ENDBRANCH  18  19
ENDBRANCH  17  18
ENDBRANCH   2  17
TORSDOF 8
ENDMDL
MODEL 8
REMARK VINA RESULT:      -7.5      4.779      8.801
REMARK  Name = 
REMARK  10 active torsions:
REMARK  status: ('A' for Active; 'I' for Inactive)
REMARK    1  A    between atoms: C_1  and  O_2
REMARK    2  A    between atoms: O_2  and  C_3
REMARK    3  A    between atoms: C_6  and  C_7
REMARK    4  A    between atoms: C_7  and  C_8
REMARK    5  A    between atoms: C_8  and  N_9
REMARK    6  A    between atoms: C_10  and  C_12
REMARK    7  A    between atoms: C_12  and  C_13
REMARK    8  A    between atoms: C_13  and  N_14
REMARK    9  A    between atoms: C_29  and  O_30
REMARK   10  A    between atoms: O_30  and  C_31
REMARK                            x       y       z     vdW  Elec       q    Type
REMARK                         _______ _______ _______ _____ _____    ______ ____
ROOT
ATOM      1  N   UNL     1       1.246   9.183  20.569  0.00  0.00    +0.000 N 
ATOM      2  C   UNL     1       0.070   9.132  21.297  0.00  0.00    +0.000 C 
ATOM      3  O   UNL     1      -0.499   8.080  21.570  0.00  0.00    +0.000 OA
ATOM      4  H   UNL     1       1.559  10.078  20.212  0.00  0.00    +0.000 HD
ENDROOT
BRANCH   1   5
ATOM      5  C   UNL     1       1.824   7.959  20.039  0.00  0.00    +0.000 C 
BRANCH   5   6
ATOM      6  C   UNL     1       1.984   7.968  18.516  0.00  0.00    +0.000 C 
BRANCH   6  10
ATOM      7  C   UNL     1       4.720   4.996  16.957  0.00  0.00    +0.000 A 
ATOM      8  C   UNL     1       3.506   4.613  17.555  0.00  0.00    +0.000 A 
ATOM      9  C   UNL     1       2.621   5.565  18.073  0.00  0.00    +0.000 A 
ATOM     10  C   UNL     1       2.965   6.913  18.061  0.00  0.00    +0.000 A 
ATOM     11  C   UNL     1       4.229   7.279  17.565  0.00  0.00    +0.000 A 
ATOM     12  C   UNL     1       5.117   6.337  17.023  0.00  0.00    +0.000 A 
BRANCH   7  14
ATOM     13  C   UNL     1       5.511   4.178  14.889  0.00  0.00    +0.000 C 
ATOM     14  O   UNL     1       5.505   4.069  16.318  0.00  0.00    +0.000 OA
ENDBRANCH   7  14
BRANCH  12  15
ATOM     15  O   UNL     1       6.267   6.939  16.600  0.00  0.00    +0.000 OA
ATOM     16  C   UNL     1       7.445   6.857  17.382  0.00  0.00    +0.000 C 
ENDBRANCH  12  15
ENDBRANCH   6  10
ENDBRANCH   5   6
ENDBRANCH   1   5
BRANCH   2  17
ATOM     17  C   UNL     1      -0.436  10.492  21.727  0.00  0.00    +0.000 C 
BRANCH  17  18
ATOM     18  C   UNL     1      -0.271  11.526  20.614  0.00  0.00    +0.000 C 
BRANCH  18  19
ATOM     19  N   UNL     1      -1.402  11.524  19.679  0.00  0.00    +0.000 N 
ATOM     20  C   UNL     1      -1.256  10.904  18.436  0.00  0.00    +0.000 A 
ATOM     21  O   UNL     1      -0.226  10.332  18.097  0.00  0.00    +0.000 OA
ATOM     22  C   UNL     1      -2.412  10.978  17.576  0.00  0.00    +0.000 A 
ATOM     23  C   UNL     1      -2.577  10.524  16.278  0.00  0.00    +0.000 A 
ATOM     24  C   UNL     1      -3.898  10.835  15.883  0.00  0.00    +0.000 A 
ATOM     25  C   UNL     1      -4.504  11.467  16.948  0.00  0.00    +0.000 A 
ATOM     26  N   UNL     1      -3.592  11.556  17.975  0.00  0.00    +0.000 N 
ATOM     27  C   UNL     1      -3.742  12.117  19.250  0.00  0.00    +0.000 A 
ATOM     28  C   UNL     1      -4.946  12.671  19.687  0.00  0.00    +0.000 A 
ATOM     29  C   UNL     1      -5.010  13.207  20.966  0.00  0.00    +0.000 A 
ATOM     30  C   UNL     1      -3.869  13.166  21.750  0.00  0.00    +0.000 A 
ATOM     31  N   UNL     1      -2.697  12.627  21.346  0.00  0.00    +0.000 NA
ATOM     32  C   UNL     1      -2.631  12.103  20.097  0.00  0.00    +0.000 A 
ENDBRANCH  18  19
ENDBRANCH  17  18
ENDBRANCH   2  17
TORSDOF 8
ENDMDL
MODEL 9
REMARK VINA RESULT:      -7.5      5.228      8.968
REMARK  Name = 
REMARK  10 active torsions:
REMARK  status: ('A' for Active; 'I' for Inactive)
REMARK    1  A    between atoms: C_1  and  O_2
REMARK    2  A    between atoms: O_2  and  C_3
REMARK    3  A    between atoms: C_6  and  C_7
REMARK    4  A    between atoms: C_7  and  C_8
REMARK    5  A    between atoms: C_8  and  N_9
REMARK    6  A    between atoms: C_10  and  C_12
REMARK    7  A    between atoms: C_12  and  C_13
REMARK    8  A    between atoms: C_13  and  N_14
REMARK    9  A    between atoms: C_29  and  O_30
REMARK   10  A    between atoms: O_30  and  C_31
REMARK                            x       y       z     vdW  Elec       q    Type
REMARK                         _______ _______ _______ _____ _____    ______ ____
ROOT
ATOM      1  N   UNL     1       1.087   9.330  20.606  0.00  0.00    +0.000 N 
ATOM      2  C   UNL     1      -0.067   9.284  21.369  0.00  0.00    +0.000 C 
ATOM      3  O   UNL     1      -0.582   8.233  21.736  0.00  0.00    +0.000 OA
ATOM      4  H   UNL     1       1.351  10.207  20.175  0.00  0.00    +0.000 HD
ENDROOT
BRANCH   1   5
ATOM      5  C   UNL     1       1.705   8.094  20.153  0.00  0.00    +0.000 C 
BRANCH   5   6
ATOM      6  C   UNL     1       2.112   8.121  18.677  0.00  0.00    +0.000 C 
BRANCH   6  10
ATOM      7  C   UNL     1       5.072   5.039  17.971  0.00  0.00    +0.000 A 
ATOM      8  C   UNL     1       5.013   6.181  17.152  0.00  0.00    +0.000 A 
ATOM      9  C   UNL     1       4.052   7.176  17.364  0.00  0.00    +0.000 A 
ATOM     10  C   UNL     1       3.092   7.015  18.358  0.00  0.00    +0.000 A 
ATOM     11  C   UNL     1       3.087   5.820  19.098  0.00  0.00    +0.000 A 
ATOM     12  C   UNL     1       4.056   4.824  18.911  0.00  0.00    +0.000 A 
BRANCH   7  14
ATOM     13  C   UNL     1       7.315   4.708  17.316  0.00  0.00    +0.000 C 
ATOM     14  O   UNL     1       6.109   4.148  17.851  0.00  0.00    +0.000 OA
ENDBRANCH   7  14
BRANCH  12  15
ATOM     15  O   UNL     1       3.844   3.772  19.756  0.00  0.00    +0.000 OA
ATOM     16  C   UNL     1       3.218   2.592  19.283  0.00  0.00    +0.000 C 
ENDBRANCH  12  15
ENDBRANCH   6  10
ENDBRANCH   5   6
ENDBRANCH   1   5
BRANCH   2  17
ATOM     17  C   UNL     1      -0.622  10.651  21.710  0.00  0.00    +0.000 C 
BRANCH  17  18
ATOM     18  C   UNL     1      -0.424  11.637  20.560  0.00  0.00    +0.000 C 
BRANCH  18  19
ATOM     19  N   UNL     1      -1.514  11.576  19.580  0.00  0.00    +0.000 N 
ATOM     20  C   UNL     1      -1.297  10.934  18.358  0.00  0.00    +0.000 A 
ATOM     21  O   UNL     1      -0.236  10.390  18.075  0.00  0.00    +0.000 OA
ATOM     22  C   UNL     1      -2.419  10.951  17.450  0.00  0.00    +0.000 A 
ATOM     23  C   UNL     1      -2.515  10.464  16.158  0.00  0.00    +0.000 A 
ATOM     24  C   UNL     1      -3.827  10.721  15.702  0.00  0.00    +0.000 A 
ATOM     25  C   UNL     1      -4.498  11.356  16.727  0.00  0.00    +0.000 A 
ATOM     26  N   UNL     1      -3.631  11.499  17.788  0.00  0.00    +0.000 N 
ATOM     27  C   UNL     1      -3.853  12.082  19.042  0.00  0.00    +0.000 A 
ATOM     28  C   UNL     1      -5.090  12.605  19.417  0.00  0.00    +0.000 A 
ATOM     29  C   UNL     1      -5.225  13.167  20.679  0.00  0.00    +0.000 A 
ATOM     30  C   UNL     1      -4.117  13.180  21.510  0.00  0.00    +0.000 A 
ATOM     31  N   UNL     1      -2.912  12.672  21.166  0.00  0.00    +0.000 NA
ATOM     32  C   UNL     1      -2.778  12.123  19.934  0.00  0.00    +0.000 A 
ENDBRANCH  18  19
ENDBRANCH  17  18
ENDBRANCH   2  17
TORSDOF 8
ENDMDL
