MODEL 1
REMARK VINA RESULT:      -8.4      0.000      0.000
REMARK  Name = 
REMARK  6 active torsions:
REMARK  status: ('A' for Active; 'I' for Inactive)
REMARK    1  A    between atoms: C_1  and  C_2
REMARK    2  A    between atoms: C_2  and  C_3
REMARK    3  A    between atoms: C_2  and  N_20
REMARK    4  A    between atoms: C_3  and  N_4
REMARK    5  A    between atoms: C_7  and  N_8
REMARK    6  A    between atoms: C_21  and  C_23
REMARK                            x       y       z     vdW  Elec       q    Type
REMARK                         _______ _______ _______ _____ _____    ______ ____
ROOT
ATOM      1  C   UNL     1       2.086   7.816  21.696  0.00  0.00    +0.000 C 
ENDROOT
BRANCH   1   2
ATOM      2  N   UNL     1       1.715   7.037  20.487  0.00  0.00    +0.000 NA
ATOM      3  C   UNL     1       2.394   7.479  19.264  0.00  0.00    +0.000 C 
ATOM      4  C   UNL     1       2.140   6.704  18.015  0.00  0.00    +0.000 C 
ATOM      5  C   UNL     1       2.373   5.227  18.322  0.00  0.00    +0.000 C 
ATOM      6  C   UNL     1       1.486   4.788  19.495  0.00  0.00    +0.000 C 
ATOM      7  C   UNL     1       1.767   5.587  20.753  0.00  0.00    +0.000 C 
BRANCH   5   8
ATOM      8  N   UNL     1       3.800   4.857  18.488  0.00  0.00    +0.000 N 
ATOM      9  C   UNL     1       4.197   3.661  19.142  0.00  0.00    +0.000 A 
ATOM     10  O   UNL     1       3.485   2.791  19.615  0.00  0.00    +0.000 OA
ATOM     11  N   UNL     1       5.604   3.659  19.154  0.00  0.00    +0.000 N 
ATOM     12  C   UNL     1       6.084   4.811  18.541  0.00  0.00    +0.000 A 
ATOM     13  C   UNL     1       7.391   5.244  18.330  0.00  0.00    +0.000 A 
ATOM     14  C   UNL     1       7.629   6.466  17.676  0.00  0.00    +0.000 A 
ATOM     15  C   UNL     1       6.570   7.234  17.272  0.00  0.00    +0.000 A 
ATOM     16  C   UNL     1       5.294   6.751  17.512  0.00  0.00    +0.000 A 
ATOM     17  C   UNL     1       5.001   5.553  18.136  0.00  0.00    +0.000 A 
ATOM     18  H   UNL     1       6.146   2.926  19.573  0.00  0.00    +0.000 HD
ENDBRANCH   5   8
ENDBRANCH   1   2
BRANCH   1  20
ATOM     19  C   UNL     1       0.374   9.094  23.232  0.00  0.00    +0.000 C 
ATOM     20  C   UNL     1       1.287   9.140  21.978  0.00  0.00    +0.000 C 
BRANCH  20  21
ATOM     21  N   UNL     1       0.424   9.474  20.835  0.00  0.00    +0.000 N 
ATOM     22  C   UNL     1       0.471  10.690  20.166  0.00  0.00    +0.000 C 
ATOM     23  O   UNL     1       1.230  11.609  20.451  0.00  0.00    +0.000 OA
ATOM     24  H   UNL     1      -0.221   8.753  20.536  0.00  0.00    +0.000 HD
BRANCH  22  25
ATOM     25  C   UNL     1      -0.536  10.880  19.086  0.00  0.00    +0.000 A 
ATOM     26  C   UNL     1      -1.463  11.887  19.392  0.00  0.00    +0.000 A 
ATOM     27  C   UNL     1      -2.410  12.209  18.494  0.00  0.00    +0.000 A 
ATOM     28  C   UNL     1      -2.519  11.377  17.456  0.00  0.00    +0.000 A 
ATOM     29  N   UNL     1      -3.671  11.444  16.891  0.00  0.00    +0.000 NA
ATOM     30  C   UNL     1      -4.816  11.532  16.353  0.00  0.00    +0.000 A 
ATOM     31  C   UNL     1      -4.277  10.553  15.603  0.00  0.00    +0.000 A 
ATOM     32  C   UNL     1      -2.793   9.819  15.817  0.00  0.00    +0.000 A 
ATOM     33  C   UNL     1      -1.847  10.307  16.978  0.00  0.00    +0.000 A 
ATOM     34  C   UNL     1      -0.606  10.169  17.829  0.00  0.00    +0.000 A 
ENDBRANCH  22  25
ENDBRANCH  20  21
ENDBRANCH   1  20
TORSDOF 5
ENDMDL
MODEL 2
REMARK VINA RESULT:      -8.2      2.194      2.830
REMARK  Name = 
REMARK  6 active torsions:
REMARK  status: ('A' for Active; 'I' for Inactive)
REMARK    1  A    between atoms: C_1  and  C_2
REMARK    2  A    between atoms: C_2  and  C_3
REMARK    3  A    between atoms: C_2  and  N_20
REMARK    4  A    between atoms: C_3  and  N_4
REMARK    5  A    between atoms: C_7  and  N_8
REMARK    6  A    between atoms: C_21  and  C_23
REMARK                            x       y       z     vdW  Elec       q    Type
REMARK                         _______ _______ _______ _____ _____    ______ ____
ROOT
ATOM      1  C   UNL     1       2.406   7.308  18.303  0.00  0.00    +0.000 C 
ENDROOT
BRANCH   1   2
ATOM      2  N   UNL     1       2.852   5.938  18.664  0.00  0.00    +0.000 NA
ATOM      3  C   UNL     1       2.842   4.996  17.540  0.00  0.00    +0.000 C 
ATOM      4  C   UNL     1       3.348   3.616  17.792  0.00  0.00    +0.000 C 
ATOM      5  C   UNL     1       4.718   3.731  18.457  0.00  0.00    +0.000 C 
ATOM      6  C   UNL     1       4.612   4.577  19.732  0.00  0.00    +0.000 C 
ATOM      7  C   UNL     1       4.101   5.976  19.449  0.00  0.00    +0.000 C 
BRANCH   5   8
ATOM      8  N   UNL     1       5.803   4.167  17.544  0.00  0.00    +0.000 N 
ATOM      9  C   UNL     1       7.010   4.738  18.027  0.00  0.00    +0.000 A 
ATOM     10  O   UNL     1       7.342   4.924  19.186  0.00  0.00    +0.000 OA
ATOM     11  N   UNL     1       7.778   5.068  16.896  0.00  0.00    +0.000 N 
ATOM     12  C   UNL     1       7.086   4.730  15.739  0.00  0.00    +0.000 A 
ATOM     13  C   UNL     1       7.440   4.876  14.400  0.00  0.00    +0.000 A 
ATOM     14  C   UNL     1       6.558   4.452  13.389  0.00  0.00    +0.000 A 
ATOM     15  C   UNL     1       5.344   3.919  13.732  0.00  0.00    +0.000 A 
ATOM     16  C   UNL     1       5.048   3.801  15.080  0.00  0.00    +0.000 A 
ATOM     17  C   UNL     1       5.881   4.187  16.114  0.00  0.00    +0.000 A 
ATOM     18  H   UNL     1       8.681   5.503  16.955  0.00  0.00    +0.000 HD
ENDBRANCH   5   8
ENDBRANCH   1   2
BRANCH   1  20
ATOM     19  C   UNL     1       1.544   7.500  20.783  0.00  0.00    +0.000 C 
ATOM     20  C   UNL     1       1.913   8.240  19.470  0.00  0.00    +0.000 C 
BRANCH  20  21
ATOM     21  N   UNL     1       0.720   8.994  19.055  0.00  0.00    +0.000 N 
ATOM     22  C   UNL     1       0.409  10.261  19.531  0.00  0.00    +0.000 C 
ATOM     23  O   UNL     1       1.089  10.886  20.337  0.00  0.00    +0.000 OA
ATOM     24  H   UNL     1       0.117   8.542  18.379  0.00  0.00    +0.000 HD
BRANCH  22  25
ATOM     25  C   UNL     1      -0.883  10.834  19.064  0.00  0.00    +0.000 A 
ATOM     26  C   UNL     1      -1.490  11.644  20.034  0.00  0.00    +0.000 A 
ATOM     27  C   UNL     1      -2.643  12.272  19.746  0.00  0.00    +0.000 A 
ATOM     28  C   UNL     1      -3.233  11.889  18.611  0.00  0.00    +0.000 A 
ATOM     29  N   UNL     1      -4.491  12.153  18.597  0.00  0.00    +0.000 NA
ATOM     30  C   UNL     1      -5.729  12.427  18.611  0.00  0.00    +0.000 A 
ATOM     31  C   UNL     1      -5.636  11.806  17.421  0.00  0.00    +0.000 A 
ATOM     32  C   UNL     1      -4.292  11.059  16.774  0.00  0.00    +0.000 A 
ATOM     33  C   UNL     1      -2.933  11.083  17.569  0.00  0.00    +0.000 A 
ATOM     34  C   UNL     1      -1.500  10.647  17.769  0.00  0.00    +0.000 A 
ENDBRANCH  22  25
ENDBRANCH  20  21
ENDBRANCH   1  20
TORSDOF 5
ENDMDL
MODEL 3
REMARK VINA RESULT:      -8.2      2.708      3.514
REMARK  Name = 
REMARK  6 active torsions:
REMARK  status: ('A' for Active; 'I' for Inactive)
REMARK    1  A    between atoms: C_1  and  C_2
REMARK    2  A    between atoms: C_2  and  C_3
REMARK    3  A    between atoms: C_2  and  N_20
REMARK    4  A    between atoms: C_3  and  N_4
REMARK    5  A    between atoms: C_7  and  N_8
REMARK    6  A    between atoms: C_21  and  C_23
REMARK                            x       y       z     vdW  Elec       q    Type
REMARK                         _______ _______ _______ _____ _____    ______ ____
ROOT
ATOM      1  C   UNL     1       1.956   7.945  21.314  0.00  0.00    +0.000 C 
ENDROOT
BRANCH   1   2
ATOM      2  N   UNL     1       1.675   7.030  20.178  0.00  0.00    +0.000 NA
ATOM      3  C   UNL     1       2.364   7.396  18.936  0.00  0.00    +0.000 C 
ATOM      4  C   UNL     1       2.201   6.489  17.764  0.00  0.00    +0.000 C 
ATOM      5  C   UNL     1       2.519   5.067  18.221  0.00  0.00    +0.000 C 
ATOM      6  C   UNL     1       1.625   4.685  19.408  0.00  0.00    +0.000 C 
ATOM      7  C   UNL     1       1.813   5.619  20.587  0.00  0.00    +0.000 C 
BRANCH   5   8
ATOM      8  N   UNL     1       3.961   4.813  18.458  0.00  0.00    +0.000 N 
ATOM      9  C   UNL     1       4.417   3.677  19.179  0.00  0.00    +0.000 A 
ATOM     10  O   UNL     1       3.751   2.775  19.659  0.00  0.00    +0.000 OA
ATOM     11  N   UNL     1       5.818   3.782  19.246  0.00  0.00    +0.000 N 
ATOM     12  C   UNL     1       6.238   4.942  18.605  0.00  0.00    +0.000 A 
ATOM     13  C   UNL     1       7.517   5.463  18.428  0.00  0.00    +0.000 A 
ATOM     14  C   UNL     1       7.693   6.673  17.732  0.00  0.00    +0.000 A 
ATOM     15  C   UNL     1       6.598   7.342  17.253  0.00  0.00    +0.000 A 
ATOM     16  C   UNL     1       5.352   6.774  17.463  0.00  0.00    +0.000 A 
ATOM     17  C   UNL     1       5.122   5.584  18.125  0.00  0.00    +0.000 A 
ATOM     18  H   UNL     1       6.395   3.109  19.718  0.00  0.00    +0.000 HD
ENDBRANCH   5   8
ENDBRANCH   1   2
BRANCH   1  20
ATOM     19  C   UNL     1      -0.623   8.445  21.470  0.00  0.00    +0.000 C 
ATOM     20  C   UNL     1       0.821   8.948  21.734  0.00  0.00    +0.000 C 
BRANCH  20  21
ATOM     21  N   UNL     1       0.967  10.221  21.013  0.00  0.00    +0.000 N 
ATOM     22  C   UNL     1       0.512  11.438  21.503  0.00  0.00    +0.000 C 
ATOM     23  O   UNL     1      -0.053  11.585  22.581  0.00  0.00    +0.000 OA
ATOM     24  H   UNL     1       1.438  10.177  20.118  0.00  0.00    +0.000 HD
BRANCH  22  25
ATOM     25  C   UNL     1       0.673  12.608  20.597  0.00  0.00    +0.000 A 
ATOM     26  C   UNL     1       2.019  12.934  20.379  0.00  0.00    +0.000 A 
ATOM     27  C   UNL     1       2.330  13.942  19.546  0.00  0.00    +0.000 A 
ATOM     28  C   UNL     1       1.301  14.698  19.156  0.00  0.00    +0.000 A 
ATOM     29  N   UNL     1       1.670  15.863  18.758  0.00  0.00    +0.000 NA
ATOM     30  C   UNL     1       2.064  17.005  18.371  0.00  0.00    +0.000 A 
ATOM     31  C   UNL     1       0.733  17.156  18.241  0.00  0.00    +0.000 A 
ATOM     32  C   UNL     1      -0.454  16.071  18.686  0.00  0.00    +0.000 A 
ATOM     33  C   UNL     1      -0.043  14.675  19.289  0.00  0.00    +0.000 A 
ATOM     34  C   UNL     1      -0.381  13.362  19.955  0.00  0.00    +0.000 A 
ENDBRANCH  22  25
ENDBRANCH  20  21
ENDBRANCH   1  20
TORSDOF 5
ENDMDL
MODEL 4
REMARK VINA RESULT:      -8.2      3.287     10.059
REMARK  Name = 
REMARK  6 active torsions:
REMARK  status: ('A' for Active; 'I' for Inactive)
REMARK    1  A    between atoms: C_1  and  C_2
REMARK    2  A    between atoms: C_2  and  C_3
REMARK    3  A    between atoms: C_2  and  N_20
REMARK    4  A    between atoms: C_3  and  N_4
REMARK    5  A    between atoms: C_7  and  N_8
REMARK    6  A    between atoms: C_21  and  C_23
REMARK                            x       y       z     vdW  Elec       q    Type
REMARK                         _______ _______ _______ _____ _____    ______ ____
ROOT
ATOM      1  C   UNL     1      -0.964  11.106  20.620  0.00  0.00    +0.000 C 
ENDROOT
BRANCH   1   2
ATOM      2  N   UNL     1      -1.553  12.314  21.253  0.00  0.00    +0.000 NA
ATOM      3  C   UNL     1      -2.349  13.136  20.337  0.00  0.00    +0.000 C 
ATOM      4  C   UNL     1      -3.042  14.328  20.904  0.00  0.00    +0.000 C 
ATOM      5  C   UNL     1      -3.831  13.874  22.131  0.00  0.00    +0.000 C 
ATOM      6  C   UNL     1      -2.893  13.187  23.133  0.00  0.00    +0.000 C 
ATOM      7  C   UNL     1      -2.205  11.977  22.533  0.00  0.00    +0.000 C 
BRANCH   5   8
ATOM      8  N   UNL     1      -5.044  13.082  21.816  0.00  0.00    +0.000 N 
ATOM      9  C   UNL     1      -6.041  12.811  22.790  0.00  0.00    +0.000 A 
ATOM     10  O   UNL     1      -6.077  13.182  23.951  0.00  0.00    +0.000 OA
ATOM     11  N   UNL     1      -7.010  12.010  22.159  0.00  0.00    +0.000 N 
ATOM     12  C   UNL     1      -6.641  11.771  20.840  0.00  0.00    +0.000 A 
ATOM     13  C   UNL     1      -7.276  11.031  19.845  0.00  0.00    +0.000 A 
ATOM     14  C   UNL     1      -6.698  10.933  18.566  0.00  0.00    +0.000 A 
ATOM     15  C   UNL     1      -5.501  11.549  18.317  0.00  0.00    +0.000 A 
ATOM     16  C   UNL     1      -4.918  12.268  19.347  0.00  0.00    +0.000 A 
ATOM     17  C   UNL     1      -5.446  12.409  20.616  0.00  0.00    +0.000 A 
ATOM     18  H   UNL     1      -7.824  11.662  22.632  0.00  0.00    +0.000 HD
ENDBRANCH   5   8
ENDBRANCH   1   2
BRANCH   1  20
ATOM     19  C   UNL     1       1.314  12.115  19.771  0.00  0.00    +0.000 C 
ATOM     20  C   UNL     1       0.604  10.999  20.582  0.00  0.00    +0.000 C 
BRANCH  20  21
ATOM     21  N   UNL     1       1.017   9.715  19.994  0.00  0.00    +0.000 N 
ATOM     22  C   UNL     1       1.433   8.625  20.745  0.00  0.00    +0.000 C 
ATOM     23  O   UNL     1       1.499   8.610  21.969  0.00  0.00    +0.000 OA
ATOM     24  H   UNL     1       0.975   9.652  18.984  0.00  0.00    +0.000 HD
BRANCH  22  25
ATOM     25  C   UNL     1       1.894   7.438  19.973  0.00  0.00    +0.000 A 
ATOM     26  C   UNL     1       1.651   6.234  20.650  0.00  0.00    +0.000 A 
ATOM     27  C   UNL     1       1.970   5.068  20.062  0.00  0.00    +0.000 A 
ATOM     28  C   UNL     1       2.703   5.172  18.950  0.00  0.00    +0.000 A 
ATOM     29  N   UNL     1       3.349   4.092  18.685  0.00  0.00    +0.000 NA
ATOM     30  C   UNL     1       3.973   3.014  18.448  0.00  0.00    +0.000 A 
ATOM     31  C   UNL     1       4.429   3.779  17.439  0.00  0.00    +0.000 A 
ATOM     32  C   UNL     1       4.116   5.397  17.178  0.00  0.00    +0.000 A 
ATOM     33  C   UNL     1       3.151   6.168  18.156  0.00  0.00    +0.000 A 
ATOM     34  C   UNL     1       2.508   7.437  18.664  0.00  0.00    +0.000 A 
ENDBRANCH  22  25
ENDBRANCH  20  21
ENDBRANCH   1  20
TORSDOF 5
ENDMDL
MODEL 5
REMARK VINA RESULT:      -8.1      1.884      9.135
REMARK  Name = 
REMARK  6 active torsions:
REMARK  status: ('A' for Active; 'I' for Inactive)
REMARK    1  A    between atoms: C_1  and  C_2
REMARK    2  A    between atoms: C_2  and  C_3
REMARK    3  A    between atoms: C_2  and  N_20
REMARK    4  A    between atoms: C_3  and  N_4
REMARK    5  A    between atoms: C_7  and  N_8
REMARK    6  A    between atoms: C_21  and  C_23
REMARK                            x       y       z     vdW  Elec       q    Type
REMARK                         _______ _______ _______ _____ _____    ______ ____
ROOT
ATOM      1  C   UNL     1      -0.147   8.881  21.117  0.00  0.00    +0.000 C 
ENDROOT
BRANCH   1   2
ATOM      2  N   UNL     1      -0.074  10.355  20.944  0.00  0.00    +0.000 NA
ATOM      3  C   UNL     1       0.020  10.785  19.545  0.00  0.00    +0.000 C 
ATOM      4  C   UNL     1       0.021  12.251  19.272  0.00  0.00    +0.000 C 
ATOM      5  C   UNL     1      -1.171  12.866  20.003  0.00  0.00    +0.000 C 
ATOM      6  C   UNL     1      -1.100  12.530  21.498  0.00  0.00    +0.000 C 
ATOM      7  C   UNL     1      -1.107  11.036  21.749  0.00  0.00    +0.000 C 
BRANCH   5   8
ATOM      8  N   UNL     1      -2.486  12.559  19.388  0.00  0.00    +0.000 N 
ATOM      9  C   UNL     1      -3.711  12.861  20.041  0.00  0.00    +0.000 A 
ATOM     10  O   UNL     1      -3.873  13.407  21.119  0.00  0.00    +0.000 OA
ATOM     11  N   UNL     1      -4.737  12.398  19.198  0.00  0.00    +0.000 N 
ATOM     12  C   UNL     1      -4.190  11.817  18.060  0.00  0.00    +0.000 A 
ATOM     13  C   UNL     1      -4.810  11.221  16.964  0.00  0.00    +0.000 A 
ATOM     14  C   UNL     1      -4.031  10.695  15.917  0.00  0.00    +0.000 A 
ATOM     15  C   UNL     1      -2.665  10.752  15.997  0.00  0.00    +0.000 A 
ATOM     16  C   UNL     1      -2.108  11.355  17.112  0.00  0.00    +0.000 A 
ATOM     17  C   UNL     1      -2.823  11.901  18.162  0.00  0.00    +0.000 A 
ATOM     18  H   UNL     1      -5.711  12.475  19.429  0.00  0.00    +0.000 HD
ENDBRANCH   5   8
ENDBRANCH   1   2
BRANCH   1  20
ATOM     19  C   UNL     1       2.010   9.070  22.612  0.00  0.00    +0.000 C 
ATOM     20  C   UNL     1       1.103   8.162  21.740  0.00  0.00    +0.000 C 
BRANCH  20  21
ATOM     21  N   UNL     1       1.955   7.602  20.680  0.00  0.00    +0.000 N 
ATOM     22  C   UNL     1       1.986   6.253  20.351  0.00  0.00    +0.000 C 
ATOM     23  O   UNL     1       1.311   5.389  20.901  0.00  0.00    +0.000 OA
ATOM     24  H   UNL     1       2.532   8.262  20.173  0.00  0.00    +0.000 HD
BRANCH  22  25
ATOM     25  C   UNL     1       2.971   5.857  19.308  0.00  0.00    +0.000 A 
ATOM     26  C   UNL     1       3.788   4.795  19.721  0.00  0.00    +0.000 A 
ATOM     27  C   UNL     1       4.700   4.292  18.871  0.00  0.00    +0.000 A 
ATOM     28  C   UNL     1       4.898   5.005  17.760  0.00  0.00    +0.000 A 
ATOM     29  N   UNL     1       6.040   4.767  17.219  0.00  0.00    +0.000 NA
ATOM     30  C   UNL     1       7.172   4.510  16.708  0.00  0.00    +0.000 A 
ATOM     31  C   UNL     1       6.739   5.462  15.861  0.00  0.00    +0.000 A 
ATOM     32  C   UNL     1       5.339   6.361  15.983  0.00  0.00    +0.000 A 
ATOM     33  C   UNL     1       4.342   6.087  17.172  0.00  0.00    +0.000 A 
ATOM     34  C   UNL     1       3.120   6.433  17.989  0.00  0.00    +0.000 A 
ENDBRANCH  22  25
ENDBRANCH  20  21
ENDBRANCH   1  20
TORSDOF 5
ENDMDL
MODEL 6
REMARK VINA RESULT:      -8.0      2.520      9.688
REMARK  Name = 
REMARK  6 active torsions:
REMARK  status: ('A' for Active; 'I' for Inactive)
REMARK    1  A    between atoms: C_1  and  C_2
REMARK    2  A    between atoms: C_2  and  C_3
REMARK    3  A    between atoms: C_2  and  N_20
REMARK    4  A    between atoms: C_3  and  N_4
REMARK    5  A    between atoms: C_7  and  N_8
REMARK    6  A    between atoms: C_21  and  C_23
REMARK                            x       y       z     vdW  Elec       q    Type
REMARK                         _______ _______ _______ _____ _____    ______ ____
ROOT
ATOM      1  C   UNL     1      -0.358   8.830  20.880  0.00  0.00    +0.000 C 
ENDROOT
BRANCH   1   2
ATOM      2  N   UNL     1      -0.336  10.234  20.394  0.00  0.00    +0.000 NA
ATOM      3  C   UNL     1      -0.751  10.385  18.996  0.00  0.00    +0.000 C 
ATOM      4  C   UNL     1      -0.833  11.768  18.446  0.00  0.00    +0.000 C 
ATOM      5  C   UNL     1      -1.672  12.608  19.407  0.00  0.00    +0.000 C 
ATOM      6  C   UNL     1      -1.067  12.553  20.816  0.00  0.00    +0.000 C 
ATOM      7  C   UNL     1      -0.999  11.138  21.354  0.00  0.00    +0.000 C 
BRANCH   5   8
ATOM      8  N   UNL     1      -3.123  12.304  19.374  0.00  0.00    +0.000 N 
ATOM      9  C   UNL     1      -3.762  11.807  18.207  0.00  0.00    +0.000 A 
ATOM     10  O   UNL     1      -3.256  11.539  17.129  0.00  0.00    +0.000 OA
ATOM     11  N   UNL     1      -5.127  11.677  18.522  0.00  0.00    +0.000 N 
ATOM     12  C   UNL     1      -5.351  12.084  19.832  0.00  0.00    +0.000 A 
ATOM     13  C   UNL     1      -6.531  12.141  20.570  0.00  0.00    +0.000 A 
ATOM     14  C   UNL     1      -6.506  12.596  21.901  0.00  0.00    +0.000 A 
ATOM     15  C   UNL     1      -5.320  13.004  22.453  0.00  0.00    +0.000 A 
ATOM     16  C   UNL     1      -4.182  12.926  21.668  0.00  0.00    +0.000 A 
ATOM     17  C   UNL     1      -4.146  12.474  20.363  0.00  0.00    +0.000 A 
ATOM     18  H   UNL     1      -5.812  11.355  17.863  0.00  0.00    +0.000 HD
ENDBRANCH   5   8
ENDBRANCH   1   2
BRANCH   1  20
ATOM     19  C   UNL     1       1.792   9.330  22.314  0.00  0.00    +0.000 C 
ATOM     20  C   UNL     1       0.952   8.274  21.547  0.00  0.00    +0.000 C 
BRANCH  20  21
ATOM     21  N   UNL     1       1.836   7.683  20.531  0.00  0.00    +0.000 N 
ATOM     22  C   UNL     1       1.960   6.316  20.322  0.00  0.00    +0.000 C 
ATOM     23  O   UNL     1       1.351   5.459  20.954  0.00  0.00    +0.000 OA
ATOM     24  H   UNL     1       2.362   8.334  19.961  0.00  0.00    +0.000 HD
BRANCH  22  25
ATOM     25  C   UNL     1       2.965   5.899  19.306  0.00  0.00    +0.000 A 
ATOM     26  C   UNL     1       3.808   4.882  19.776  0.00  0.00    +0.000 A 
ATOM     27  C   UNL     1       4.742   4.365  18.958  0.00  0.00    +0.000 A 
ATOM     28  C   UNL     1       4.929   5.029  17.815  0.00  0.00    +0.000 A 
ATOM     29  N   UNL     1       6.082   4.798  17.295  0.00  0.00    +0.000 NA
ATOM     30  C   UNL     1       7.225   4.550  16.806  0.00  0.00    +0.000 A 
ATOM     31  C   UNL     1       6.773   5.447  15.910  0.00  0.00    +0.000 A 
ATOM     32  C   UNL     1       5.346   6.310  15.979  0.00  0.00    +0.000 A 
ATOM     33  C   UNL     1       4.348   6.065  17.172  0.00  0.00    +0.000 A 
ATOM     34  C   UNL     1       3.109   6.415  17.963  0.00  0.00    +0.000 A 
ENDBRANCH  22  25
ENDBRANCH  20  21
ENDBRANCH   1  20
TORSDOF 5
ENDMDL
MODEL 7
REMARK VINA RESULT:      -8.0      2.511      9.556
REMARK  Name = 
REMARK  6 active torsions:
REMARK  status: ('A' for Active; 'I' for Inactive)
REMARK    1  A    between atoms: C_1  and  C_2
REMARK    2  A    between atoms: C_2  and  C_3
REMARK    3  A    between atoms: C_2  and  N_20
REMARK    4  A    between atoms: C_3  and  N_4
REMARK    5  A    between atoms: C_7  and  N_8
REMARK    6  A    between atoms: C_21  and  C_23
REMARK                            x       y       z     vdW  Elec       q    Type
REMARK                         _______ _______ _______ _____ _____    ______ ____
ROOT
ATOM      1  C   UNL     1      -0.416   9.006  21.142  0.00  0.00    +0.000 C 
ENDROOT
BRANCH   1   2
ATOM      2  N   UNL     1      -0.437  10.481  20.975  0.00  0.00    +0.000 NA
ATOM      3  C   UNL     1      -0.985  10.926  19.689  0.00  0.00    +0.000 C 
ATOM      4  C   UNL     1      -1.115  12.395  19.466  0.00  0.00    +0.000 C 
ATOM      5  C   UNL     1      -1.855  12.989  20.663  0.00  0.00    +0.000 C 
ATOM      6  C   UNL     1      -1.116  12.639  21.962  0.00  0.00    +0.000 C 
ATOM      7  C   UNL     1      -1.001  11.142  22.168  0.00  0.00    +0.000 C 
BRANCH   5   8
ATOM      8  N   UNL     1      -3.304  12.673  20.701  0.00  0.00    +0.000 N 
ATOM      9  C   UNL     1      -4.072  12.804  21.888  0.00  0.00    +0.000 A 
ATOM     10  O   UNL     1      -3.703  13.197  22.983  0.00  0.00    +0.000 OA
ATOM     11  N   UNL     1      -5.376  12.383  21.570  0.00  0.00    +0.000 N 
ATOM     12  C   UNL     1      -5.434  11.990  20.238  0.00  0.00    +0.000 A 
ATOM     13  C   UNL     1      -6.500  11.497  19.488  0.00  0.00    +0.000 A 
ATOM     14  C   UNL     1      -6.311  11.163  18.135  0.00  0.00    +0.000 A 
ATOM     15  C   UNL     1      -5.071  11.303  17.571  0.00  0.00    +0.000 A 
ATOM     16  C   UNL     1      -4.052  11.796  18.368  0.00  0.00    +0.000 A 
ATOM     17  C   UNL     1      -4.183  12.154  19.696  0.00  0.00    +0.000 A 
ATOM     18  H   UNL     1      -6.123  12.363  22.240  0.00  0.00    +0.000 HD
ENDBRANCH   5   8
ENDBRANCH   1   2
BRANCH   1  20
ATOM     19  C   UNL     1       1.935   9.307  22.285  0.00  0.00    +0.000 C 
ATOM     20  C   UNL     1       0.941   8.345  21.583  0.00  0.00    +0.000 C 
BRANCH  20  21
ATOM     21  N   UNL     1       1.642   7.784  20.417  0.00  0.00    +0.000 N 
ATOM     22  C   UNL     1       1.845   6.424  20.225  0.00  0.00    +0.000 C 
ATOM     23  O   UNL     1       1.465   5.550  20.996  0.00  0.00    +0.000 OA
ATOM     24  H   UNL     1       1.973   8.451  19.731  0.00  0.00    +0.000 HD
BRANCH  22  25
ATOM     25  C   UNL     1       2.649   6.047  19.030  0.00  0.00    +0.000 A 
ATOM     26  C   UNL     1       2.683   4.660  18.826  0.00  0.00    +0.000 A 
ATOM     27  C   UNL     1       3.332   4.164  17.759  0.00  0.00    +0.000 A 
ATOM     28  C   UNL     1       4.085   5.041  17.091  0.00  0.00    +0.000 A 
ATOM     29  N   UNL     1       5.005   4.471  16.397  0.00  0.00    +0.000 NA
ATOM     30  C   UNL     1       5.902   3.882  15.722  0.00  0.00    +0.000 A 
ATOM     31  C   UNL     1       6.210   5.164  15.456  0.00  0.00    +0.000 A 
ATOM     32  C   UNL     1       5.505   6.528  16.111  0.00  0.00    +0.000 A 
ATOM     33  C   UNL     1       4.310   6.372  17.125  0.00  0.00    +0.000 A 
ATOM     34  C   UNL     1       3.327   6.943  18.120  0.00  0.00    +0.000 A 
ENDBRANCH  22  25
ENDBRANCH  20  21
ENDBRANCH   1  20
TORSDOF 5
ENDMDL
MODEL 8
REMARK VINA RESULT:      -7.9      2.572      9.496
REMARK  Name = 
REMARK  6 active torsions:
REMARK  status: ('A' for Active; 'I' for Inactive)
REMARK    1  A    between atoms: C_1  and  C_2
REMARK    2  A    between atoms: C_2  and  C_3
REMARK    3  A    between atoms: C_2  and  N_20
REMARK    4  A    between atoms: C_3  and  N_4
REMARK    5  A    between atoms: C_7  and  N_8
REMARK    6  A    between atoms: C_21  and  C_23
REMARK                            x       y       z     vdW  Elec       q    Type
REMARK                         _______ _______ _______ _____ _____    ______ ____
ROOT
ATOM      1  C   UNL     1      -0.378   8.889  21.131  0.00  0.00    +0.000 C 
ENDROOT
BRANCH   1   2
ATOM      2  N   UNL     1      -0.339  10.260  20.560  0.00  0.00    +0.000 NA
ATOM      3  C   UNL     1      -0.710  10.323  19.142  0.00  0.00    +0.000 C 
ATOM      4  C   UNL     1      -0.773  11.670  18.506  0.00  0.00    +0.000 C 
ATOM      5  C   UNL     1      -1.641  12.567  19.386  0.00  0.00    +0.000 C 
ATOM      6  C   UNL     1      -1.080  12.601  20.814  0.00  0.00    +0.000 C 
ATOM      7  C   UNL     1      -1.030  11.222  21.440  0.00  0.00    +0.000 C 
BRANCH   5   8
ATOM      8  N   UNL     1      -3.091  12.261  19.326  0.00  0.00    +0.000 N 
ATOM      9  C   UNL     1      -3.702  11.740  18.155  0.00  0.00    +0.000 A 
ATOM     10  O   UNL     1      -3.173  11.452  17.095  0.00  0.00    +0.000 OA
ATOM     11  N   UNL     1      -5.074  11.615  18.442  0.00  0.00    +0.000 N 
ATOM     12  C   UNL     1      -5.328  12.047  19.739  0.00  0.00    +0.000 A 
ATOM     13  C   UNL     1      -6.524  12.117  20.449  0.00  0.00    +0.000 A 
ATOM     14  C   UNL     1      -6.529  12.598  21.771  0.00  0.00    +0.000 A 
ATOM     15  C   UNL     1      -5.357  13.018  22.341  0.00  0.00    +0.000 A 
ATOM     16  C   UNL     1      -4.201  12.926  21.584  0.00  0.00    +0.000 A 
ATOM     17  C   UNL     1      -4.135  12.449  20.288  0.00  0.00    +0.000 A 
ATOM     18  H   UNL     1      -5.744  11.279  17.774  0.00  0.00    +0.000 HD
ENDBRANCH   5   8
ENDBRANCH   1   2
BRANCH   1  20
ATOM     19  C   UNL     1       1.718   9.327  22.661  0.00  0.00    +0.000 C 
ATOM     20  C   UNL     1       0.950   8.327  21.757  0.00  0.00    +0.000 C 
BRANCH  20  21
ATOM     21  N   UNL     1       1.881   7.909  20.697  0.00  0.00    +0.000 N 
ATOM     22  C   UNL     1       2.063   6.588  20.312  0.00  0.00    +0.000 C 
ATOM     23  O   UNL     1       1.473   5.633  20.806  0.00  0.00    +0.000 OA
ATOM     24  H   UNL     1       2.394   8.649  20.235  0.00  0.00    +0.000 HD
BRANCH  22  25
ATOM     25  C   UNL     1       3.109   6.347  19.280  0.00  0.00    +0.000 A 
ATOM     26  C   UNL     1       2.933   7.149  18.144  0.00  0.00    +0.000 A 
ATOM     27  C   UNL     1       3.824   7.081  17.140  0.00  0.00    +0.000 A 
ATOM     28  C   UNL     1       4.699   6.075  17.222  0.00  0.00    +0.000 A 
ATOM     29  N   UNL     1       5.209   5.774  16.082  0.00  0.00    +0.000 NA
ATOM     30  C   UNL     1       5.696   5.498  14.944  0.00  0.00    +0.000 A 
ATOM     31  C   UNL     1       6.295   4.555  15.692  0.00  0.00    +0.000 A 
ATOM     32  C   UNL     1       6.034   4.232  17.309  0.00  0.00    +0.000 A 
ATOM     33  C   UNL     1       5.022   5.123  18.124  0.00  0.00    +0.000 A 
ATOM     34  C   UNL     1       4.222   5.428  19.369  0.00  0.00    +0.000 A 
ENDBRANCH  22  25
ENDBRANCH  20  21
ENDBRANCH   1  20
TORSDOF 5
ENDMDL
MODEL 9
REMARK VINA RESULT:      -7.9      3.526      9.320
REMARK  Name = 
REMARK  6 active torsions:
REMARK  status: ('A' for Active; 'I' for Inactive)
REMARK    1  A    between atoms: C_1  and  C_2
REMARK    2  A    between atoms: C_2  and  C_3
REMARK    3  A    between atoms: C_2  and  N_20
REMARK    4  A    between atoms: C_3  and  N_4
REMARK    5  A    between atoms: C_7  and  N_8
REMARK    6  A    between atoms: C_21  and  C_23
REMARK                            x       y       z     vdW  Elec       q    Type
REMARK                         _______ _______ _______ _____ _____    ______ ____
ROOT
ATOM      1  C   UNL     1      -0.444  10.813  19.409  0.00  0.00    +0.000 C 
ENDROOT
BRANCH   1   2
ATOM      2  N   UNL     1      -0.952  11.842  20.352  0.00  0.00    +0.000 NA
ATOM      3  C   UNL     1       0.001  12.201  21.407  0.00  0.00    +0.000 C 
ATOM      4  C   UNL     1      -0.394  13.283  22.354  0.00  0.00    +0.000 C 
ATOM      5  C   UNL     1      -0.849  14.487  21.531  0.00  0.00    +0.000 C 
ATOM      6  C   UNL     1      -1.980  14.074  20.580  0.00  0.00    +0.000 C 
ATOM      7  C   UNL     1      -1.552  12.978  19.625  0.00  0.00    +0.000 C 
BRANCH   5   8
ATOM      8  N   UNL     1       0.255  15.216  20.859  0.00  0.00    +0.000 N 
ATOM      9  C   UNL     1       1.581  15.206  21.364  0.00  0.00    +0.000 A 
ATOM     10  O   UNL     1       2.009  14.617  22.343  0.00  0.00    +0.000 OA
ATOM     11  N   UNL     1       2.341  16.027  20.511  0.00  0.00    +0.000 N 
ATOM     12  C   UNL     1       1.529  16.547  19.509  0.00  0.00    +0.000 A 
ATOM     13  C   UNL     1       1.834  17.407  18.456  0.00  0.00    +0.000 A 
ATOM     14  C   UNL     1       0.827  17.799  17.556  0.00  0.00    +0.000 A 
ATOM     15  C   UNL     1      -0.454  17.350  17.737  0.00  0.00    +0.000 A 
ATOM     16  C   UNL     1      -0.694  16.499  18.803  0.00  0.00    +0.000 A 
ATOM     17  C   UNL     1       0.257  16.070  19.709  0.00  0.00    +0.000 A 
ATOM     18  H   UNL     1       3.319  16.205  20.651  0.00  0.00    +0.000 HD
ENDBRANCH   5   8
ENDBRANCH   1   2
BRANCH   1  20
ATOM     19  C   UNL     1       1.880  11.240  18.252  0.00  0.00    +0.000 C 
ATOM     20  C   UNL     1       1.104  10.540  19.398  0.00  0.00    +0.000 C 
BRANCH  20  21
ATOM     21  N   UNL     1       1.370   9.098  19.275  0.00  0.00    +0.000 N 
ATOM     22  C   UNL     1       1.558   8.257  20.364  0.00  0.00    +0.000 C 
ATOM     23  O   UNL     1       1.520   8.618  21.535  0.00  0.00    +0.000 OA
ATOM     24  H   UNL     1       1.403   8.728  18.334  0.00  0.00    +0.000 HD
BRANCH  22  25
ATOM     25  C   UNL     1       1.901   6.844  20.045  0.00  0.00    +0.000 A 
ATOM     26  C   UNL     1       2.573   6.721  18.820  0.00  0.00    +0.000 A 
ATOM     27  C   UNL     1       2.991   5.510  18.413  0.00  0.00    +0.000 A 
ATOM     28  C   UNL     1       2.530   4.478  19.124  0.00  0.00    +0.000 A 
ATOM     29  N   UNL     1       2.566   3.373  18.469  0.00  0.00    +0.000 NA
ATOM     30  C   UNL     1       2.615   2.298  17.799  0.00  0.00    +0.000 A 
ATOM     31  C   UNL     1       2.043   1.847  18.929  0.00  0.00    +0.000 A 
ATOM     32  C   UNL     1       1.558   2.751  20.246  0.00  0.00    +0.000 A 
ATOM     33  C   UNL     1       1.809   4.306  20.254  0.00  0.00    +0.000 A 
ATOM     34  C   UNL     1       1.630   5.678  20.858  0.00  0.00    +0.000 A 
ENDBRANCH  22  25
ENDBRANCH  20  21
ENDBRANCH   1  20
TORSDOF 5
ENDMDL
