MODEL 1
REMARK VINA RESULT:      -7.9      0.000      0.000
REMARK  Name = 
REMARK  9 active torsions:
REMARK  status: ('A' for Active; 'I' for Inactive)
REMARK    1  A    between atoms: O_1  and  C_2
REMARK    2  A    between atoms: C_2  and  C_3
REMARK    3  A    between atoms: C_3  and  N_4
REMARK    4  A    between atoms: N_4  and  N_10
REMARK    5  A    between atoms: N_10  and  C_19
REMARK    6  A    between atoms: C_11  and  C_12
REMARK    7  A    between atoms: C_17  and  O_18
REMARK    8  A    between atoms: C_19  and  C_20
REMARK    9  A    between atoms: C_25  and  O_26
REMARK                            x       y       z     vdW  Elec       q    Type
REMARK                         _______ _______ _______ _____ _____    ______ ____
ROOT
ATOM      1  N   UNL     1       5.092   4.506  18.389  0.00  0.00    +0.000 N 
ATOM      2  C   UNL     1       4.586   3.329  18.603  0.00  0.00    +0.000 C 
ENDROOT
BRANCH   1   3
ATOM      3  N   UNL     1       6.142   4.684  17.631  0.00  0.00    +0.000 N 
ATOM      4  C   UNL     1       6.097   4.523  16.244  0.00  0.00    +0.000 C 
ATOM      5  N   UNL     1       5.013   4.502  15.509  0.00  0.00    +0.000 NA
ATOM      6  C   UNL     1       5.483   4.297  14.114  0.00  0.00    +0.000 C 
ATOM      7  C   UNL     1       7.004   4.421  14.142  0.00  0.00    +0.000 C 
ATOM      8  N   UNL     1       7.287   4.419  15.568  0.00  0.00    +0.000 N 
ATOM      9  H   UNL     1       7.855   3.625  15.853  0.00  0.00    +0.000 HD
BRANCH   3  10
ATOM     10  C   UNL     1       7.384   5.217  18.253  0.00  0.00    +0.000 C 
BRANCH  10  11
ATOM     11  C   UNL     1       7.518   6.749  18.121  0.00  0.00    +0.000 C 
BRANCH  11  12
ATOM     12  O   UNL     1       7.811   7.134  16.780  0.00  0.00    +0.000 OA
ATOM     13  H   UNL     1       8.643   6.687  16.530  0.00  0.00    +0.000 HD
ENDBRANCH  11  12
ENDBRANCH  10  11
ENDBRANCH   3  10
ENDBRANCH   1   3
BRANCH   2  14
ATOM     14  C   UNL     1       3.258   2.971  19.178  0.00  0.00    +0.000 A 
ATOM     15  C   UNL     1       3.039   2.729  20.544  0.00  0.00    +0.000 A 
ATOM     16  C   UNL     1       1.745   2.547  21.041  0.00  0.00    +0.000 A 
ATOM     17  C   UNL     1       0.657   2.630  20.178  0.00  0.00    +0.000 A 
ATOM     18  C   UNL     1       0.855   2.877  18.823  0.00  0.00    +0.000 A 
ATOM     19  C   UNL     1       2.148   3.040  18.333  0.00  0.00    +0.000 A 
BRANCH  19  20
ATOM     20  O   UNL     1       2.307   3.241  16.991  0.00  0.00    +0.000 OA
ATOM     21  H   UNL     1       1.474   3.610  16.639  0.00  0.00    +0.000 HD
ENDBRANCH  19  20
ENDBRANCH   2  14
BRANCH   1  22
ATOM     22  C   UNL     1       4.682   5.568  19.238  0.00  0.00    +0.000 C 
BRANCH  22  23
ATOM     23  C   UNL     1       3.578   6.482  18.882  0.00  0.00    +0.000 A 
ATOM     24  C   UNL     1       3.729   7.291  17.744  0.00  0.00    +0.000 A 
ATOM     25  C   UNL     1       2.840   8.340  17.494  0.00  0.00    +0.000 A 
ATOM     26  C   UNL     1       1.790   8.596  18.373  0.00  0.00    +0.000 A 
ATOM     27  C   UNL     1       1.618   7.802  19.504  0.00  0.00    +0.000 A 
ATOM     28  C   UNL     1       2.512   6.761  19.758  0.00  0.00    +0.000 A 
BRANCH  28  29
ATOM     29  O   UNL     1       2.388   6.057  20.929  0.00  0.00    +0.000 OA
ATOM     30  H   UNL     1       2.942   6.491  21.605  0.00  0.00    +0.000 HD
ENDBRANCH  28  29
ENDBRANCH  22  23
ENDBRANCH   1  22
TORSDOF 9
ENDMDL
MODEL 2
REMARK VINA RESULT:      -7.3      1.758      4.780
REMARK  Name = 
REMARK  9 active torsions:
REMARK  status: ('A' for Active; 'I' for Inactive)
REMARK    1  A    between atoms: O_1  and  C_2
REMARK    2  A    between atoms: C_2  and  C_3
REMARK    3  A    between atoms: C_3  and  N_4
REMARK    4  A    between atoms: N_4  and  N_10
REMARK    5  A    between atoms: N_10  and  C_19
REMARK    6  A    between atoms: C_11  and  C_12
REMARK    7  A    between atoms: C_17  and  O_18
REMARK    8  A    between atoms: C_19  and  C_20
REMARK    9  A    between atoms: C_25  and  O_26
REMARK                            x       y       z     vdW  Elec       q    Type
REMARK                         _______ _______ _______ _____ _____    ______ ____
ROOT
ATOM      1  N   UNL     1       3.414   6.207  18.124  0.00  0.00    +0.000 N 
ATOM      2  C   UNL     1       3.396   7.504  18.201  0.00  0.00    +0.000 C 
ENDROOT
BRANCH   1   3
ATOM      3  N   UNL     1       4.530   5.530  18.066  0.00  0.00    +0.000 N 
ATOM      4  C   UNL     1       5.161   5.235  16.855  0.00  0.00    +0.000 C 
ATOM      5  N   UNL     1       4.936   5.826  15.709  0.00  0.00    +0.000 NA
ATOM      6  C   UNL     1       5.835   5.156  14.733  0.00  0.00    +0.000 C 
ATOM      7  C   UNL     1       6.755   4.245  15.540  0.00  0.00    +0.000 C 
ATOM      8  N   UNL     1       6.137   4.269  16.855  0.00  0.00    +0.000 N 
ATOM      9  H   UNL     1       5.810   3.352  17.151  0.00  0.00    +0.000 HD
BRANCH   3  10
ATOM     10  C   UNL     1       5.224   5.193  19.339  0.00  0.00    +0.000 C 
BRANCH  10  11
ATOM     11  C   UNL     1       4.733   3.869  19.964  0.00  0.00    +0.000 C 
BRANCH  11  12
ATOM     12  O   UNL     1       5.265   2.739  19.277  0.00  0.00    +0.000 OA
ATOM     13  H   UNL     1       5.053   2.854  18.330  0.00  0.00    +0.000 HD
ENDBRANCH  11  12
ENDBRANCH  10  11
ENDBRANCH   3  10
ENDBRANCH   1   3
BRANCH   2  14
ATOM     14  C   UNL     1       2.265   8.405  18.565  0.00  0.00    +0.000 A 
ATOM     15  C   UNL     1       1.599   9.231  17.645  0.00  0.00    +0.000 A 
ATOM     16  C   UNL     1       0.452   9.938  18.017  0.00  0.00    +0.000 A 
ATOM     17  C   UNL     1      -0.054   9.804  19.306  0.00  0.00    +0.000 A 
ATOM     18  C   UNL     1       0.589   8.983  20.228  0.00  0.00    +0.000 A 
ATOM     19  C   UNL     1       1.741   8.296  19.855  0.00  0.00    +0.000 A 
BRANCH  19  20
ATOM     20  O   UNL     1       2.368   7.531  20.798  0.00  0.00    +0.000 OA
ATOM     21  H   UNL     1       2.563   6.661  20.401  0.00  0.00    +0.000 HD
ENDBRANCH  19  20
ENDBRANCH   2  14
BRANCH   1  22
ATOM     22  C   UNL     1       2.202   5.547  17.789  0.00  0.00    +0.000 C 
BRANCH  22  23
ATOM     23  C   UNL     1       1.703   4.381  18.546  0.00  0.00    +0.000 A 
ATOM     24  C   UNL     1       1.282   4.583  19.871  0.00  0.00    +0.000 A 
ATOM     25  C   UNL     1       1.032   3.495  20.712  0.00  0.00    +0.000 A 
ATOM     26  C   UNL     1       1.199   2.193  20.244  0.00  0.00    +0.000 A 
ATOM     27  C   UNL     1       1.609   1.971  18.932  0.00  0.00    +0.000 A 
ATOM     28  C   UNL     1       1.866   3.058  18.096  0.00  0.00    +0.000 A 
BRANCH  28  29
ATOM     29  O   UNL     1       2.369   2.820  16.842  0.00  0.00    +0.000 OA
ATOM     30  H   UNL     1       2.802   1.945  16.848  0.00  0.00    +0.000 HD
ENDBRANCH  28  29
ENDBRANCH  22  23
ENDBRANCH   1  22
TORSDOF 9
ENDMDL
MODEL 3
REMARK VINA RESULT:      -7.2      1.978      4.711
REMARK  Name = 
REMARK  9 active torsions:
REMARK  status: ('A' for Active; 'I' for Inactive)
REMARK    1  A    between atoms: O_1  and  C_2
REMARK    2  A    between atoms: C_2  and  C_3
REMARK    3  A    between atoms: C_3  and  N_4
REMARK    4  A    between atoms: N_4  and  N_10
REMARK    5  A    between atoms: N_10  and  C_19
REMARK    6  A    between atoms: C_11  and  C_12
REMARK    7  A    between atoms: C_17  and  O_18
REMARK    8  A    between atoms: C_19  and  C_20
REMARK    9  A    between atoms: C_25  and  O_26
REMARK                            x       y       z     vdW  Elec       q    Type
REMARK                         _______ _______ _______ _____ _____    ______ ____
ROOT
ATOM      1  N   UNL     1       3.406   6.202  18.361  0.00  0.00    +0.000 N 
ATOM      2  C   UNL     1       3.294   7.463  18.650  0.00  0.00    +0.000 C 
ENDROOT
BRANCH   1   3
ATOM      3  N   UNL     1       4.568   5.630  18.180  0.00  0.00    +0.000 N 
ATOM      4  C   UNL     1       5.151   5.510  16.917  0.00  0.00    +0.000 C 
ATOM      5  N   UNL     1       4.817   6.191  15.850  0.00  0.00    +0.000 NA
ATOM      6  C   UNL     1       5.710   5.699  14.769  0.00  0.00    +0.000 C 
ATOM      7  C   UNL     1       6.744   4.794  15.433  0.00  0.00    +0.000 C 
ATOM      8  N   UNL     1       6.200   4.636  16.771  0.00  0.00    +0.000 N 
ATOM      9  H   UNL     1       5.964   3.670  16.987  0.00  0.00    +0.000 HD
BRANCH   3  10
ATOM     10  C   UNL     1       5.355   5.229  19.377  0.00  0.00    +0.000 C 
BRANCH  10  11
ATOM     11  C   UNL     1       4.897   3.884  19.981  0.00  0.00    +0.000 C 
BRANCH  11  12
ATOM     12  O   UNL     1       5.235   2.790  19.132  0.00  0.00    +0.000 OA
ATOM     13  H   UNL     1       5.709   2.136  19.683  0.00  0.00    +0.000 HD
ENDBRANCH  11  12
ENDBRANCH  10  11
ENDBRANCH   3  10
ENDBRANCH   1   3
BRANCH   2  14
ATOM     14  C   UNL     1       2.109   8.204  19.169  0.00  0.00    +0.000 A 
ATOM     15  C   UNL     1       1.588   8.034  20.462  0.00  0.00    +0.000 A 
ATOM     16  C   UNL     1       0.571   8.866  20.939  0.00  0.00    +0.000 A 
ATOM     17  C   UNL     1       0.085   9.892  20.135  0.00  0.00    +0.000 A 
ATOM     18  C   UNL     1       0.595  10.080  18.854  0.00  0.00    +0.000 A 
ATOM     19  C   UNL     1       1.596   9.236  18.380  0.00  0.00    +0.000 A 
BRANCH  19  20
ATOM     20  O   UNL     1       2.045   9.425  17.103  0.00  0.00    +0.000 OA
ATOM     21  H   UNL     1       1.324   9.183  16.490  0.00  0.00    +0.000 HD
ENDBRANCH  19  20
ENDBRANCH   2  14
BRANCH   1  22
ATOM     22  C   UNL     1       2.239   5.514  17.934  0.00  0.00    +0.000 C 
BRANCH  22  23
ATOM     23  C   UNL     1       1.723   4.323  18.636  0.00  0.00    +0.000 A 
ATOM     24  C   UNL     1       1.317   4.467  19.973  0.00  0.00    +0.000 A 
ATOM     25  C   UNL     1       1.053   3.343  20.762  0.00  0.00    +0.000 A 
ATOM     26  C   UNL     1       1.191   2.063  20.229  0.00  0.00    +0.000 A 
ATOM     27  C   UNL     1       1.586   1.898  18.904  0.00  0.00    +0.000 A 
ATOM     28  C   UNL     1       1.858   3.020  18.120  0.00  0.00    +0.000 A 
BRANCH  28  29
ATOM     29  O   UNL     1       2.346   2.835  16.852  0.00  0.00    +0.000 OA
ATOM     30  H   UNL     1       3.075   3.469  16.710  0.00  0.00    +0.000 HD
ENDBRANCH  28  29
ENDBRANCH  22  23
ENDBRANCH   1  22
TORSDOF 9
ENDMDL
MODEL 4
REMARK VINA RESULT:      -7.2      1.802      4.476
REMARK  Name = 
REMARK  9 active torsions:
REMARK  status: ('A' for Active; 'I' for Inactive)
REMARK    1  A    between atoms: O_1  and  C_2
REMARK    2  A    between atoms: C_2  and  C_3
REMARK    3  A    between atoms: C_3  and  N_4
REMARK    4  A    between atoms: N_4  and  N_10
REMARK    5  A    between atoms: N_10  and  C_19
REMARK    6  A    between atoms: C_11  and  C_12
REMARK    7  A    between atoms: C_17  and  O_18
REMARK    8  A    between atoms: C_19  and  C_20
REMARK    9  A    between atoms: C_25  and  O_26
REMARK                            x       y       z     vdW  Elec       q    Type
REMARK                         _______ _______ _______ _____ _____    ______ ____
ROOT
ATOM      1  N   UNL     1       3.600   6.012  18.360  0.00  0.00    +0.000 N 
ATOM      2  C   UNL     1       3.482   7.283  18.599  0.00  0.00    +0.000 C 
ENDROOT
BRANCH   1   3
ATOM      3  N   UNL     1       4.762   5.445  18.174  0.00  0.00    +0.000 N 
ATOM      4  C   UNL     1       5.292   5.229  16.900  0.00  0.00    +0.000 C 
ATOM      5  N   UNL     1       4.900   5.813  15.797  0.00  0.00    +0.000 NA
ATOM      6  C   UNL     1       5.754   5.246  14.721  0.00  0.00    +0.000 C 
ATOM      7  C   UNL     1       6.831   4.414  15.410  0.00  0.00    +0.000 C 
ATOM      8  N   UNL     1       6.349   4.360  16.780  0.00  0.00    +0.000 N 
ATOM      9  H   UNL     1       6.140   3.412  17.085  0.00  0.00    +0.000 HD
BRANCH   3  10
ATOM     10  C   UNL     1       5.609   5.155  19.364  0.00  0.00    +0.000 C 
BRANCH  10  11
ATOM     11  C   UNL     1       7.030   5.747  19.255  0.00  0.00    +0.000 C 
BRANCH  11  12
ATOM     12  O   UNL     1       7.810   5.447  20.409  0.00  0.00    +0.000 OA
ATOM     13  H   UNL     1       7.256   5.645  21.189  0.00  0.00    +0.000 HD
ENDBRANCH  11  12
ENDBRANCH  10  11
ENDBRANCH   3  10
ENDBRANCH   1   3
BRANCH   2  14
ATOM     14  C   UNL     1       2.302   8.035  19.116  0.00  0.00    +0.000 A 
ATOM     15  C   UNL     1       1.788   7.882  20.414  0.00  0.00    +0.000 A 
ATOM     16  C   UNL     1       0.777   8.723  20.886  0.00  0.00    +0.000 A 
ATOM     17  C   UNL     1       0.289   9.741  20.073  0.00  0.00    +0.000 A 
ATOM     18  C   UNL     1       0.793   9.912  18.787  0.00  0.00    +0.000 A 
ATOM     19  C   UNL     1       1.789   9.060  18.318  0.00  0.00    +0.000 A 
BRANCH  19  20
ATOM     20  O   UNL     1       2.231   9.232  17.036  0.00  0.00    +0.000 OA
ATOM     21  H   UNL     1       1.491   9.582  16.505  0.00  0.00    +0.000 HD
ENDBRANCH  19  20
ENDBRANCH   2  14
BRANCH   1  22
ATOM     22  C   UNL     1       2.430   5.297  17.990  0.00  0.00    +0.000 C 
BRANCH  22  23
ATOM     23  C   UNL     1       1.872   4.212  18.821  0.00  0.00    +0.000 A 
ATOM     24  C   UNL     1       1.561   4.498  20.161  0.00  0.00    +0.000 A 
ATOM     25  C   UNL     1       1.264   3.468  21.057  0.00  0.00    +0.000 A 
ATOM     26  C   UNL     1       1.273   2.141  20.632  0.00  0.00    +0.000 A 
ATOM     27  C   UNL     1       1.572   1.836  19.306  0.00  0.00    +0.000 A 
ATOM     28  C   UNL     1       1.877   2.865  18.414  0.00  0.00    +0.000 A 
BRANCH  28  29
ATOM     29  O   UNL     1       2.271   2.538  17.141  0.00  0.00    +0.000 OA
ATOM     30  H   UNL     1       3.188   2.847  17.016  0.00  0.00    +0.000 HD
ENDBRANCH  28  29
ENDBRANCH  22  23
ENDBRANCH   1  22
TORSDOF 9
ENDMDL
MODEL 5
REMARK VINA RESULT:      -7.1      0.899      1.295
REMARK  Name = 
REMARK  9 active torsions:
REMARK  status: ('A' for Active; 'I' for Inactive)
REMARK    1  A    between atoms: O_1  and  C_2
REMARK    2  A    between atoms: C_2  and  C_3
REMARK    3  A    between atoms: C_3  and  N_4
REMARK    4  A    between atoms: N_4  and  N_10
REMARK    5  A    between atoms: N_10  and  C_19
REMARK    6  A    between atoms: C_11  and  C_12
REMARK    7  A    between atoms: C_17  and  O_18
REMARK    8  A    between atoms: C_19  and  C_20
REMARK    9  A    between atoms: C_25  and  O_26
REMARK                            x       y       z     vdW  Elec       q    Type
REMARK                         _______ _______ _______ _____ _____    ______ ____
ROOT
ATOM      1  N   UNL     1       5.057   4.629  18.113  0.00  0.00    +0.000 N 
ATOM      2  C   UNL     1       4.444   3.490  18.235  0.00  0.00    +0.000 C 
ENDROOT
BRANCH   1   3
ATOM      3  N   UNL     1       6.139   4.761  17.391  0.00  0.00    +0.000 N 
ATOM      4  C   UNL     1       6.138   4.590  16.005  0.00  0.00    +0.000 C 
ATOM      5  N   UNL     1       5.081   4.601  15.232  0.00  0.00    +0.000 NA
ATOM      6  C   UNL     1       5.593   4.367  13.857  0.00  0.00    +0.000 C 
ATOM      7  C   UNL     1       7.115   4.436  13.938  0.00  0.00    +0.000 C 
ATOM      8  N   UNL     1       7.347   4.436  15.373  0.00  0.00    +0.000 N 
ATOM      9  H   UNL     1       7.875   3.625  15.685  0.00  0.00    +0.000 HD
BRANCH   3  10
ATOM     10  C   UNL     1       7.378   5.255  18.053  0.00  0.00    +0.000 C 
BRANCH  10  11
ATOM     11  C   UNL     1       7.534   6.789  17.979  0.00  0.00    +0.000 C 
BRANCH  11  12
ATOM     12  O   UNL     1       7.796   7.222  16.646  0.00  0.00    +0.000 OA
ATOM     13  H   UNL     1       8.054   6.431  16.133  0.00  0.00    +0.000 HD
ENDBRANCH  11  12
ENDBRANCH  10  11
ENDBRANCH   3  10
ENDBRANCH   1   3
BRANCH   2  14
ATOM     14  C   UNL     1       3.074   3.215  18.755  0.00  0.00    +0.000 A 
ATOM     15  C   UNL     1       1.903   3.394  18.001  0.00  0.00    +0.000 A 
ATOM     16  C   UNL     1       0.664   2.975  18.493  0.00  0.00    +0.000 A 
ATOM     17  C   UNL     1       0.589   2.350  19.734  0.00  0.00    +0.000 A 
ATOM     18  C   UNL     1       1.741   2.158  20.492  0.00  0.00    +0.000 A 
ATOM     19  C   UNL     1       2.969   2.593  20.002  0.00  0.00    +0.000 A 
BRANCH  19  20
ATOM     20  O   UNL     1       4.073   2.424  20.790  0.00  0.00    +0.000 OA
ATOM     21  H   UNL     1       3.978   3.001  21.571  0.00  0.00    +0.000 HD
ENDBRANCH  19  20
ENDBRANCH   2  14
BRANCH   1  22
ATOM     22  C   UNL     1       4.719   5.664  19.024  0.00  0.00    +0.000 C 
BRANCH  22  23
ATOM     23  C   UNL     1       3.576   6.571  18.799  0.00  0.00    +0.000 A 
ATOM     24  C   UNL     1       3.646   7.469  17.721  0.00  0.00    +0.000 A 
ATOM     25  C   UNL     1       2.719   8.509  17.600  0.00  0.00    +0.000 A 
ATOM     26  C   UNL     1       1.714   8.668  18.552  0.00  0.00    +0.000 A 
ATOM     27  C   UNL     1       1.623   7.785  19.625  0.00  0.00    +0.000 A 
ATOM     28  C   UNL     1       2.553   6.753  19.749  0.00  0.00    +0.000 A 
BRANCH  28  29
ATOM     29  O   UNL     1       2.511   5.959  20.867  0.00  0.00    +0.000 OA
ATOM     30  H   UNL     1       3.295   5.377  20.858  0.00  0.00    +0.000 HD
ENDBRANCH  28  29
ENDBRANCH  22  23
ENDBRANCH   1  22
TORSDOF 9
ENDMDL
MODEL 6
REMARK VINA RESULT:      -7.1      0.981      1.360
REMARK  Name = 
REMARK  9 active torsions:
REMARK  status: ('A' for Active; 'I' for Inactive)
REMARK    1  A    between atoms: O_1  and  C_2
REMARK    2  A    between atoms: C_2  and  C_3
REMARK    3  A    between atoms: C_3  and  N_4
REMARK    4  A    between atoms: N_4  and  N_10
REMARK    5  A    between atoms: N_10  and  C_19
REMARK    6  A    between atoms: C_11  and  C_12
REMARK    7  A    between atoms: C_17  and  O_18
REMARK    8  A    between atoms: C_19  and  C_20
REMARK    9  A    between atoms: C_25  and  O_26
REMARK                            x       y       z     vdW  Elec       q    Type
REMARK                         _______ _______ _______ _____ _____    ______ ____
ROOT
ATOM      1  N   UNL     1       5.237   4.413  18.329  0.00  0.00    +0.000 N 
ATOM      2  C   UNL     1       4.632   3.275  18.487  0.00  0.00    +0.000 C 
ENDROOT
BRANCH   1   3
ATOM      3  N   UNL     1       6.265   4.549  17.532  0.00  0.00    +0.000 N 
ATOM      4  C   UNL     1       6.152   4.442  16.144  0.00  0.00    +0.000 C 
ATOM      5  N   UNL     1       5.040   4.519  15.457  0.00  0.00    +0.000 NA
ATOM      6  C   UNL     1       5.437   4.334  14.037  0.00  0.00    +0.000 C 
ATOM      7  C   UNL     1       6.963   4.356  14.002  0.00  0.00    +0.000 C 
ATOM      8  N   UNL     1       7.304   4.284  15.413  0.00  0.00    +0.000 N 
ATOM      9  H   UNL     1       7.828   3.445  15.647  0.00  0.00    +0.000 HD
BRANCH   3  10
ATOM     10  C   UNL     1       7.565   4.977  18.117  0.00  0.00    +0.000 C 
BRANCH  10  11
ATOM     11  C   UNL     1       7.741   6.510  18.146  0.00  0.00    +0.000 C 
BRANCH  11  12
ATOM     12  O   UNL     1       7.757   7.058  16.830  0.00  0.00    +0.000 OA
ATOM     13  H   UNL     1       7.959   8.010  16.918  0.00  0.00    +0.000 HD
ENDBRANCH  11  12
ENDBRANCH  10  11
ENDBRANCH   3  10
ENDBRANCH   1   3
BRANCH   2  14
ATOM     14  C   UNL     1       3.302   2.999  19.104  0.00  0.00    +0.000 A 
ATOM     15  C   UNL     1       3.112   2.765  20.475  0.00  0.00    +0.000 A 
ATOM     16  C   UNL     1       1.826   2.663  21.012  0.00  0.00    +0.000 A 
ATOM     17  C   UNL     1       0.718   2.820  20.185  0.00  0.00    +0.000 A 
ATOM     18  C   UNL     1       0.888   3.060  18.825  0.00  0.00    +0.000 A 
ATOM     19  C   UNL     1       2.173   3.143  18.295  0.00  0.00    +0.000 A 
BRANCH  19  20
ATOM     20  O   UNL     1       2.301   3.340  16.948  0.00  0.00    +0.000 OA
ATOM     21  H   UNL     1       1.428   3.197  16.537  0.00  0.00    +0.000 HD
ENDBRANCH  19  20
ENDBRANCH   2  14
BRANCH   1  22
ATOM     22  C   UNL     1       4.968   5.443  19.269  0.00  0.00    +0.000 C 
BRANCH  22  23
ATOM     23  C   UNL     1       3.906   6.446  19.059  0.00  0.00    +0.000 A 
ATOM     24  C   UNL     1       2.813   6.447  19.942  0.00  0.00    +0.000 A 
ATOM     25  C   UNL     1       1.669   7.198  19.658  0.00  0.00    +0.000 A 
ATOM     26  C   UNL     1       1.599   7.957  18.491  0.00  0.00    +0.000 A 
ATOM     27  C   UNL     1       2.673   7.975  17.606  0.00  0.00    +0.000 A 
ATOM     28  C   UNL     1       3.811   7.218  17.886  0.00  0.00    +0.000 A 
BRANCH  28  29
ATOM     29  O   UNL     1       4.815   7.167  16.952  0.00  0.00    +0.000 OA
ATOM     30  H   UNL     1       5.496   7.820  17.201  0.00  0.00    +0.000 HD
ENDBRANCH  28  29
ENDBRANCH  22  23
ENDBRANCH   1  22
TORSDOF 9
ENDMDL
MODEL 7
REMARK VINA RESULT:      -6.8      1.820      4.831
REMARK  Name = 
REMARK  9 active torsions:
REMARK  status: ('A' for Active; 'I' for Inactive)
REMARK    1  A    between atoms: O_1  and  C_2
REMARK    2  A    between atoms: C_2  and  C_3
REMARK    3  A    between atoms: C_3  and  N_4
REMARK    4  A    between atoms: N_4  and  N_10
REMARK    5  A    between atoms: N_10  and  C_19
REMARK    6  A    between atoms: C_11  and  C_12
REMARK    7  A    between atoms: C_17  and  O_18
REMARK    8  A    between atoms: C_19  and  C_20
REMARK    9  A    between atoms: C_25  and  O_26
REMARK                            x       y       z     vdW  Elec       q    Type
REMARK                         _______ _______ _______ _____ _____    ______ ____
ROOT
ATOM      1  N   UNL     1       3.396   5.986  17.926  0.00  0.00    +0.000 N 
ATOM      2  C   UNL     1       3.291   7.256  18.172  0.00  0.00    +0.000 C 
ENDROOT
BRANCH   1   3
ATOM      3  N   UNL     1       4.497   5.458  17.458  0.00  0.00    +0.000 N 
ATOM      4  C   UNL     1       5.684   5.433  18.193  0.00  0.00    +0.000 C 
ATOM      5  N   UNL     1       5.790   5.615  19.485  0.00  0.00    +0.000 NA
ATOM      6  C   UNL     1       7.242   5.508  19.783  0.00  0.00    +0.000 C 
ATOM      7  C   UNL     1       7.918   5.025  18.503  0.00  0.00    +0.000 C 
ATOM      8  N   UNL     1       6.851   5.153  17.524  0.00  0.00    +0.000 N 
ATOM      9  H   UNL     1       7.073   5.818  16.787  0.00  0.00    +0.000 HD
BRANCH   3  10
ATOM     10  C   UNL     1       4.439   4.730  16.161  0.00  0.00    +0.000 C 
BRANCH  10  11
ATOM     11  C   UNL     1       5.287   5.394  15.055  0.00  0.00    +0.000 C 
BRANCH  11  12
ATOM     12  O   UNL     1       5.282   6.814  15.177  0.00  0.00    +0.000 OA
ATOM     13  H   UNL     1       5.094   7.177  14.289  0.00  0.00    +0.000 HD
ENDBRANCH  11  12
ENDBRANCH  10  11
ENDBRANCH   3  10
ENDBRANCH   1   3
BRANCH   2  14
ATOM     14  C   UNL     1       2.250   7.974  18.963  0.00  0.00    +0.000 A 
ATOM     15  C   UNL     1       1.926   7.660  20.293  0.00  0.00    +0.000 A 
ATOM     16  C   UNL     1       1.051   8.467  21.026  0.00  0.00    +0.000 A 
ATOM     17  C   UNL     1       0.512   9.609  20.442  0.00  0.00    +0.000 A 
ATOM     18  C   UNL     1       0.828   9.939  19.128  0.00  0.00    +0.000 A 
ATOM     19  C   UNL     1       1.687   9.122  18.399  0.00  0.00    +0.000 A 
BRANCH  19  20
ATOM     20  O   UNL     1       1.943   9.455  17.098  0.00  0.00    +0.000 OA
ATOM     21  H   UNL     1       1.434   8.851  16.525  0.00  0.00    +0.000 HD
ENDBRANCH  19  20
ENDBRANCH   2  14
BRANCH   1  22
ATOM     22  C   UNL     1       2.202   5.219  17.875  0.00  0.00    +0.000 C 
BRANCH  22  23
ATOM     23  C   UNL     1       1.880   4.191  18.884  0.00  0.00    +0.000 A 
ATOM     24  C   UNL     1       1.751   4.596  20.224  0.00  0.00    +0.000 A 
ATOM     25  C   UNL     1       1.691   3.649  21.250  0.00  0.00    +0.000 A 
ATOM     26  C   UNL     1       1.759   2.289  20.957  0.00  0.00    +0.000 A 
ATOM     27  C   UNL     1       1.881   1.866  19.635  0.00  0.00    +0.000 A 
ATOM     28  C   UNL     1       1.950   2.811  18.612  0.00  0.00    +0.000 A 
BRANCH  28  29
ATOM     29  O   UNL     1       2.174   2.379  17.330  0.00  0.00    +0.000 OA
ATOM     30  H   UNL     1       1.315   2.142  16.933  0.00  0.00    +0.000 HD
ENDBRANCH  28  29
ENDBRANCH  22  23
ENDBRANCH   1  22
TORSDOF 9
ENDMDL
MODEL 8
REMARK VINA RESULT:      -6.8      2.388      5.598
REMARK  Name = 
REMARK  9 active torsions:
REMARK  status: ('A' for Active; 'I' for Inactive)
REMARK    1  A    between atoms: O_1  and  C_2
REMARK    2  A    between atoms: C_2  and  C_3
REMARK    3  A    between atoms: C_3  and  N_4
REMARK    4  A    between atoms: N_4  and  N_10
REMARK    5  A    between atoms: N_10  and  C_19
REMARK    6  A    between atoms: C_11  and  C_12
REMARK    7  A    between atoms: C_17  and  O_18
REMARK    8  A    between atoms: C_19  and  C_20
REMARK    9  A    between atoms: C_25  and  O_26
REMARK                            x       y       z     vdW  Elec       q    Type
REMARK                         _______ _______ _______ _____ _____    ______ ____
ROOT
ATOM      1  N   UNL     1       6.863   5.631  16.318  0.00  0.00    +0.000 N 
ATOM      2  C   UNL     1       7.381   4.724  15.546  0.00  0.00    +0.000 C 
ENDROOT
BRANCH   1   3
ATOM      3  N   UNL     1       7.441   6.012  17.427  0.00  0.00    +0.000 N 
ATOM      4  C   UNL     1       7.740   7.351  17.691  0.00  0.00    +0.000 C 
ATOM      5  N   UNL     1       7.229   8.387  17.075  0.00  0.00    +0.000 NA
ATOM      6  C   UNL     1       7.865   9.575  17.701  0.00  0.00    +0.000 C 
ATOM      7  C   UNL     1       8.649   9.067  18.907  0.00  0.00    +0.000 C 
ATOM      8  N   UNL     1       8.614   7.627  18.714  0.00  0.00    +0.000 N 
ATOM      9  H   UNL     1       9.540   7.227  18.584  0.00  0.00    +0.000 HD
BRANCH   3  10
ATOM     10  C   UNL     1       7.651   5.003  18.501  0.00  0.00    +0.000 C 
BRANCH  10  11
ATOM     11  C   UNL     1       7.077   5.442  19.865  0.00  0.00    +0.000 C 
BRANCH  11  12
ATOM     12  O   UNL     1       8.084   5.463  20.873  0.00  0.00    +0.000 OA
ATOM     13  H   UNL     1       7.898   6.231  21.448  0.00  0.00    +0.000 HD
ENDBRANCH  11  12
ENDBRANCH  10  11
ENDBRANCH   3  10
ENDBRANCH   1   3
BRANCH   2  14
ATOM     14  C   UNL     1       7.031   4.382  14.137  0.00  0.00    +0.000 A 
ATOM     15  C   UNL     1       5.970   3.534  13.781  0.00  0.00    +0.000 A 
ATOM     16  C   UNL     1       5.600   3.374  12.443  0.00  0.00    +0.000 A 
ATOM     17  C   UNL     1       6.272   4.081  11.451  0.00  0.00    +0.000 A 
ATOM     18  C   UNL     1       7.321   4.932  11.787  0.00  0.00    +0.000 A 
ATOM     19  C   UNL     1       7.695   5.073  13.121  0.00  0.00    +0.000 A 
BRANCH  19  20
ATOM     20  O   UNL     1       8.755   5.886  13.410  0.00  0.00    +0.000 OA
ATOM     21  H   UNL     1       8.735   6.641  12.791  0.00  0.00    +0.000 HD
ENDBRANCH  19  20
ENDBRANCH   2  14
BRANCH   1  22
ATOM     22  C   UNL     1       5.504   5.984  16.107  0.00  0.00    +0.000 C 
BRANCH  22  23
ATOM     23  C   UNL     1       4.412   5.464  16.954  0.00  0.00    +0.000 A 
ATOM     24  C   UNL     1       4.075   4.105  16.838  0.00  0.00    +0.000 A 
ATOM     25  C   UNL     1       2.906   3.610  17.423  0.00  0.00    +0.000 A 
ATOM     26  C   UNL     1       2.059   4.461  18.128  0.00  0.00    +0.000 A 
ATOM     27  C   UNL     1       2.377   5.810  18.261  0.00  0.00    +0.000 A 
ATOM     28  C   UNL     1       3.540   6.305  17.670  0.00  0.00    +0.000 A 
BRANCH  28  29
ATOM     29  O   UNL     1       3.782   7.654  17.722  0.00  0.00    +0.000 OA
ATOM     30  H   UNL     1       3.910   7.977  16.810  0.00  0.00    +0.000 HD
ENDBRANCH  28  29
ENDBRANCH  22  23
ENDBRANCH   1  22
TORSDOF 9
ENDMDL
MODEL 9
REMARK VINA RESULT:      -6.8      1.796      4.108
REMARK  Name = 
REMARK  9 active torsions:
REMARK  status: ('A' for Active; 'I' for Inactive)
REMARK    1  A    between atoms: O_1  and  C_2
REMARK    2  A    between atoms: C_2  and  C_3
REMARK    3  A    between atoms: C_3  and  N_4
REMARK    4  A    between atoms: N_4  and  N_10
REMARK    5  A    between atoms: N_10  and  C_19
REMARK    6  A    between atoms: C_11  and  C_12
REMARK    7  A    between atoms: C_17  and  O_18
REMARK    8  A    between atoms: C_19  and  C_20
REMARK    9  A    between atoms: C_25  and  O_26
REMARK                            x       y       z     vdW  Elec       q    Type
REMARK                         _______ _______ _______ _____ _____    ______ ____
ROOT
ATOM      1  N   UNL     1       4.739   6.328  18.166  0.00  0.00    +0.000 N 
ATOM      2  C   UNL     1       3.835   7.215  17.877  0.00  0.00    +0.000 C 
ENDROOT
BRANCH   1   3
ATOM      3  N   UNL     1       5.829   6.191  17.456  0.00  0.00    +0.000 N 
ATOM      4  C   UNL     1       5.856   5.468  16.262  0.00  0.00    +0.000 C 
ATOM      5  N   UNL     1       4.812   5.127  15.549  0.00  0.00    +0.000 NA
ATOM      6  C   UNL     1       5.353   4.368  14.391  0.00  0.00    +0.000 C 
ATOM      7  C   UNL     1       6.871   4.515  14.442  0.00  0.00    +0.000 C 
ATOM      8  N   UNL     1       7.079   5.111  15.751  0.00  0.00    +0.000 N 
ATOM      9  H   UNL     1       7.626   4.516  16.369  0.00  0.00    +0.000 HD
BRANCH   3  10
ATOM     10  C   UNL     1       7.041   6.954  17.863  0.00  0.00    +0.000 C 
BRANCH  10  11
ATOM     11  C   UNL     1       7.862   6.247  18.962  0.00  0.00    +0.000 C 
BRANCH  11  12
ATOM     12  O   UNL     1       7.949   4.844  18.726  0.00  0.00    +0.000 OA
ATOM     13  H   UNL     1       7.204   4.426  19.200  0.00  0.00    +0.000 HD
ENDBRANCH  11  12
ENDBRANCH  10  11
ENDBRANCH   3  10
ENDBRANCH   1   3
BRANCH   2  14
ATOM     14  C   UNL     1       2.703   7.706  18.715  0.00  0.00    +0.000 A 
ATOM     15  C   UNL     1       2.361   7.157  19.962  0.00  0.00    +0.000 A 
ATOM     16  C   UNL     1       1.388   7.758  20.766  0.00  0.00    +0.000 A 
ATOM     17  C   UNL     1       0.768   8.929  20.340  0.00  0.00    +0.000 A 
ATOM     18  C   UNL     1       1.101   9.491  19.111  0.00  0.00    +0.000 A 
ATOM     19  C   UNL     1       2.059   8.876  18.309  0.00  0.00    +0.000 A 
BRANCH  19  20
ATOM     20  O   UNL     1       2.332   9.434  17.091  0.00  0.00    +0.000 OA
ATOM     21  H   UNL     1       3.044  10.091  17.212  0.00  0.00    +0.000 HD
ENDBRANCH  19  20
ENDBRANCH   2  14
BRANCH   1  22
ATOM     22  C   UNL     1       4.389   5.296  19.076  0.00  0.00    +0.000 C 
BRANCH  22  23
ATOM     23  C   UNL     1       3.662   4.083  18.652  0.00  0.00    +0.000 A 
ATOM     24  C   UNL     1       2.362   4.235  18.141  0.00  0.00    +0.000 A 
ATOM     25  C   UNL     1       1.537   3.122  17.953  0.00  0.00    +0.000 A 
ATOM     26  C   UNL     1       1.996   1.846  18.271  0.00  0.00    +0.000 A 
ATOM     27  C   UNL     1       3.284   1.672  18.772  0.00  0.00    +0.000 A 
ATOM     28  C   UNL     1       4.104   2.784  18.968  0.00  0.00    +0.000 A 
BRANCH  28  29
ATOM     29  O   UNL     1       5.328   2.604  19.559  0.00  0.00    +0.000 OA
ATOM     30  H   UNL     1       5.346   1.713  19.958  0.00  0.00    +0.000 HD
ENDBRANCH  28  29
ENDBRANCH  22  23
ENDBRANCH   1  22
TORSDOF 9
ENDMDL
