MODEL 1
REMARK VINA RESULT:      -6.8      0.000      0.000
REMARK  Name = 
REMARK  26 active torsions:
REMARK  status: ('A' for Active; 'I' for Inactive)
REMARK    1  A    between atoms: C_1  and  C_2
REMARK    2  A    between atoms: C_2  and  C_3
REMARK    3  A    between atoms: C_3  and  C_4
REMARK    4  A    between atoms: C_4  and  C_5
REMARK    5  A    between atoms: C_5  and  C_6
REMARK    6  A    between atoms: C_6  and  C_7
REMARK    7  A    between atoms: C_7  and  C_8
REMARK    8  A    between atoms: C_7  and  O_22
REMARK    9  A    between atoms: C_8  and  C_9
REMARK   10  A    between atoms: C_9  and  C_10
REMARK   11  A    between atoms: C_10  and  C_11
REMARK   12  A    between atoms: C_11  and  C_12
REMARK   13  A    between atoms: C_12  and  C_13
REMARK   14  A    between atoms: C_13  and  C_14
REMARK   15  A    between atoms: C_14  and  C_15
REMARK   16  A    between atoms: C_15  and  C_16
REMARK   17  A    between atoms: C_16  and  C_17
REMARK   18  A    between atoms: C_17  and  C_18
REMARK   19  A    between atoms: C_18  and  O_20
REMARK   20  A    between atoms: O_20  and  C_21
REMARK   21  A    between atoms: O_22  and  C_23
REMARK   22  A    between atoms: C_25  and  C_26
REMARK   23  A    between atoms: C_26  and  O_27
REMARK   24  A    between atoms: C_28  and  O_29
REMARK   25  A    between atoms: C_30  and  O_31
REMARK   26  A    between atoms: C_32  and  O_33
REMARK                            x       y       z     vdW  Elec       q    Type
REMARK                         _______ _______ _______ _____ _____    ______ ____
ROOT
ATOM      1  C   UNL     1       7.234   5.545  18.467  0.00  0.00    +0.000 C 
ENDROOT
BRANCH   1   2
ATOM      2  O   UNL     1       6.211   5.099  19.380  0.00  0.00    +0.000 OA
BRANCH   2   3
ATOM      3  C   UNL     1       4.959   4.745  18.795  0.00  0.00    +0.000 C 
ATOM      4  O   UNL     1       4.034   5.836  18.868  0.00  0.00    +0.000 OA
ATOM      5  C   UNL     1       2.875   5.596  18.071  0.00  0.00    +0.000 C 
ATOM      6  C   UNL     1       2.093   4.413  18.655  0.00  0.00    +0.000 C 
ATOM      7  C   UNL     1       3.009   3.182  18.807  0.00  0.00    +0.000 C 
ATOM      8  C   UNL     1       4.341   3.511  19.506  0.00  0.00    +0.000 C 
BRANCH   8   9
ATOM      9  O   UNL     1       5.200   2.357  19.482  0.00  0.00    +0.000 OA
ATOM     10  H   UNL     1       4.889   1.690  20.120  0.00  0.00    +0.000 HD
ENDBRANCH   8   9
BRANCH   7  11
ATOM     11  O   UNL     1       2.291   2.114  19.451  0.00  0.00    +0.000 OA
ATOM     12  H   UNL     1       1.609   2.496  20.037  0.00  0.00    +0.000 HD
ENDBRANCH   7  11
BRANCH   6  13
ATOM     13  O   UNL     1       1.021   4.096  17.760  0.00  0.00    +0.000 OA
ATOM     14  H   UNL     1       1.277   3.285  17.284  0.00  0.00    +0.000 HD
ENDBRANCH   6  13
BRANCH   5  15
ATOM     15  C   UNL     1       2.040   6.880  18.008  0.00  0.00    +0.000 C 
BRANCH  15  16
ATOM     16  O   UNL     1       2.847   8.015  17.707  0.00  0.00    +0.000 OA
ATOM     17  H   UNL     1       3.741   7.808  18.040  0.00  0.00    +0.000 HD
ENDBRANCH  15  16
ENDBRANCH   5  15
ENDBRANCH   2   3
ENDBRANCH   1   2
BRANCH   1  18
ATOM     18  C   UNL     1       6.890   6.908  17.820  0.00  0.00    +0.000 C 
BRANCH  18  19
ATOM     19  C   UNL     1       8.167   7.737  17.723  0.00  0.00    +0.000 C 
BRANCH  19  20
ATOM     20  C   UNL     1       7.968   9.234  17.878  0.00  0.00    +0.000 C 
BRANCH  20  21
ATOM     21  C   UNL     1       8.982   9.721  18.911  0.00  0.00    +0.000 C 
BRANCH  21  22
ATOM     22  C   UNL     1       9.625  11.024  18.487  0.00  0.00    +0.000 C 
BRANCH  22  23
ATOM     23  C   UNL     1      10.242  11.733  19.687  0.00  0.00    +0.000 C 
BRANCH  23  24
ATOM     24  C   UNL     1       9.562  11.242  20.952  0.00  0.00    +0.000 C 
BRANCH  24  25
ATOM     25  C   UNL     1       8.825  12.356  21.681  0.00  0.00    +0.000 C 
BRANCH  25  26
ATOM     26  C   UNL     1       8.121  11.765  22.894  0.00  0.00    +0.000 C 
BRANCH  26  27
ATOM     27  C   UNL     1       7.195  12.753  23.563  0.00  0.00    +0.000 C 
BRANCH  27  28
ATOM     28  C   UNL     1       6.241  12.047  24.496  0.00  0.00    +0.000 C 
ATOM     29  O   UNL     1       5.376  11.241  24.146  0.00  0.00    +0.000 OA
BRANCH  28  30
ATOM     30  O   UNL     1       6.474  12.425  25.781  0.00  0.00    +0.000 OA
ATOM     31  C   UNL     1       6.476  11.344  26.693  0.00  0.00    +0.000 C 
ENDBRANCH  28  30
ENDBRANCH  27  28
ENDBRANCH  26  27
ENDBRANCH  25  26
ENDBRANCH  24  25
ENDBRANCH  23  24
ENDBRANCH  22  23
ENDBRANCH  21  22
ENDBRANCH  20  21
ENDBRANCH  19  20
ENDBRANCH  18  19
ENDBRANCH   1  18
BRANCH   1  32
ATOM     32  C   UNL     1       7.655   4.437  17.483  0.00  0.00    +0.000 C 
BRANCH  32  33
ATOM     33  C   UNL     1       7.199   4.712  16.055  0.00  0.00    +0.000 C 
BRANCH  33  34
ATOM     34  C   UNL     1       6.080   3.782  15.585  0.00  0.00    +0.000 C 
BRANCH  34  35
ATOM     35  C   UNL     1       5.560   4.293  14.241  0.00  0.00    +0.000 C 
BRANCH  35  37
ATOM     36  C   UNL     1       5.215   3.272  11.989  0.00  0.00    +0.000 C 
ATOM     37  C   UNL     1       6.248   3.655  13.041  0.00  0.00    +0.000 C 
ENDBRANCH  35  37
ENDBRANCH  34  35
ENDBRANCH  33  34
ENDBRANCH  32  33
ENDBRANCH   1  32
TORSDOF 24
ENDMDL
MODEL 2
REMARK VINA RESULT:      -6.6      2.719      3.489
REMARK  Name = 
REMARK  26 active torsions:
REMARK  status: ('A' for Active; 'I' for Inactive)
REMARK    1  A    between atoms: C_1  and  C_2
REMARK    2  A    between atoms: C_2  and  C_3
REMARK    3  A    between atoms: C_3  and  C_4
REMARK    4  A    between atoms: C_4  and  C_5
REMARK    5  A    between atoms: C_5  and  C_6
REMARK    6  A    between atoms: C_6  and  C_7
REMARK    7  A    between atoms: C_7  and  C_8
REMARK    8  A    between atoms: C_7  and  O_22
REMARK    9  A    between atoms: C_8  and  C_9
REMARK   10  A    between atoms: C_9  and  C_10
REMARK   11  A    between atoms: C_10  and  C_11
REMARK   12  A    between atoms: C_11  and  C_12
REMARK   13  A    between atoms: C_12  and  C_13
REMARK   14  A    between atoms: C_13  and  C_14
REMARK   15  A    between atoms: C_14  and  C_15
REMARK   16  A    between atoms: C_15  and  C_16
REMARK   17  A    between atoms: C_16  and  C_17
REMARK   18  A    between atoms: C_17  and  C_18
REMARK   19  A    between atoms: C_18  and  O_20
REMARK   20  A    between atoms: O_20  and  C_21
REMARK   21  A    between atoms: O_22  and  C_23
REMARK   22  A    between atoms: C_25  and  C_26
REMARK   23  A    between atoms: C_26  and  O_27
REMARK   24  A    between atoms: C_28  and  O_29
REMARK   25  A    between atoms: C_30  and  O_31
REMARK   26  A    between atoms: C_32  and  O_33
REMARK                            x       y       z     vdW  Elec       q    Type
REMARK                         _______ _______ _______ _____ _____    ______ ____
ROOT
ATOM      1  C   UNL     1       6.827   4.949  18.025  0.00  0.00    +0.000 C 
ENDROOT
BRANCH   1   2
ATOM      2  O   UNL     1       6.260   4.275  19.167  0.00  0.00    +0.000 OA
BRANCH   2   3
ATOM      3  C   UNL     1       4.836   4.222  19.220  0.00  0.00    +0.000 C 
ATOM      4  O   UNL     1       4.294   5.473  19.661  0.00  0.00    +0.000 OA
ATOM      5  C   UNL     1       2.880   5.526  19.479  0.00  0.00    +0.000 C 
ATOM      6  C   UNL     1       2.210   4.493  20.395  0.00  0.00    +0.000 C 
ATOM      7  C   UNL     1       2.816   3.093  20.163  0.00  0.00    +0.000 C 
ATOM      8  C   UNL     1       4.355   3.099  20.177  0.00  0.00    +0.000 C 
BRANCH   8   9
ATOM      9  O   UNL     1       4.849   1.797  19.811  0.00  0.00    +0.000 OA
ATOM     10  H   UNL     1       5.017   1.756  18.852  0.00  0.00    +0.000 HD
ENDBRANCH   8   9
BRANCH   7  11
ATOM     11  O   UNL     1       2.254   2.156  21.100  0.00  0.00    +0.000 OA
ATOM     12  H   UNL     1       1.820   1.434  20.607  0.00  0.00    +0.000 HD
ENDBRANCH   7  11
BRANCH   6  13
ATOM     13  O   UNL     1       0.812   4.459  20.089  0.00  0.00    +0.000 OA
ATOM     14  H   UNL     1       0.614   3.565  19.755  0.00  0.00    +0.000 HD
ENDBRANCH   6  13
BRANCH   5  15
ATOM     15  C   UNL     1       2.396   6.954  19.752  0.00  0.00    +0.000 C 
BRANCH  15  16
ATOM     16  O   UNL     1       1.890   7.092  21.077  0.00  0.00    +0.000 OA
ATOM     17  H   UNL     1       0.987   6.720  21.062  0.00  0.00    +0.000 HD
ENDBRANCH  15  16
ENDBRANCH   5  15
ENDBRANCH   2   3
ENDBRANCH   1   2
BRANCH   1  18
ATOM     18  C   UNL     1       7.601   6.228  18.423  0.00  0.00    +0.000 C 
BRANCH  18  19
ATOM     19  C   UNL     1       7.575   7.199  17.246  0.00  0.00    +0.000 C 
BRANCH  19  20
ATOM     20  C   UNL     1       7.431   8.661  17.629  0.00  0.00    +0.000 C 
BRANCH  20  21
ATOM     21  C   UNL     1       8.612   9.010  18.534  0.00  0.00    +0.000 C 
BRANCH  21  22
ATOM     22  C   UNL     1       9.035  10.453  18.364  0.00  0.00    +0.000 C 
BRANCH  22  23
ATOM     23  C   UNL     1      10.140  10.808  19.353  0.00  0.00    +0.000 C 
BRANCH  23  24
ATOM     24  C   UNL     1       9.509  11.378  20.611  0.00  0.00    +0.000 C 
BRANCH  24  25
ATOM     25  C   UNL     1       9.174  12.856  20.469  0.00  0.00    +0.000 C 
BRANCH  25  26
ATOM     26  C   UNL     1      10.438  13.608  20.076  0.00  0.00    +0.000 C 
BRANCH  26  27
ATOM     27  C   UNL     1      10.326  14.256  18.716  0.00  0.00    +0.000 C 
BRANCH  27  28
ATOM     28  C   UNL     1       9.792  15.663  18.834  0.00  0.00    +0.000 C 
ATOM     29  O   UNL     1       9.138  16.246  17.966  0.00  0.00    +0.000 OA
BRANCH  28  30
ATOM     30  O   UNL     1      10.132  16.195  20.038  0.00  0.00    +0.000 OA
ATOM     31  C   UNL     1      10.616  17.521  19.949  0.00  0.00    +0.000 C 
ENDBRANCH  28  30
ENDBRANCH  27  28
ENDBRANCH  26  27
ENDBRANCH  25  26
ENDBRANCH  24  25
ENDBRANCH  23  24
ENDBRANCH  22  23
ENDBRANCH  21  22
ENDBRANCH  20  21
ENDBRANCH  19  20
ENDBRANCH  18  19
ENDBRANCH   1  18
BRANCH   1  32
ATOM     32  C   UNL     1       5.802   5.127  16.889  0.00  0.00    +0.000 C 
BRANCH  32  33
ATOM     33  C   UNL     1       5.638   3.871  16.041  0.00  0.00    +0.000 C 
BRANCH  33  34
ATOM     34  C   UNL     1       6.443   3.905  14.741  0.00  0.00    +0.000 C 
BRANCH  34  35
ATOM     35  C   UNL     1       5.477   4.149  13.582  0.00  0.00    +0.000 C 
BRANCH  35  37
ATOM     36  C   UNL     1       4.582   3.070  11.515  0.00  0.00    +0.000 C 
ATOM     37  C   UNL     1       5.840   3.380  12.317  0.00  0.00    +0.000 C 
ENDBRANCH  35  37
ENDBRANCH  34  35
ENDBRANCH  33  34
ENDBRANCH  32  33
ENDBRANCH   1  32
TORSDOF 24
ENDMDL
MODEL 3
REMARK VINA RESULT:      -6.5      4.411      5.674
REMARK  Name = 
REMARK  26 active torsions:
REMARK  status: ('A' for Active; 'I' for Inactive)
REMARK    1  A    between atoms: C_1  and  C_2
REMARK    2  A    between atoms: C_2  and  C_3
REMARK    3  A    between atoms: C_3  and  C_4
REMARK    4  A    between atoms: C_4  and  C_5
REMARK    5  A    between atoms: C_5  and  C_6
REMARK    6  A    between atoms: C_6  and  C_7
REMARK    7  A    between atoms: C_7  and  C_8
REMARK    8  A    between atoms: C_7  and  O_22
REMARK    9  A    between atoms: C_8  and  C_9
REMARK   10  A    between atoms: C_9  and  C_10
REMARK   11  A    between atoms: C_10  and  C_11
REMARK   12  A    between atoms: C_11  and  C_12
REMARK   13  A    between atoms: C_12  and  C_13
REMARK   14  A    between atoms: C_13  and  C_14
REMARK   15  A    between atoms: C_14  and  C_15
REMARK   16  A    between atoms: C_15  and  C_16
REMARK   17  A    between atoms: C_16  and  C_17
REMARK   18  A    between atoms: C_17  and  C_18
REMARK   19  A    between atoms: C_18  and  O_20
REMARK   20  A    between atoms: O_20  and  C_21
REMARK   21  A    between atoms: O_22  and  C_23
REMARK   22  A    between atoms: C_25  and  C_26
REMARK   23  A    between atoms: C_26  and  O_27
REMARK   24  A    between atoms: C_28  and  O_29
REMARK   25  A    between atoms: C_30  and  O_31
REMARK   26  A    between atoms: C_32  and  O_33
REMARK                            x       y       z     vdW  Elec       q    Type
REMARK                         _______ _______ _______ _____ _____    ______ ____
ROOT
ATOM      1  C   UNL     1       5.104   4.831  16.765  0.00  0.00    +0.000 C 
ENDROOT
BRANCH   1   2
ATOM      2  O   UNL     1       3.926   4.000  16.830  0.00  0.00    +0.000 OA
BRANCH   2   3
ATOM      3  C   UNL     1       3.367   3.806  18.127  0.00  0.00    +0.000 C 
ATOM      4  O   UNL     1       4.063   2.771  18.834  0.00  0.00    +0.000 OA
ATOM      5  C   UNL     1       3.691   2.734  20.211  0.00  0.00    +0.000 C 
ATOM      6  C   UNL     1       2.216   2.331  20.329  0.00  0.00    +0.000 C 
ATOM      7  C   UNL     1       1.332   3.258  19.470  0.00  0.00    +0.000 C 
ATOM      8  C   UNL     1       1.864   3.431  18.036  0.00  0.00    +0.000 C 
BRANCH   8   9
ATOM      9  O   UNL     1       1.078   4.416  17.342  0.00  0.00    +0.000 OA
ATOM     10  H   UNL     1       0.346   4.725  17.907  0.00  0.00    +0.000 HD
ENDBRANCH   8   9
BRANCH   7  11
ATOM     11  O   UNL     1      -0.033   2.804  19.507  0.00  0.00    +0.000 OA
ATOM     12  H   UNL     1      -0.109   2.073  20.150  0.00  0.00    +0.000 HD
ENDBRANCH   7  11
BRANCH   6  13
ATOM     13  O   UNL     1       1.826   2.445  21.702  0.00  0.00    +0.000 OA
ATOM     14  H   UNL     1       2.354   1.796  22.203  0.00  0.00    +0.000 HD
ENDBRANCH   6  13
BRANCH   5  15
ATOM     15  C   UNL     1       4.625   1.773  20.953  0.00  0.00    +0.000 C 
BRANCH  15  16
ATOM     16  O   UNL     1       5.363   0.957  20.047  0.00  0.00    +0.000 OA
ATOM     17  H   UNL     1       6.149   0.649  20.538  0.00  0.00    +0.000 HD
ENDBRANCH  15  16
ENDBRANCH   5  15
ENDBRANCH   2   3
ENDBRANCH   1   2
BRANCH   1  18
ATOM     18  C   UNL     1       5.084   5.962  17.820  0.00  0.00    +0.000 C 
BRANCH  18  19
ATOM     19  C   UNL     1       4.132   7.055  17.344  0.00  0.00    +0.000 C 
BRANCH  19  20
ATOM     20  C   UNL     1       2.989   7.363  18.295  0.00  0.00    +0.000 C 
BRANCH  20  21
ATOM     21  C   UNL     1       1.966   8.191  17.518  0.00  0.00    +0.000 C 
BRANCH  21  22
ATOM     22  C   UNL     1       1.869   9.601  18.057  0.00  0.00    +0.000 C 
BRANCH  22  23
ATOM     23  C   UNL     1       0.854   9.673  19.193  0.00  0.00    +0.000 C 
BRANCH  23  24
ATOM     24  C   UNL     1      -0.381  10.408  18.704  0.00  0.00    +0.000 C 
BRANCH  24  25
ATOM     25  C   UNL     1      -1.066  11.187  19.818  0.00  0.00    +0.000 C 
BRANCH  25  26
ATOM     26  C   UNL     1      -1.020  12.670  19.478  0.00  0.00    +0.000 C 
BRANCH  26  27
ATOM     27  C   UNL     1       0.385  13.226  19.506  0.00  0.00    +0.000 C 
BRANCH  27  28
ATOM     28  C   UNL     1       0.966  13.146  20.896  0.00  0.00    +0.000 C 
ATOM     29  O   UNL     1       2.019  12.577  21.191  0.00  0.00    +0.000 OA
BRANCH  28  30
ATOM     30  O   UNL     1       0.162  13.797  21.779  0.00  0.00    +0.000 OA
ATOM     31  C   UNL     1       0.517  15.153  21.967  0.00  0.00    +0.000 C 
ENDBRANCH  28  30
ENDBRANCH  27  28
ENDBRANCH  26  27
ENDBRANCH  25  26
ENDBRANCH  24  25
ENDBRANCH  23  24
ENDBRANCH  22  23
ENDBRANCH  21  22
ENDBRANCH  20  21
ENDBRANCH  19  20
ENDBRANCH  18  19
ENDBRANCH   1  18
BRANCH   1  32
ATOM     32  C   UNL     1       5.417   5.279  15.326  0.00  0.00    +0.000 C 
BRANCH  32  33
ATOM     33  C   UNL     1       6.782   4.803  14.843  0.00  0.00    +0.000 C 
BRANCH  33  34
ATOM     34  C   UNL     1       6.765   4.256  13.415  0.00  0.00    +0.000 C 
BRANCH  34  35
ATOM     35  C   UNL     1       5.378   3.679  13.135  0.00  0.00    +0.000 C 
BRANCH  35  37
ATOM     36  C   UNL     1       3.950   3.189  11.147  0.00  0.00    +0.000 C 
ATOM     37  C   UNL     1       5.290   2.918  11.818  0.00  0.00    +0.000 C 
ENDBRANCH  35  37
ENDBRANCH  34  35
ENDBRANCH  33  34
ENDBRANCH  32  33
ENDBRANCH   1  32
TORSDOF 24
ENDMDL
MODEL 4
REMARK VINA RESULT:      -6.5      2.852      3.495
REMARK  Name = 
REMARK  26 active torsions:
REMARK  status: ('A' for Active; 'I' for Inactive)
REMARK    1  A    between atoms: C_1  and  C_2
REMARK    2  A    between atoms: C_2  and  C_3
REMARK    3  A    between atoms: C_3  and  C_4
REMARK    4  A    between atoms: C_4  and  C_5
REMARK    5  A    between atoms: C_5  and  C_6
REMARK    6  A    between atoms: C_6  and  C_7
REMARK    7  A    between atoms: C_7  and  C_8
REMARK    8  A    between atoms: C_7  and  O_22
REMARK    9  A    between atoms: C_8  and  C_9
REMARK   10  A    between atoms: C_9  and  C_10
REMARK   11  A    between atoms: C_10  and  C_11
REMARK   12  A    between atoms: C_11  and  C_12
REMARK   13  A    between atoms: C_12  and  C_13
REMARK   14  A    between atoms: C_13  and  C_14
REMARK   15  A    between atoms: C_14  and  C_15
REMARK   16  A    between atoms: C_15  and  C_16
REMARK   17  A    between atoms: C_16  and  C_17
REMARK   18  A    between atoms: C_17  and  C_18
REMARK   19  A    between atoms: C_18  and  O_20
REMARK   20  A    between atoms: O_20  and  C_21
REMARK   21  A    between atoms: O_22  and  C_23
REMARK   22  A    between atoms: C_25  and  C_26
REMARK   23  A    between atoms: C_26  and  O_27
REMARK   24  A    between atoms: C_28  and  O_29
REMARK   25  A    between atoms: C_30  and  O_31
REMARK   26  A    between atoms: C_32  and  O_33
REMARK                            x       y       z     vdW  Elec       q    Type
REMARK                         _______ _______ _______ _____ _____    ______ ____
ROOT
ATOM      1  C   UNL     1       6.358   4.783  17.206  0.00  0.00    +0.000 C 
ENDROOT
BRANCH   1   2
ATOM      2  O   UNL     1       6.080   4.563  18.604  0.00  0.00    +0.000 OA
BRANCH   2   3
ATOM      3  C   UNL     1       4.704   4.438  18.958  0.00  0.00    +0.000 C 
ATOM      4  O   UNL     1       4.216   5.650  19.548  0.00  0.00    +0.000 OA
ATOM      5  C   UNL     1       2.794   5.636  19.673  0.00  0.00    +0.000 C 
ATOM      6  C   UNL     1       2.383   4.550  20.674  0.00  0.00    +0.000 C 
ATOM      7  C   UNL     1       2.984   3.188  20.272  0.00  0.00    +0.000 C 
ATOM      8  C   UNL     1       4.489   3.270  19.957  0.00  0.00    +0.000 C 
BRANCH   8   9
ATOM      9  O   UNL     1       4.949   2.003  19.450  0.00  0.00    +0.000 OA
ATOM     10  H   UNL     1       4.193   1.462  19.155  0.00  0.00    +0.000 HD
ENDBRANCH   8   9
BRANCH   7  11
ATOM     11  O   UNL     1       2.678   2.202  21.274  0.00  0.00    +0.000 OA
ATOM     12  H   UNL     1       3.410   1.558  21.323  0.00  0.00    +0.000 HD
ENDBRANCH   7  11
BRANCH   6  13
ATOM     13  O   UNL     1       0.954   4.454  20.673  0.00  0.00    +0.000 OA
ATOM     14  H   UNL     1       0.689   4.154  19.784  0.00  0.00    +0.000 HD
ENDBRANCH   6  13
BRANCH   5  15
ATOM     15  C   UNL     1       2.319   7.032  20.091  0.00  0.00    +0.000 C 
BRANCH  15  16
ATOM     16  O   UNL     1       1.046   6.982  20.729  0.00  0.00    +0.000 OA
ATOM     17  H   UNL     1       1.217   7.091  21.685  0.00  0.00    +0.000 HD
ENDBRANCH  15  16
ENDBRANCH   5  15
ENDBRANCH   2   3
ENDBRANCH   1   2
BRANCH   1  18
ATOM     18  C   UNL     1       7.386   5.918  16.984  0.00  0.00    +0.000 C 
BRANCH  18  19
ATOM     19  C   UNL     1       7.095   7.041  17.975  0.00  0.00    +0.000 C 
BRANCH  19  20
ATOM     20  C   UNL     1       8.281   7.935  18.291  0.00  0.00    +0.000 C 
BRANCH  20  21
ATOM     21  C   UNL     1       8.095   9.227  17.498  0.00  0.00    +0.000 C 
BRANCH  21  22
ATOM     22  C   UNL     1       8.705  10.411  18.216  0.00  0.00    +0.000 C 
BRANCH  22  23
ATOM     23  C   UNL     1       9.376   9.966  19.511  0.00  0.00    +0.000 C 
BRANCH  23  24
ATOM     24  C   UNL     1       9.602  11.182  20.392  0.00  0.00    +0.000 C 
BRANCH  24  25
ATOM     25  C   UNL     1      11.011  11.740  20.254  0.00  0.00    +0.000 C 
BRANCH  25  26
ATOM     26  C   UNL     1      10.939  13.081  19.539  0.00  0.00    +0.000 C 
BRANCH  26  27
ATOM     27  C   UNL     1       9.654  13.822  19.825  0.00  0.00    +0.000 C 
BRANCH  27  28
ATOM     28  C   UNL     1       9.690  15.209  19.232  0.00  0.00    +0.000 C 
ATOM     29  O   UNL     1      10.715  15.862  19.023  0.00  0.00    +0.000 OA
BRANCH  28  30
ATOM     30  O   UNL     1       8.429  15.636  18.957  0.00  0.00    +0.000 OA
ATOM     31  C   UNL     1       7.759  14.832  18.006  0.00  0.00    +0.000 C 
ENDBRANCH  28  30
ENDBRANCH  27  28
ENDBRANCH  26  27
ENDBRANCH  25  26
ENDBRANCH  24  25
ENDBRANCH  23  24
ENDBRANCH  22  23
ENDBRANCH  21  22
ENDBRANCH  20  21
ENDBRANCH  19  20
ENDBRANCH  18  19
ENDBRANCH   1  18
BRANCH   1  32
ATOM     32  C   UNL     1       5.069   4.890  16.370  0.00  0.00    +0.000 C 
BRANCH  32  33
ATOM     33  C   UNL     1       5.341   4.935  14.871  0.00  0.00    +0.000 C 
BRANCH  33  34
ATOM     34  C   UNL     1       6.048   3.685  14.343  0.00  0.00    +0.000 C 
BRANCH  34  35
ATOM     35  C   UNL     1       6.419   3.923  12.879  0.00  0.00    +0.000 C 
BRANCH  35  37
ATOM     36  C   UNL     1       4.450   3.331  11.462  0.00  0.00    +0.000 C 
ATOM     37  C   UNL     1       5.831   2.888  11.928  0.00  0.00    +0.000 C 
ENDBRANCH  35  37
ENDBRANCH  34  35
ENDBRANCH  33  34
ENDBRANCH  32  33
ENDBRANCH   1  32
TORSDOF 24
ENDMDL
MODEL 5
REMARK VINA RESULT:      -6.5      3.035      4.196
REMARK  Name = 
REMARK  26 active torsions:
REMARK  status: ('A' for Active; 'I' for Inactive)
REMARK    1  A    between atoms: C_1  and  C_2
REMARK    2  A    between atoms: C_2  and  C_3
REMARK    3  A    between atoms: C_3  and  C_4
REMARK    4  A    between atoms: C_4  and  C_5
REMARK    5  A    between atoms: C_5  and  C_6
REMARK    6  A    between atoms: C_6  and  C_7
REMARK    7  A    between atoms: C_7  and  C_8
REMARK    8  A    between atoms: C_7  and  O_22
REMARK    9  A    between atoms: C_8  and  C_9
REMARK   10  A    between atoms: C_9  and  C_10
REMARK   11  A    between atoms: C_10  and  C_11
REMARK   12  A    between atoms: C_11  and  C_12
REMARK   13  A    between atoms: C_12  and  C_13
REMARK   14  A    between atoms: C_13  and  C_14
REMARK   15  A    between atoms: C_14  and  C_15
REMARK   16  A    between atoms: C_15  and  C_16
REMARK   17  A    between atoms: C_16  and  C_17
REMARK   18  A    between atoms: C_17  and  C_18
REMARK   19  A    between atoms: C_18  and  O_20
REMARK   20  A    between atoms: O_20  and  C_21
REMARK   21  A    between atoms: O_22  and  C_23
REMARK   22  A    between atoms: C_25  and  C_26
REMARK   23  A    between atoms: C_26  and  O_27
REMARK   24  A    between atoms: C_28  and  O_29
REMARK   25  A    between atoms: C_30  and  O_31
REMARK   26  A    between atoms: C_32  and  O_33
REMARK                            x       y       z     vdW  Elec       q    Type
REMARK                         _______ _______ _______ _____ _____    ______ ____
ROOT
ATOM      1  C   UNL     1       5.671   5.296  16.871  0.00  0.00    +0.000 C 
ENDROOT
BRANCH   1   2
ATOM      2  O   UNL     1       4.282   5.068  17.184  0.00  0.00    +0.000 OA
BRANCH   2   3
ATOM      3  C   UNL     1       4.005   4.593  18.500  0.00  0.00    +0.000 C 
ATOM      4  O   UNL     1       4.184   3.173  18.580  0.00  0.00    +0.000 OA
ATOM      5  C   UNL     1       4.162   2.716  19.931  0.00  0.00    +0.000 C 
ATOM      6  C   UNL     1       2.765   2.943  20.522  0.00  0.00    +0.000 C 
ATOM      7  C   UNL     1       2.341   4.416  20.357  0.00  0.00    +0.000 C 
ATOM      8  C   UNL     1       2.554   4.942  18.925  0.00  0.00    +0.000 C 
BRANCH   8   9
ATOM      9  O   UNL     1       2.278   6.354  18.880  0.00  0.00    +0.000 OA
ATOM     10  H   UNL     1       3.090   6.864  19.054  0.00  0.00    +0.000 HD
ENDBRANCH   8   9
BRANCH   7  11
ATOM     11  O   UNL     1       0.990   4.592  20.820  0.00  0.00    +0.000 OA
ATOM     12  H   UNL     1       1.000   5.122  21.639  0.00  0.00    +0.000 HD
ENDBRANCH   7  11
BRANCH   6  13
ATOM     13  O   UNL     1       2.807   2.617  21.916  0.00  0.00    +0.000 OA
ATOM     14  H   UNL     1       2.521   3.411  22.403  0.00  0.00    +0.000 HD
ENDBRANCH   6  13
BRANCH   5  15
ATOM     15  C   UNL     1       4.583   1.243  19.965  0.00  0.00    +0.000 C 
BRANCH  15  16
ATOM     16  O   UNL     1       4.439   0.628  18.687  0.00  0.00    +0.000 OA
ATOM     17  H   UNL     1       3.485   0.660  18.477  0.00  0.00    +0.000 HD
ENDBRANCH  15  16
ENDBRANCH   5  15
ENDBRANCH   2   3
ENDBRANCH   1   2
BRANCH   1  18
ATOM     18  C   UNL     1       6.418   6.021  18.016  0.00  0.00    +0.000 C 
BRANCH  18  19
ATOM     19  C   UNL     1       7.301   7.108  17.409  0.00  0.00    +0.000 C 
BRANCH  19  20
ATOM     20  C   UNL     1       8.281   7.746  18.377  0.00  0.00    +0.000 C 
BRANCH  20  21
ATOM     21  C   UNL     1       8.321   9.240  18.061  0.00  0.00    +0.000 C 
BRANCH  21  22
ATOM     22  C   UNL     1       8.984  10.026  19.171  0.00  0.00    +0.000 C 
BRANCH  22  23
ATOM     23  C   UNL     1      10.117  10.883  18.618  0.00  0.00    +0.000 C 
BRANCH  23  24
ATOM     24  C   UNL     1      10.996  11.338  19.770  0.00  0.00    +0.000 C 
BRANCH  24  25
ATOM     25  C   UNL     1      12.151  12.212  19.303  0.00  0.00    +0.000 C 
BRANCH  25  26
ATOM     26  C   UNL     1      11.632  13.624  19.066  0.00  0.00    +0.000 C 
BRANCH  26  27
ATOM     27  C   UNL     1      10.662  14.070  20.134  0.00  0.00    +0.000 C 
BRANCH  27  28
ATOM     28  C   UNL     1       9.533  14.872  19.532  0.00  0.00    +0.000 C 
ATOM     29  O   UNL     1       8.335  14.600  19.643  0.00  0.00    +0.000 OA
BRANCH  28  30
ATOM     30  O   UNL     1      10.027  15.940  18.852  0.00  0.00    +0.000 OA
ATOM     31  C   UNL     1       9.167  17.063  18.871  0.00  0.00    +0.000 C 
ENDBRANCH  28  30
ENDBRANCH  27  28
ENDBRANCH  26  27
ENDBRANCH  25  26
ENDBRANCH  24  25
ENDBRANCH  23  24
ENDBRANCH  22  23
ENDBRANCH  21  22
ENDBRANCH  20  21
ENDBRANCH  19  20
ENDBRANCH  18  19
ENDBRANCH   1  18
BRANCH   1  32
ATOM     32  C   UNL     1       5.856   5.912  15.472  0.00  0.00    +0.000 C 
BRANCH  32  33
ATOM     33  C   UNL     1       5.373   4.993  14.355  0.00  0.00    +0.000 C 
BRANCH  33  34
ATOM     34  C   UNL     1       6.333   3.840  14.059  0.00  0.00    +0.000 C 
BRANCH  34  35
ATOM     35  C   UNL     1       6.501   3.730  12.543  0.00  0.00    +0.000 C 
BRANCH  35  37
ATOM     36  C   UNL     1       5.857   1.632  11.352  0.00  0.00    +0.000 C 
ATOM     37  C   UNL     1       5.364   2.982  11.859  0.00  0.00    +0.000 C 
ENDBRANCH  35  37
ENDBRANCH  34  35
ENDBRANCH  33  34
ENDBRANCH  32  33
ENDBRANCH   1  32
TORSDOF 24
ENDMDL
MODEL 6
REMARK VINA RESULT:      -6.3      3.197      4.567
REMARK  Name = 
REMARK  26 active torsions:
REMARK  status: ('A' for Active; 'I' for Inactive)
REMARK    1  A    between atoms: C_1  and  C_2
REMARK    2  A    between atoms: C_2  and  C_3
REMARK    3  A    between atoms: C_3  and  C_4
REMARK    4  A    between atoms: C_4  and  C_5
REMARK    5  A    between atoms: C_5  and  C_6
REMARK    6  A    between atoms: C_6  and  C_7
REMARK    7  A    between atoms: C_7  and  C_8
REMARK    8  A    between atoms: C_7  and  O_22
REMARK    9  A    between atoms: C_8  and  C_9
REMARK   10  A    between atoms: C_9  and  C_10
REMARK   11  A    between atoms: C_10  and  C_11
REMARK   12  A    between atoms: C_11  and  C_12
REMARK   13  A    between atoms: C_12  and  C_13
REMARK   14  A    between atoms: C_13  and  C_14
REMARK   15  A    between atoms: C_14  and  C_15
REMARK   16  A    between atoms: C_15  and  C_16
REMARK   17  A    between atoms: C_16  and  C_17
REMARK   18  A    between atoms: C_17  and  C_18
REMARK   19  A    between atoms: C_18  and  O_20
REMARK   20  A    between atoms: O_20  and  C_21
REMARK   21  A    between atoms: O_22  and  C_23
REMARK   22  A    between atoms: C_25  and  C_26
REMARK   23  A    between atoms: C_26  and  O_27
REMARK   24  A    between atoms: C_28  and  O_29
REMARK   25  A    between atoms: C_30  and  O_31
REMARK   26  A    between atoms: C_32  and  O_33
REMARK                            x       y       z     vdW  Elec       q    Type
REMARK                         _______ _______ _______ _____ _____    ______ ____
ROOT
ATOM      1  C   UNL     1       5.140   4.019  16.380  0.00  0.00    +0.000 C 
ENDROOT
BRANCH   1   2
ATOM      2  O   UNL     1       3.905   3.361  16.728  0.00  0.00    +0.000 OA
BRANCH   2   3
ATOM      3  C   UNL     1       3.497   3.471  18.090  0.00  0.00    +0.000 C 
ATOM      4  O   UNL     1       4.102   2.445  18.889  0.00  0.00    +0.000 OA
ATOM      5  C   UNL     1       3.915   2.687  20.282  0.00  0.00    +0.000 C 
ATOM      6  C   UNL     1       2.422   2.582  20.620  0.00  0.00    +0.000 C 
ATOM      7  C   UNL     1       1.596   3.514  19.711  0.00  0.00    +0.000 C 
ATOM      8  C   UNL     1       1.955   3.367  18.221  0.00  0.00    +0.000 C 
BRANCH   8   9
ATOM      9  O   UNL     1       1.255   4.363  17.453  0.00  0.00    +0.000 OA
ATOM     10  H   UNL     1       0.989   3.999  16.589  0.00  0.00    +0.000 HD
ENDBRANCH   8   9
BRANCH   7  11
ATOM     11  O   UNL     1       0.192   3.328  19.967  0.00  0.00    +0.000 OA
ATOM     12  H   UNL     1       0.083   2.690  20.699  0.00  0.00    +0.000 HD
ENDBRANCH   7  11
BRANCH   6  13
ATOM     13  O   UNL     1       2.241   2.972  21.987  0.00  0.00    +0.000 OA
ATOM     14  H   UNL     1       1.304   2.817  22.205  0.00  0.00    +0.000 HD
ENDBRANCH   6  13
BRANCH   5  15
ATOM     15  C   UNL     1       4.769   1.694  21.078  0.00  0.00    +0.000 C 
BRANCH  15  16
ATOM     16  O   UNL     1       5.458   0.790  20.218  0.00  0.00    +0.000 OA
ATOM     17  H   UNL     1       4.772   0.353  19.678  0.00  0.00    +0.000 HD
ENDBRANCH  15  16
ENDBRANCH   5  15
ENDBRANCH   2   3
ENDBRANCH   1   2
BRANCH   1  18
ATOM     18  C   UNL     1       5.578   5.049  17.449  0.00  0.00    +0.000 C 
BRANCH  18  19
ATOM     19  C   UNL     1       7.052   4.820  17.770  0.00  0.00    +0.000 C 
BRANCH  19  20
ATOM     20  C   UNL     1       7.675   5.866  18.677  0.00  0.00    +0.000 C 
BRANCH  20  21
ATOM     21  C   UNL     1       7.710   7.179  17.896  0.00  0.00    +0.000 C 
BRANCH  21  22
ATOM     22  C   UNL     1       8.366   8.283  18.694  0.00  0.00    +0.000 C 
BRANCH  22  23
ATOM     23  C   UNL     1       8.366   9.588  17.906  0.00  0.00    +0.000 C 
BRANCH  23  24
ATOM     24  C   UNL     1       9.510  10.458  18.395  0.00  0.00    +0.000 C 
BRANCH  24  25
ATOM     25  C   UNL     1       9.057  11.872  18.728  0.00  0.00    +0.000 C 
BRANCH  25  26
ATOM     26  C   UNL     1       8.701  12.590  17.434  0.00  0.00    +0.000 C 
BRANCH  26  27
ATOM     27  C   UNL     1       7.386  13.328  17.524  0.00  0.00    +0.000 C 
BRANCH  27  28
ATOM     28  C   UNL     1       7.542  14.606  18.312  0.00  0.00    +0.000 C 
ATOM     29  O   UNL     1       7.031  14.824  19.414  0.00  0.00    +0.000 OA
BRANCH  28  30
ATOM     30  O   UNL     1       8.330  15.483  17.635  0.00  0.00    +0.000 OA
ATOM     31  C   UNL     1       8.381  16.766  18.229  0.00  0.00    +0.000 C 
ENDBRANCH  28  30
ENDBRANCH  27  28
ENDBRANCH  26  27
ENDBRANCH  25  26
ENDBRANCH  24  25
ENDBRANCH  23  24
ENDBRANCH  22  23
ENDBRANCH  21  22
ENDBRANCH  20  21
ENDBRANCH  19  20
ENDBRANCH  18  19
ENDBRANCH   1  18
BRANCH   1  32
ATOM     32  C   UNL     1       5.131   4.539  14.930  0.00  0.00    +0.000 C 
BRANCH  32  33
ATOM     33  C   UNL     1       6.460   4.321  14.217  0.00  0.00    +0.000 C 
BRANCH  33  34
ATOM     34  C   UNL     1       6.337   4.303  12.693  0.00  0.00    +0.000 C 
BRANCH  34  35
ATOM     35  C   UNL     1       6.716   2.908  12.195  0.00  0.00    +0.000 C 
BRANCH  35  37
ATOM     36  C   UNL     1       6.056   0.836  10.969  0.00  0.00    +0.000 C 
ATOM     37  C   UNL     1       5.576   2.185  11.488  0.00  0.00    +0.000 C 
ENDBRANCH  35  37
ENDBRANCH  34  35
ENDBRANCH  33  34
ENDBRANCH  32  33
ENDBRANCH   1  32
TORSDOF 24
ENDMDL
MODEL 7
REMARK VINA RESULT:      -6.3      3.754      6.441
REMARK  Name = 
REMARK  26 active torsions:
REMARK  status: ('A' for Active; 'I' for Inactive)
REMARK    1  A    between atoms: C_1  and  C_2
REMARK    2  A    between atoms: C_2  and  C_3
REMARK    3  A    between atoms: C_3  and  C_4
REMARK    4  A    between atoms: C_4  and  C_5
REMARK    5  A    between atoms: C_5  and  C_6
REMARK    6  A    between atoms: C_6  and  C_7
REMARK    7  A    between atoms: C_7  and  C_8
REMARK    8  A    between atoms: C_7  and  O_22
REMARK    9  A    between atoms: C_8  and  C_9
REMARK   10  A    between atoms: C_9  and  C_10
REMARK   11  A    between atoms: C_10  and  C_11
REMARK   12  A    between atoms: C_11  and  C_12
REMARK   13  A    between atoms: C_12  and  C_13
REMARK   14  A    between atoms: C_13  and  C_14
REMARK   15  A    between atoms: C_14  and  C_15
REMARK   16  A    between atoms: C_15  and  C_16
REMARK   17  A    between atoms: C_16  and  C_17
REMARK   18  A    between atoms: C_17  and  C_18
REMARK   19  A    between atoms: C_18  and  O_20
REMARK   20  A    between atoms: O_20  and  C_21
REMARK   21  A    between atoms: O_22  and  C_23
REMARK   22  A    between atoms: C_25  and  C_26
REMARK   23  A    between atoms: C_26  and  O_27
REMARK   24  A    between atoms: C_28  and  O_29
REMARK   25  A    between atoms: C_30  and  O_31
REMARK   26  A    between atoms: C_32  and  O_33
REMARK                            x       y       z     vdW  Elec       q    Type
REMARK                         _______ _______ _______ _____ _____    ______ ____
ROOT
ATOM      1  C   UNL     1       2.591   6.135  20.005  0.00  0.00    +0.000 C 
ENDROOT
BRANCH   1   2
ATOM      2  O   UNL     1       2.033   7.103  19.092  0.00  0.00    +0.000 OA
BRANCH   2   3
ATOM      3  C   UNL     1       1.848   8.419  19.610  0.00  0.00    +0.000 C 
ATOM      4  O   UNL     1       0.936   8.410  20.716  0.00  0.00    +0.000 OA
ATOM      5  C   UNL     1       0.933   9.660  21.403  0.00  0.00    +0.000 C 
ATOM      6  C   UNL     1       0.375  10.748  20.478  0.00  0.00    +0.000 C 
ATOM      7  C   UNL     1       1.150  10.773  19.145  0.00  0.00    +0.000 C 
ATOM      8  C   UNL     1       1.303   9.376  18.516  0.00  0.00    +0.000 C 
BRANCH   8   9
ATOM      9  O   UNL     1       2.156   9.455  17.360  0.00  0.00    +0.000 OA
ATOM     10  H   UNL     1       3.048   9.754  17.616  0.00  0.00    +0.000 HD
ENDBRANCH   8   9
BRANCH   7  11
ATOM     11  O   UNL     1       0.550  11.725  18.248  0.00  0.00    +0.000 OA
ATOM     12  H   UNL     1       0.284  12.517  18.754  0.00  0.00    +0.000 HD
ENDBRANCH   7  11
BRANCH   6  13
ATOM     13  O   UNL     1       0.519  12.014  21.132  0.00  0.00    +0.000 OA
ATOM     14  H   UNL     1       1.406  12.351  20.908  0.00  0.00    +0.000 HD
ENDBRANCH   6  13
BRANCH   5  15
ATOM     15  C   UNL     1       0.123   9.514  22.696  0.00  0.00    +0.000 C 
BRANCH  15  16
ATOM     16  O   UNL     1      -0.769   8.404  22.633  0.00  0.00    +0.000 OA
ATOM     17  H   UNL     1      -0.859   8.183  21.686  0.00  0.00    +0.000 HD
ENDBRANCH  15  16
ENDBRANCH   5  15
ENDBRANCH   2   3
ENDBRANCH   1   2
BRANCH   1  18
ATOM     18  C   UNL     1       3.980   5.631  19.549  0.00  0.00    +0.000 C 
BRANCH  18  19
ATOM     19  C   UNL     1       4.249   6.151  18.140  0.00  0.00    +0.000 C 
BRANCH  19  20
ATOM     20  C   UNL     1       5.635   5.846  17.602  0.00  0.00    +0.000 C 
BRANCH  20  21
ATOM     21  C   UNL     1       6.184   7.141  17.007  0.00  0.00    +0.000 C 
BRANCH  21  22
ATOM     22  C   UNL     1       7.524   7.505  17.608  0.00  0.00    +0.000 C 
BRANCH  22  23
ATOM     23  C   UNL     1       7.627   9.011  17.820  0.00  0.00    +0.000 C 
BRANCH  23  24
ATOM     24  C   UNL     1       9.069   9.367  18.131  0.00  0.00    +0.000 C 
BRANCH  24  25
ATOM     25  C   UNL     1       9.195  10.214  19.389  0.00  0.00    +0.000 C 
BRANCH  25  26
ATOM     26  C   UNL     1      10.310  11.231  19.185  0.00  0.00    +0.000 C 
BRANCH  26  27
ATOM     27  C   UNL     1      10.519  11.575  17.729  0.00  0.00    +0.000 C 
BRANCH  27  28
ATOM     28  C   UNL     1      10.939  13.017  17.574  0.00  0.00    +0.000 C 
ATOM     29  O   UNL     1      11.516  13.483  16.589  0.00  0.00    +0.000 OA
BRANCH  28  30
ATOM     30  O   UNL     1      10.586  13.730  18.677  0.00  0.00    +0.000 OA
ATOM     31  C   UNL     1      11.683  14.345  19.323  0.00  0.00    +0.000 C 
ENDBRANCH  28  30
ENDBRANCH  27  28
ENDBRANCH  26  27
ENDBRANCH  25  26
ENDBRANCH  24  25
ENDBRANCH  23  24
ENDBRANCH  22  23
ENDBRANCH  21  22
ENDBRANCH  20  21
ENDBRANCH  19  20
ENDBRANCH  18  19
ENDBRANCH   1  18
BRANCH   1  32
ATOM     32  C   UNL     1       1.578   5.034  20.371  0.00  0.00    +0.000 C 
BRANCH  32  33
ATOM     33  C   UNL     1       2.136   4.029  21.372  0.00  0.00    +0.000 C 
BRANCH  33  34
ATOM     34  C   UNL     1       1.963   2.574  20.933  0.00  0.00    +0.000 C 
BRANCH  34  35
ATOM     35  C   UNL     1       2.757   2.360  19.645  0.00  0.00    +0.000 C 
BRANCH  35  37
ATOM     36  C   UNL     1       2.567   3.006  17.240  0.00  0.00    +0.000 C 
ATOM     37  C   UNL     1       1.884   2.289  18.398  0.00  0.00    +0.000 C 
ENDBRANCH  35  37
ENDBRANCH  34  35
ENDBRANCH  33  34
ENDBRANCH  32  33
ENDBRANCH   1  32
TORSDOF 24
ENDMDL
MODEL 8
REMARK VINA RESULT:      -6.2      3.404      6.610
REMARK  Name = 
REMARK  26 active torsions:
REMARK  status: ('A' for Active; 'I' for Inactive)
REMARK    1  A    between atoms: C_1  and  C_2
REMARK    2  A    between atoms: C_2  and  C_3
REMARK    3  A    between atoms: C_3  and  C_4
REMARK    4  A    between atoms: C_4  and  C_5
REMARK    5  A    between atoms: C_5  and  C_6
REMARK    6  A    between atoms: C_6  and  C_7
REMARK    7  A    between atoms: C_7  and  C_8
REMARK    8  A    between atoms: C_7  and  O_22
REMARK    9  A    between atoms: C_8  and  C_9
REMARK   10  A    between atoms: C_9  and  C_10
REMARK   11  A    between atoms: C_10  and  C_11
REMARK   12  A    between atoms: C_11  and  C_12
REMARK   13  A    between atoms: C_12  and  C_13
REMARK   14  A    between atoms: C_13  and  C_14
REMARK   15  A    between atoms: C_14  and  C_15
REMARK   16  A    between atoms: C_15  and  C_16
REMARK   17  A    between atoms: C_16  and  C_17
REMARK   18  A    between atoms: C_17  and  C_18
REMARK   19  A    between atoms: C_18  and  O_20
REMARK   20  A    between atoms: O_20  and  C_21
REMARK   21  A    between atoms: O_22  and  C_23
REMARK   22  A    between atoms: C_25  and  C_26
REMARK   23  A    between atoms: C_26  and  O_27
REMARK   24  A    between atoms: C_28  and  O_29
REMARK   25  A    between atoms: C_30  and  O_31
REMARK   26  A    between atoms: C_32  and  O_33
REMARK                            x       y       z     vdW  Elec       q    Type
REMARK                         _______ _______ _______ _____ _____    ______ ____
ROOT
ATOM      1  C   UNL     1       2.467   6.432  19.914  0.00  0.00    +0.000 C 
ENDROOT
BRANCH   1   2
ATOM      2  O   UNL     1       1.931   7.462  19.058  0.00  0.00    +0.000 OA
BRANCH   2   3
ATOM      3  C   UNL     1       1.751   8.744  19.656  0.00  0.00    +0.000 C 
ATOM      4  O   UNL     1       0.913   8.654  20.815  0.00  0.00    +0.000 OA
ATOM      5  C   UNL     1       0.928   9.866  21.568  0.00  0.00    +0.000 C 
ATOM      6  C   UNL     1       0.287  10.987  20.739  0.00  0.00    +0.000 C 
ATOM      7  C   UNL     1       0.974  11.101  19.363  0.00  0.00    +0.000 C 
ATOM      8  C   UNL     1       1.117   9.743  18.652  0.00  0.00    +0.000 C 
BRANCH   8   9
ATOM      9  O   UNL     1       1.891   9.904  17.450  0.00  0.00    +0.000 OA
ATOM     10  H   UNL     1       1.434   9.491  16.695  0.00  0.00    +0.000 HD
ENDBRANCH   8   9
BRANCH   7  11
ATOM     11  O   UNL     1       0.297  12.083  18.559  0.00  0.00    +0.000 OA
ATOM     12  H   UNL     1       0.787  12.205  17.723  0.00  0.00    +0.000 HD
ENDBRANCH   7  11
BRANCH   6  13
ATOM     13  O   UNL     1       0.445  12.220  21.450  0.00  0.00    +0.000 OA
ATOM     14  H   UNL     1       1.174  12.705  21.021  0.00  0.00    +0.000 HD
ENDBRANCH   6  13
BRANCH   5  15
ATOM     15  C   UNL     1       0.206   9.633  22.900  0.00  0.00    +0.000 C 
BRANCH  15  16
ATOM     16  O   UNL     1      -1.005  10.381  22.977  0.00  0.00    +0.000 OA
ATOM     17  H   UNL     1      -1.592  10.019  22.284  0.00  0.00    +0.000 HD
ENDBRANCH  15  16
ENDBRANCH   5  15
ENDBRANCH   2   3
ENDBRANCH   1   2
BRANCH   1  18
ATOM     18  C   UNL     1       3.758   5.803  19.338  0.00  0.00    +0.000 C 
BRANCH  18  19
ATOM     19  C   UNL     1       3.831   6.118  17.847  0.00  0.00    +0.000 C 
BRANCH  19  20
ATOM     20  C   UNL     1       4.758   5.218  17.050  0.00  0.00    +0.000 C 
BRANCH  20  21
ATOM     21  C   UNL     1       5.853   6.105  16.460  0.00  0.00    +0.000 C 
BRANCH  21  22
ATOM     22  C   UNL     1       7.210   5.772  17.041  0.00  0.00    +0.000 C 
BRANCH  22  23
ATOM     23  C   UNL     1       7.340   6.329  18.454  0.00  0.00    +0.000 C 
BRANCH  23  24
ATOM     24  C   UNL     1       8.251   7.543  18.423  0.00  0.00    +0.000 C 
BRANCH  24  25
ATOM     25  C   UNL     1       7.654   8.691  17.621  0.00  0.00    +0.000 C 
BRANCH  25  26
ATOM     26  C   UNL     1       8.377   9.977  17.995  0.00  0.00    +0.000 C 
BRANCH  26  27
ATOM     27  C   UNL     1       9.217   9.827  19.241  0.00  0.00    +0.000 C 
BRANCH  27  28
ATOM     28  C   UNL     1      10.084  11.044  19.454  0.00  0.00    +0.000 C 
ATOM     29  O   UNL     1      10.637  11.684  18.556  0.00  0.00    +0.000 OA
BRANCH  28  30
ATOM     30  O   UNL     1      10.165  11.338  20.779  0.00  0.00    +0.000 OA
ATOM     31  C   UNL     1       9.105  12.154  21.238  0.00  0.00    +0.000 C 
ENDBRANCH  28  30
ENDBRANCH  27  28
ENDBRANCH  26  27
ENDBRANCH  25  26
ENDBRANCH  24  25
ENDBRANCH  23  24
ENDBRANCH  22  23
ENDBRANCH  21  22
ENDBRANCH  20  21
ENDBRANCH  19  20
ENDBRANCH  18  19
ENDBRANCH   1  18
BRANCH   1  32
ATOM     32  C   UNL     1       1.387   5.428  20.358  0.00  0.00    +0.000 C 
BRANCH  32  33
ATOM     33  C   UNL     1       1.401   4.145  19.535  0.00  0.00    +0.000 C 
BRANCH  33  34
ATOM     34  C   UNL     1       1.212   2.882  20.376  0.00  0.00    +0.000 C 
BRANCH  34  35
ATOM     35  C   UNL     1       2.249   2.891  21.499  0.00  0.00    +0.000 C 
BRANCH  35  37
ATOM     36  C   UNL     1       3.984   2.325  19.795  0.00  0.00    +0.000 C 
ATOM     37  C   UNL     1       3.474   2.036  21.202  0.00  0.00    +0.000 C 
ENDBRANCH  35  37
ENDBRANCH  34  35
ENDBRANCH  33  34
ENDBRANCH  32  33
ENDBRANCH   1  32
TORSDOF 24
ENDMDL
MODEL 9
REMARK VINA RESULT:      -6.2      4.569      6.957
REMARK  Name = 
REMARK  26 active torsions:
REMARK  status: ('A' for Active; 'I' for Inactive)
REMARK    1  A    between atoms: C_1  and  C_2
REMARK    2  A    between atoms: C_2  and  C_3
REMARK    3  A    between atoms: C_3  and  C_4
REMARK    4  A    between atoms: C_4  and  C_5
REMARK    5  A    between atoms: C_5  and  C_6
REMARK    6  A    between atoms: C_6  and  C_7
REMARK    7  A    between atoms: C_7  and  C_8
REMARK    8  A    between atoms: C_7  and  O_22
REMARK    9  A    between atoms: C_8  and  C_9
REMARK   10  A    between atoms: C_9  and  C_10
REMARK   11  A    between atoms: C_10  and  C_11
REMARK   12  A    between atoms: C_11  and  C_12
REMARK   13  A    between atoms: C_12  and  C_13
REMARK   14  A    between atoms: C_13  and  C_14
REMARK   15  A    between atoms: C_14  and  C_15
REMARK   16  A    between atoms: C_15  and  C_16
REMARK   17  A    between atoms: C_16  and  C_17
REMARK   18  A    between atoms: C_17  and  C_18
REMARK   19  A    between atoms: C_18  and  O_20
REMARK   20  A    between atoms: O_20  and  C_21
REMARK   21  A    between atoms: O_22  and  C_23
REMARK   22  A    between atoms: C_25  and  C_26
REMARK   23  A    between atoms: C_26  and  O_27
REMARK   24  A    between atoms: C_28  and  O_29
REMARK   25  A    between atoms: C_30  and  O_31
REMARK   26  A    between atoms: C_32  and  O_33
REMARK                            x       y       z     vdW  Elec       q    Type
REMARK                         _______ _______ _______ _____ _____    ______ ____
ROOT
ATOM      1  C   UNL     1       2.378   5.701  18.746  0.00  0.00    +0.000 C 
ENDROOT
BRANCH   1   2
ATOM      2  O   UNL     1       3.094   4.605  18.140  0.00  0.00    +0.000 OA
BRANCH   2   3
ATOM      3  C   UNL     1       4.316   4.940  17.486  0.00  0.00    +0.000 C 
ATOM      4  O   UNL     1       4.388   4.326  16.192  0.00  0.00    +0.000 OA
ATOM      5  C   UNL     1       5.472   4.847  15.424  0.00  0.00    +0.000 C 
ATOM      6  C   UNL     1       6.799   4.459  16.089  0.00  0.00    +0.000 C 
ATOM      7  C   UNL     1       6.814   4.903  17.565  0.00  0.00    +0.000 C 
ATOM      8  C   UNL     1       5.540   4.490  18.326  0.00  0.00    +0.000 C 
BRANCH   8   9
ATOM      9  O   UNL     1       5.558   5.059  19.647  0.00  0.00    +0.000 OA
ATOM     10  H   UNL     1       6.246   5.747  19.711  0.00  0.00    +0.000 HD
ENDBRANCH   8   9
BRANCH   7  11
ATOM     11  O   UNL     1       8.018   4.440  18.203  0.00  0.00    +0.000 OA
ATOM     12  H   UNL     1       7.853   4.335  19.160  0.00  0.00    +0.000 HD
ENDBRANCH   7  11
BRANCH   6  13
ATOM     13  O   UNL     1       7.862   5.114  15.388  0.00  0.00    +0.000 OA
ATOM     14  H   UNL     1       8.422   5.546  16.059  0.00  0.00    +0.000 HD
ENDBRANCH   6  13
BRANCH   5  15
ATOM     15  C   UNL     1       5.359   4.326  13.987  0.00  0.00    +0.000 C 
BRANCH  15  16
ATOM     16  O   UNL     1       6.330   3.318  13.718  0.00  0.00    +0.000 OA
ATOM     17  H   UNL     1       5.853   2.466  13.754  0.00  0.00    +0.000 HD
ENDBRANCH  15  16
ENDBRANCH   5  15
ENDBRANCH   2   3
ENDBRANCH   1   2
BRANCH   1  18
ATOM     18  C   UNL     1       3.028   7.070  18.436  0.00  0.00    +0.000 C 
BRANCH  18  19
ATOM     19  C   UNL     1       2.020   7.928  17.677  0.00  0.00    +0.000 C 
BRANCH  19  20
ATOM     20  C   UNL     1       2.124   9.419  17.944  0.00  0.00    +0.000 C 
BRANCH  20  21
ATOM     21  C   UNL     1       1.117   9.752  19.043  0.00  0.00    +0.000 C 
BRANCH  21  22
ATOM     22  C   UNL     1      -0.108  10.442  18.485  0.00  0.00    +0.000 C 
BRANCH  22  23
ATOM     23  C   UNL     1      -0.265  11.832  19.091  0.00  0.00    +0.000 C 
BRANCH  23  24
ATOM     24  C   UNL     1       0.829  12.733  18.546  0.00  0.00    +0.000 C 
BRANCH  24  25
ATOM     25  C   UNL     1       1.195  13.847  19.517  0.00  0.00    +0.000 C 
BRANCH  25  26
ATOM     26  C   UNL     1       1.392  15.135  18.730  0.00  0.00    +0.000 C 
BRANCH  26  27
ATOM     27  C   UNL     1       2.816  15.314  18.260  0.00  0.00    +0.000 C 
BRANCH  27  28
ATOM     28  C   UNL     1       3.119  16.770  18.005  0.00  0.00    +0.000 C 
ATOM     29  O   UNL     1       2.309  17.596  17.575  0.00  0.00    +0.000 OA
BRANCH  28  30
ATOM     30  O   UNL     1       4.412  17.044  18.322  0.00  0.00    +0.000 OA
ATOM     31  C   UNL     1       4.673  16.995  19.711  0.00  0.00    +0.000 C 
ENDBRANCH  28  30
ENDBRANCH  27  28
ENDBRANCH  26  27
ENDBRANCH  25  26
ENDBRANCH  24  25
ENDBRANCH  23  24
ENDBRANCH  22  23
ENDBRANCH  21  22
ENDBRANCH  20  21
ENDBRANCH  19  20
ENDBRANCH  18  19
ENDBRANCH   1  18
BRANCH   1  32
ATOM     32  C   UNL     1       2.070   5.440  20.232  0.00  0.00    +0.000 C 
BRANCH  32  33
ATOM     33  C   UNL     1       0.861   4.534  20.434  0.00  0.00    +0.000 C 
BRANCH  33  34
ATOM     34  C   UNL     1       1.228   3.058  20.593  0.00  0.00    +0.000 C 
BRANCH  34  35
ATOM     35  C   UNL     1       2.547   2.968  21.360  0.00  0.00    +0.000 C 
BRANCH  35  37
ATOM     36  C   UNL     1       3.111   1.744  19.258  0.00  0.00    +0.000 C 
ATOM     37  C   UNL     1       3.647   2.242  20.595  0.00  0.00    +0.000 C 
ENDBRANCH  35  37
ENDBRANCH  34  35
ENDBRANCH  33  34
ENDBRANCH  32  33
ENDBRANCH   1  32
TORSDOF 24
ENDMDL
