MODEL 1
REMARK VINA RESULT:      -8.2      0.000      0.000
REMARK  Name = 
REMARK  4 active torsions:
REMARK  status: ('A' for Active; 'I' for Inactive)
REMARK    1  A    between atoms: N_9  and  C_10
REMARK    2  A    between atoms: C_10  and  C_11
REMARK    3  A    between atoms: C_14  and  C_15
REMARK    4  A    between atoms: C_15  and  O_16
REMARK                            x       y       z     vdW  Elec       q    Type
REMARK                         _______ _______ _______ _____ _____    ______ ____
ROOT
ATOM      1  N   UNL     1       8.427   5.235  20.514  0.00  0.00    +0.000 N 
ATOM      2  C   UNL     1       7.738   5.652  19.392  0.00  0.00    +0.000 A 
ATOM      3  N   UNL     1       8.142   6.814  18.846  0.00  0.00    +0.000 NA
ATOM      4  C   UNL     1       7.512   7.278  17.741  0.00  0.00    +0.000 A 
ATOM      5  N   UNL     1       7.922   8.490  17.201  0.00  0.00    +0.000 N 
ATOM      6  C   UNL     1       6.492   6.502  17.177  0.00  0.00    +0.000 A 
ATOM      7  N   UNL     1       5.707   6.660  16.053  0.00  0.00    +0.000 NA
ATOM      8  C   UNL     1       4.928   5.598  16.038  0.00  0.00    +0.000 A 
ATOM      9  N   UNL     1       5.163   4.778  17.110  0.00  0.00    +0.000 N 
ATOM     10  C   UNL     1       6.187   5.322  17.833  0.00  0.00    +0.000 A 
ATOM     11  N   UNL     1       6.772   4.835  18.937  0.00  0.00    +0.000 NA
ATOM     12  H   UNL     1       9.339   5.671  20.532  0.00  0.00    +0.000 HD
ATOM     13  H   UNL     1       8.389   4.229  20.591  0.00  0.00    +0.000 HD
ATOM     14  H   UNL     1       8.867   8.735  17.470  0.00  0.00    +0.000 HD
ATOM     15  H   UNL     1       7.655   8.612  16.230  0.00  0.00    +0.000 HD
ENDROOT
BRANCH   9  16
ATOM     16  C   UNL     1       4.479   3.536  17.391  0.00  0.00    +0.000 C 
BRANCH  16  17
ATOM     17  C   UNL     1       3.302   3.687  18.362  0.00  0.00    +0.000 C 
ATOM     18  C   UNL     1       1.936   3.578  17.688  0.00  0.00    +0.000 C 
ATOM     19  C   UNL     1       0.981   3.161  18.800  0.00  0.00    +0.000 C 
ATOM     20  C   UNL     1       1.820   2.372  19.810  0.00  0.00    +0.000 C 
ATOM     21  C   UNL     1       3.287   2.556  19.394  0.00  0.00    +0.000 C 
BRANCH  20  22
ATOM     22  C   UNL     1       1.540   2.816  21.245  0.00  0.00    +0.000 C 
BRANCH  22  23
ATOM     23  O   UNL     1       2.679   2.595  22.066  0.00  0.00    +0.000 OA
ATOM     24  H   UNL     1       2.404   2.719  22.990  0.00  0.00    +0.000 HD
ENDBRANCH  22  23
ENDBRANCH  20  22
ENDBRANCH  16  17
ENDBRANCH   9  16
TORSDOF 4
ENDMDL
MODEL 2
REMARK VINA RESULT:      -7.7      0.970      1.161
REMARK  Name = 
REMARK  4 active torsions:
REMARK  status: ('A' for Active; 'I' for Inactive)
REMARK    1  A    between atoms: N_9  and  C_10
REMARK    2  A    between atoms: C_10  and  C_11
REMARK    3  A    between atoms: C_14  and  C_15
REMARK    4  A    between atoms: C_15  and  O_16
REMARK                            x       y       z     vdW  Elec       q    Type
REMARK                         _______ _______ _______ _____ _____    ______ ____
ROOT
ATOM      1  N   UNL     1       8.476   5.221  20.393  0.00  0.00    +0.000 N 
ATOM      2  C   UNL     1       7.817   5.682  19.271  0.00  0.00    +0.000 A 
ATOM      3  N   UNL     1       8.182   6.897  18.825  0.00  0.00    +0.000 NA
ATOM      4  C   UNL     1       7.578   7.407  17.726  0.00  0.00    +0.000 A 
ATOM      5  N   UNL     1       7.946   8.673  17.290  0.00  0.00    +0.000 N 
ATOM      6  C   UNL     1       6.627   6.622  17.062  0.00  0.00    +0.000 A 
ATOM      7  N   UNL     1       5.885   6.820  15.914  0.00  0.00    +0.000 NA
ATOM      8  C   UNL     1       5.165   5.724  15.790  0.00  0.00    +0.000 A 
ATOM      9  N   UNL     1       5.396   4.843  16.814  0.00  0.00    +0.000 N 
ATOM     10  C   UNL     1       6.357   5.385  17.620  0.00  0.00    +0.000 A 
ATOM     11  N   UNL     1       6.917   4.852  18.716  0.00  0.00    +0.000 NA
ATOM     12  H   UNL     1       9.362   5.700  20.485  0.00  0.00    +0.000 HD
ATOM     13  H   UNL     1       8.488   4.211  20.400  0.00  0.00    +0.000 HD
ATOM     14  H   UNL     1       8.864   8.945  17.620  0.00  0.00    +0.000 HD
ATOM     15  H   UNL     1       7.717   8.849  16.318  0.00  0.00    +0.000 HD
ENDROOT
BRANCH   9  16
ATOM     16  C   UNL     1       4.767   3.552  16.976  0.00  0.00    +0.000 C 
BRANCH  16  17
ATOM     17  C   UNL     1       3.660   3.534  18.037  0.00  0.00    +0.000 C 
ATOM     18  C   UNL     1       3.053   4.908  18.311  0.00  0.00    +0.000 C 
ATOM     19  C   UNL     1       1.670   4.621  18.880  0.00  0.00    +0.000 C 
ATOM     20  C   UNL     1       1.232   3.280  18.283  0.00  0.00    +0.000 C 
ATOM     21  C   UNL     1       2.464   2.696  17.576  0.00  0.00    +0.000 C 
BRANCH  20  22
ATOM     22  C   UNL     1       0.651   2.351  19.348  0.00  0.00    +0.000 C 
BRANCH  22  23
ATOM     23  O   UNL     1       0.663   2.982  20.620  0.00  0.00    +0.000 OA
ATOM     24  H   UNL     1       1.283   2.493  21.186  0.00  0.00    +0.000 HD
ENDBRANCH  22  23
ENDBRANCH  20  22
ENDBRANCH  16  17
ENDBRANCH   9  16
TORSDOF 4
ENDMDL
MODEL 3
REMARK VINA RESULT:      -7.2      1.147      1.498
REMARK  Name = 
REMARK  4 active torsions:
REMARK  status: ('A' for Active; 'I' for Inactive)
REMARK    1  A    between atoms: N_9  and  C_10
REMARK    2  A    between atoms: C_10  and  C_11
REMARK    3  A    between atoms: C_14  and  C_15
REMARK    4  A    between atoms: C_15  and  O_16
REMARK                            x       y       z     vdW  Elec       q    Type
REMARK                         _______ _______ _______ _____ _____    ______ ____
ROOT
ATOM      1  N   UNL     1       8.549   5.205  20.385  0.00  0.00    +0.000 N 
ATOM      2  C   UNL     1       7.828   5.643  19.292  0.00  0.00    +0.000 A 
ATOM      3  N   UNL     1       8.142   6.865  18.824  0.00  0.00    +0.000 NA
ATOM      4  C   UNL     1       7.476   7.353  17.752  0.00  0.00    +0.000 A 
ATOM      5  N   UNL     1       7.793   8.625  17.293  0.00  0.00    +0.000 N 
ATOM      6  C   UNL     1       6.515   6.542  17.136  0.00  0.00    +0.000 A 
ATOM      7  N   UNL     1       5.716   6.715  16.023  0.00  0.00    +0.000 NA
ATOM      8  C   UNL     1       5.019   5.602  15.937  0.00  0.00    +0.000 A 
ATOM      9  N   UNL     1       5.318   4.732  16.953  0.00  0.00    +0.000 N 
ATOM     10  C   UNL     1       6.301   5.302  17.712  0.00  0.00    +0.000 A 
ATOM     11  N   UNL     1       6.924   4.789  18.783  0.00  0.00    +0.000 NA
ATOM     12  H   UNL     1       9.426   5.705  20.434  0.00  0.00    +0.000 HD
ATOM     13  H   UNL     1       8.586   4.196  20.396  0.00  0.00    +0.000 HD
ATOM     14  H   UNL     1       8.719   8.921  17.579  0.00  0.00    +0.000 HD
ATOM     15  H   UNL     1       7.515   8.791  16.332  0.00  0.00    +0.000 HD
ENDROOT
BRANCH   9  16
ATOM     16  C   UNL     1       4.728   3.428  17.151  0.00  0.00    +0.000 C 
BRANCH  16  17
ATOM     17  C   UNL     1       3.628   3.403  18.219  0.00  0.00    +0.000 C 
ATOM     18  C   UNL     1       3.993   2.582  19.453  0.00  0.00    +0.000 C 
ATOM     19  C   UNL     1       3.119   3.138  20.569  0.00  0.00    +0.000 C 
ATOM     20  C   UNL     1       2.853   4.604  20.213  0.00  0.00    +0.000 C 
ATOM     21  C   UNL     1       3.369   4.804  18.780  0.00  0.00    +0.000 C 
BRANCH  20  22
ATOM     22  C   UNL     1       1.378   4.967  20.378  0.00  0.00    +0.000 C 
BRANCH  22  23
ATOM     23  O   UNL     1       0.569   3.800  20.325  0.00  0.00    +0.000 OA
ATOM     24  H   UNL     1       0.619   3.448  19.421  0.00  0.00    +0.000 HD
ENDBRANCH  22  23
ENDBRANCH  20  22
ENDBRANCH  16  17
ENDBRANCH   9  16
TORSDOF 4
ENDMDL
MODEL 4
REMARK VINA RESULT:      -7.0      3.354      6.443
REMARK  Name = 
REMARK  4 active torsions:
REMARK  status: ('A' for Active; 'I' for Inactive)
REMARK    1  A    between atoms: N_9  and  C_10
REMARK    2  A    between atoms: C_10  and  C_11
REMARK    3  A    between atoms: C_14  and  C_15
REMARK    4  A    between atoms: C_15  and  O_16
REMARK                            x       y       z     vdW  Elec       q    Type
REMARK                         _______ _______ _______ _____ _____    ______ ____
ROOT
ATOM      1  N   UNL     1       4.074   0.626  18.416  0.00  0.00    +0.000 N 
ATOM      2  C   UNL     1       3.436   1.845  18.535  0.00  0.00    +0.000 A 
ATOM      3  N   UNL     1       2.278   1.845  19.219  0.00  0.00    +0.000 NA
ATOM      4  C   UNL     1       1.603   3.008  19.377  0.00  0.00    +0.000 A 
ATOM      5  N   UNL     1       0.397   2.991  20.065  0.00  0.00    +0.000 N 
ATOM      6  C   UNL     1       2.166   4.182  18.861  0.00  0.00    +0.000 A 
ATOM      7  N   UNL     1       1.771   5.504  18.895  0.00  0.00    +0.000 NA
ATOM      8  C   UNL     1       2.714   6.151  18.241  0.00  0.00    +0.000 A 
ATOM      9  N   UNL     1       3.683   5.303  17.773  0.00  0.00    +0.000 N 
ATOM     10  C   UNL     1       3.369   4.041  18.191  0.00  0.00    +0.000 A 
ATOM     11  N   UNL     1       4.059   2.908  17.996  0.00  0.00    +0.000 NA
ATOM     12  H   UNL     1       3.765   0.009  19.155  0.00  0.00    +0.000 HD
ATOM     13  H   UNL     1       5.068   0.763  18.307  0.00  0.00    +0.000 HD
ATOM     14  H   UNL     1       0.311   2.189  20.677  0.00  0.00    +0.000 HD
ATOM     15  H   UNL     1       0.123   3.898  20.425  0.00  0.00    +0.000 HD
ENDROOT
BRANCH   9  16
ATOM     16  C   UNL     1       4.851   5.691  17.015  0.00  0.00    +0.000 C 
BRANCH  16  17
ATOM     17  C   UNL     1       5.844   6.549  17.807  0.00  0.00    +0.000 C 
ATOM     18  C   UNL     1       6.925   5.735  18.516  0.00  0.00    +0.000 C 
ATOM     19  C   UNL     1       8.081   6.707  18.715  0.00  0.00    +0.000 C 
ATOM     20  C   UNL     1       7.985   7.726  17.576  0.00  0.00    +0.000 C 
ATOM     21  C   UNL     1       6.637   7.476  16.882  0.00  0.00    +0.000 C 
BRANCH  20  22
ATOM     22  C   UNL     1       8.144   9.158  18.084  0.00  0.00    +0.000 C 
BRANCH  22  23
ATOM     23  O   UNL     1       9.095   9.209  19.139  0.00  0.00    +0.000 OA
ATOM     24  H   UNL     1       8.666   9.633  19.901  0.00  0.00    +0.000 HD
ENDBRANCH  22  23
ENDBRANCH  20  22
ENDBRANCH  16  17
ENDBRANCH   9  16
TORSDOF 4
ENDMDL
MODEL 5
REMARK VINA RESULT:      -7.0      3.515      6.315
REMARK  Name = 
REMARK  4 active torsions:
REMARK  status: ('A' for Active; 'I' for Inactive)
REMARK    1  A    between atoms: N_9  and  C_10
REMARK    2  A    between atoms: C_10  and  C_11
REMARK    3  A    between atoms: C_14  and  C_15
REMARK    4  A    between atoms: C_15  and  O_16
REMARK                            x       y       z     vdW  Elec       q    Type
REMARK                         _______ _______ _______ _____ _____    ______ ____
ROOT
ATOM      1  N   UNL     1       1.782   7.417  20.771  0.00  0.00    +0.000 N 
ATOM      2  C   UNL     1       2.012   6.157  20.257  0.00  0.00    +0.000 A 
ATOM      3  N   UNL     1       1.326   5.149  20.826  0.00  0.00    +0.000 NA
ATOM      4  C   UNL     1       1.502   3.888  20.366  0.00  0.00    +0.000 A 
ATOM      5  N   UNL     1       0.806   2.853  20.978  0.00  0.00    +0.000 N 
ATOM      6  C   UNL     1       2.358   3.687  19.277  0.00  0.00    +0.000 A 
ATOM      7  N   UNL     1       2.707   2.564  18.553  0.00  0.00    +0.000 NA
ATOM      8  C   UNL     1       3.549   3.003  17.642  0.00  0.00    +0.000 A 
ATOM      9  N   UNL     1       3.772   4.350  17.759  0.00  0.00    +0.000 N 
ATOM     10  C   UNL     1       2.990   4.813  18.779  0.00  0.00    +0.000 A 
ATOM     11  N   UNL     1       2.859   6.074  19.216  0.00  0.00    +0.000 NA
ATOM     12  H   UNL     1       0.885   7.434  21.237  0.00  0.00    +0.000 HD
ATOM     13  H   UNL     1       1.955   8.118  20.065  0.00  0.00    +0.000 HD
ATOM     14  H   UNL     1      -0.019   3.177  21.468  0.00  0.00    +0.000 HD
ATOM     15  H   UNL     1       0.723   2.024  20.400  0.00  0.00    +0.000 HD
ENDROOT
BRANCH   9  16
ATOM     16  C   UNL     1       4.644   5.139  16.919  0.00  0.00    +0.000 C 
BRANCH  16  17
ATOM     17  C   UNL     1       5.600   6.047  17.701  0.00  0.00    +0.000 C 
ATOM     18  C   UNL     1       6.625   5.281  18.534  0.00  0.00    +0.000 C 
ATOM     19  C   UNL     1       7.780   6.255  18.728  0.00  0.00    +0.000 C 
ATOM     20  C   UNL     1       7.766   7.183  17.509  0.00  0.00    +0.000 C 
ATOM     21  C   UNL     1       6.460   6.891  16.756  0.00  0.00    +0.000 C 
BRANCH  20  22
ATOM     22  C   UNL     1       7.915   8.648  17.913  0.00  0.00    +0.000 C 
BRANCH  22  23
ATOM     23  O   UNL     1       8.860   8.782  18.965  0.00  0.00    +0.000 OA
ATOM     24  H   UNL     1       8.498   8.330  19.746  0.00  0.00    +0.000 HD
ENDBRANCH  22  23
ENDBRANCH  20  22
ENDBRANCH  16  17
ENDBRANCH   9  16
TORSDOF 4
ENDMDL
MODEL 6
REMARK VINA RESULT:      -6.9      3.672      6.189
REMARK  Name = 
REMARK  4 active torsions:
REMARK  status: ('A' for Active; 'I' for Inactive)
REMARK    1  A    between atoms: N_9  and  C_10
REMARK    2  A    between atoms: C_10  and  C_11
REMARK    3  A    between atoms: C_14  and  C_15
REMARK    4  A    between atoms: C_15  and  O_16
REMARK                            x       y       z     vdW  Elec       q    Type
REMARK                         _______ _______ _______ _____ _____    ______ ____
ROOT
ATOM      1  N   UNL     1       2.019   6.928  20.614  0.00  0.00    +0.000 N 
ATOM      2  C   UNL     1       2.143   5.581  20.335  0.00  0.00    +0.000 A 
ATOM      3  N   UNL     1       1.735   4.735  21.299  0.00  0.00    +0.000 NA
ATOM      4  C   UNL     1       1.824   3.401  21.089  0.00  0.00    +0.000 A 
ATOM      5  N   UNL     1       1.422   2.539  22.101  0.00  0.00    +0.000 N 
ATOM      6  C   UNL     1       2.293   2.950  19.849  0.00  0.00    +0.000 A 
ATOM      7  N   UNL     1       2.453   1.689  19.310  0.00  0.00    +0.000 NA
ATOM      8  C   UNL     1       2.931   1.902  18.101  0.00  0.00    +0.000 A 
ATOM      9  N   UNL     1       3.103   3.237  17.848  0.00  0.00    +0.000 N 
ATOM     10  C   UNL     1       2.666   3.928  18.943  0.00  0.00    +0.000 A 
ATOM     11  N   UNL     1       2.612   5.256  19.118  0.00  0.00    +0.000 NA
ATOM     12  H   UNL     1       1.321   7.062  21.332  0.00  0.00    +0.000 HD
ATOM     13  H   UNL     1       1.915   7.452  19.757  0.00  0.00    +0.000 HD
ATOM     14  H   UNL     1       0.782   2.977  22.752  0.00  0.00    +0.000 HD
ATOM     15  H   UNL     1       1.205   1.604  21.774  0.00  0.00    +0.000 HD
ENDROOT
BRANCH   9  16
ATOM     16  C   UNL     1       3.610   3.806  16.620  0.00  0.00    +0.000 C 
BRANCH  16  17
ATOM     17  C   UNL     1       5.063   4.286  16.717  0.00  0.00    +0.000 C 
ATOM     18  C   UNL     1       5.877   4.032  15.451  0.00  0.00    +0.000 C 
ATOM     19  C   UNL     1       7.011   5.048  15.501  0.00  0.00    +0.000 C 
ATOM     20  C   UNL     1       6.476   6.246  16.291  0.00  0.00    +0.000 C 
ATOM     21  C   UNL     1       5.134   5.806  16.894  0.00  0.00    +0.000 C 
BRANCH  20  22
ATOM     22  C   UNL     1       7.480   6.725  17.339  0.00  0.00    +0.000 C 
BRANCH  22  23
ATOM     23  O   UNL     1       7.767   8.105  17.161  0.00  0.00    +0.000 OA
ATOM     24  H   UNL     1       8.537   8.172  16.573  0.00  0.00    +0.000 HD
ENDBRANCH  22  23
ENDBRANCH  20  22
ENDBRANCH  16  17
ENDBRANCH   9  16
TORSDOF 4
ENDMDL
MODEL 7
REMARK VINA RESULT:      -6.9      1.718      2.167
REMARK  Name = 
REMARK  4 active torsions:
REMARK  status: ('A' for Active; 'I' for Inactive)
REMARK    1  A    between atoms: N_9  and  C_10
REMARK    2  A    between atoms: C_10  and  C_11
REMARK    3  A    between atoms: C_14  and  C_15
REMARK    4  A    between atoms: C_15  and  O_16
REMARK                            x       y       z     vdW  Elec       q    Type
REMARK                         _______ _______ _______ _____ _____    ______ ____
ROOT
ATOM      1  N   UNL     1       8.540   5.239  20.250  0.00  0.00    +0.000 N 
ATOM      2  C   UNL     1       7.599   5.555  19.290  0.00  0.00    +0.000 A 
ATOM      3  N   UNL     1       8.070   5.788  18.051  0.00  0.00    +0.000 NA
ATOM      4  C   UNL     1       7.201   6.099  17.061  0.00  0.00    +0.000 A 
ATOM      5  N   UNL     1       7.702   6.361  15.793  0.00  0.00    +0.000 N 
ATOM      6  C   UNL     1       5.832   6.117  17.355  0.00  0.00    +0.000 A 
ATOM      7  N   UNL     1       4.710   6.339  16.582  0.00  0.00    +0.000 NA
ATOM      8  C   UNL     1       3.700   6.219  17.418  0.00  0.00    +0.000 A 
ATOM      9  N   UNL     1       4.122   5.950  18.694  0.00  0.00    +0.000 N 
ATOM     10  C   UNL     1       5.484   5.845  18.667  0.00  0.00    +0.000 A 
ATOM     11  N   UNL     1       6.313   5.552  19.680  0.00  0.00    +0.000 NA
ATOM     12  H   UNL     1       9.373   4.883  19.802  0.00  0.00    +0.000 HD
ATOM     13  H   UNL     1       8.121   4.674  20.975  0.00  0.00    +0.000 HD
ATOM     14  H   UNL     1       8.619   5.957  15.647  0.00  0.00    +0.000 HD
ATOM     15  H   UNL     1       7.013   6.259  15.056  0.00  0.00    +0.000 HD
ENDROOT
BRANCH   9  16
ATOM     16  C   UNL     1       3.269   5.764  19.845  0.00  0.00    +0.000 C 
BRANCH  16  17
ATOM     17  C   UNL     1       2.728   4.336  19.989  0.00  0.00    +0.000 C 
ATOM     18  C   UNL     1       2.196   4.021  21.385  0.00  0.00    +0.000 C 
ATOM     19  C   UNL     1       1.216   2.873  21.182  0.00  0.00    +0.000 C 
ATOM     20  C   UNL     1       0.666   3.026  19.761  0.00  0.00    +0.000 C 
ATOM     21  C   UNL     1       1.517   4.109  19.080  0.00  0.00    +0.000 C 
BRANCH  20  22
ATOM     22  C   UNL     1       0.668   1.696  19.008  0.00  0.00    +0.000 C 
BRANCH  22  23
ATOM     23  O   UNL     1       1.923   1.483  18.377  0.00  0.00    +0.000 OA
ATOM     24  H   UNL     1       2.131   0.537  18.449  0.00  0.00    +0.000 HD
ENDBRANCH  22  23
ENDBRANCH  20  22
ENDBRANCH  16  17
ENDBRANCH   9  16
TORSDOF 4
ENDMDL
MODEL 8
REMARK VINA RESULT:      -6.9      3.334      3.930
REMARK  Name = 
REMARK  4 active torsions:
REMARK  status: ('A' for Active; 'I' for Inactive)
REMARK    1  A    between atoms: N_9  and  C_10
REMARK    2  A    between atoms: C_10  and  C_11
REMARK    3  A    between atoms: C_14  and  C_15
REMARK    4  A    between atoms: C_15  and  O_16
REMARK                            x       y       z     vdW  Elec       q    Type
REMARK                         _______ _______ _______ _____ _____    ______ ____
ROOT
ATOM      1  N   UNL     1       8.070   5.643  20.116  0.00  0.00    +0.000 N 
ATOM      2  C   UNL     1       7.248   5.263  19.074  0.00  0.00    +0.000 A 
ATOM      3  N   UNL     1       7.849   5.062  17.887  0.00  0.00    +0.000 NA
ATOM      4  C   UNL     1       7.101   4.683  16.823  0.00  0.00    +0.000 A 
ATOM      5  N   UNL     1       7.730   4.502  15.598  0.00  0.00    +0.000 N 
ATOM      6  C   UNL     1       5.731   4.465  17.014  0.00  0.00    +0.000 A 
ATOM      7  N   UNL     1       4.725   4.035  16.172  0.00  0.00    +0.000 NA
ATOM      8  C   UNL     1       3.644   4.021  16.924  0.00  0.00    +0.000 A 
ATOM      9  N   UNL     1       3.906   4.441  18.202  0.00  0.00    +0.000 N 
ATOM     10  C   UNL     1       5.246   4.695  18.289  0.00  0.00    +0.000 A 
ATOM     11  N   UNL     1       5.947   5.089  19.363  0.00  0.00    +0.000 NA
ATOM     12  H   UNL     1       9.020   5.362  19.917  0.00  0.00    +0.000 HD
ATOM     13  H   UNL     1       7.672   5.351  20.997  0.00  0.00    +0.000 HD
ATOM     14  H   UNL     1       8.723   4.330  15.693  0.00  0.00    +0.000 HD
ATOM     15  H   UNL     1       7.204   3.920  14.955  0.00  0.00    +0.000 HD
ENDROOT
BRANCH   9  16
ATOM     16  C   UNL     1       2.941   4.545  19.272  0.00  0.00    +0.000 C 
BRANCH  16  17
ATOM     17  C   UNL     1       2.082   5.813  19.207  0.00  0.00    +0.000 C 
ATOM     18  C   UNL     1       1.891   6.493  20.561  0.00  0.00    +0.000 C 
ATOM     19  C   UNL     1       1.568   7.945  20.230  0.00  0.00    +0.000 C 
ATOM     20  C   UNL     1       2.253   8.241  18.892  0.00  0.00    +0.000 C 
ATOM     21  C   UNL     1       2.751   6.893  18.351  0.00  0.00    +0.000 C 
BRANCH  20  22
ATOM     22  C   UNL     1       1.317   8.968  17.928  0.00  0.00    +0.000 C 
BRANCH  22  23
ATOM     23  O   UNL     1       1.913  10.174  17.470  0.00  0.00    +0.000 OA
ATOM     24  H   UNL     1       2.546  10.465  18.147  0.00  0.00    +0.000 HD
ENDBRANCH  22  23
ENDBRANCH  20  22
ENDBRANCH  16  17
ENDBRANCH   9  16
TORSDOF 4
ENDMDL
MODEL 9
REMARK VINA RESULT:      -6.9      3.394      5.983
REMARK  Name = 
REMARK  4 active torsions:
REMARK  status: ('A' for Active; 'I' for Inactive)
REMARK    1  A    between atoms: N_9  and  C_10
REMARK    2  A    between atoms: C_10  and  C_11
REMARK    3  A    between atoms: C_14  and  C_15
REMARK    4  A    between atoms: C_15  and  O_16
REMARK                            x       y       z     vdW  Elec       q    Type
REMARK                         _______ _______ _______ _____ _____    ______ ____
ROOT
ATOM      1  N   UNL     1       5.194   1.567  20.370  0.00  0.00    +0.000 N 
ATOM      2  C   UNL     1       4.238   2.322  19.721  0.00  0.00    +0.000 A 
ATOM      3  N   UNL     1       3.033   1.746  19.560  0.00  0.00    +0.000 NA
ATOM      4  C   UNL     1       2.049   2.434  18.935  0.00  0.00    +0.000 A 
ATOM      5  N   UNL     1       0.817   1.819  18.755  0.00  0.00    +0.000 N 
ATOM      6  C   UNL     1       2.311   3.747  18.522  0.00  0.00    +0.000 A 
ATOM      7  N   UNL     1       1.530   4.712  17.919  0.00  0.00    +0.000 NA
ATOM      8  C   UNL     1       2.329   5.750  17.782  0.00  0.00    +0.000 A 
ATOM      9  N   UNL     1       3.590   5.488  18.251  0.00  0.00    +0.000 N 
ATOM     10  C   UNL     1       3.589   4.221  18.762  0.00  0.00    +0.000 A 
ATOM     11  N   UNL     1       4.596   3.567  19.359  0.00  0.00    +0.000 NA
ATOM     12  H   UNL     1       4.741   0.859  20.932  0.00  0.00    +0.000 HD
ATOM     13  H   UNL     1       5.862   2.169  20.828  0.00  0.00    +0.000 HD
ATOM     14  H   UNL     1       0.663   1.061  19.407  0.00  0.00    +0.000 HD
ATOM     15  H   UNL     1       0.059   2.472  18.594  0.00  0.00    +0.000 HD
ENDROOT
BRANCH   9  16
ATOM     16  C   UNL     1       4.702   6.410  18.245  0.00  0.00    +0.000 C 
BRANCH  16  17
ATOM     17  C   UNL     1       5.762   6.092  17.184  0.00  0.00    +0.000 C 
ATOM     18  C   UNL     1       6.960   5.319  17.729  0.00  0.00    +0.000 C 
ATOM     19  C   UNL     1       7.555   4.610  16.519  0.00  0.00    +0.000 C 
ATOM     20  C   UNL     1       6.395   4.377  15.547  0.00  0.00    +0.000 C 
ATOM     21  C   UNL     1       5.200   5.170  16.098  0.00  0.00    +0.000 C 
BRANCH  20  22
ATOM     22  C   UNL     1       6.768   4.765  14.118  0.00  0.00    +0.000 C 
BRANCH  22  23
ATOM     23  O   UNL     1       7.960   5.539  14.107  0.00  0.00    +0.000 OA
ATOM     24  H   UNL     1       8.709   4.925  14.023  0.00  0.00    +0.000 HD
ENDBRANCH  22  23
ENDBRANCH  20  22
ENDBRANCH  16  17
ENDBRANCH   9  16
TORSDOF 4
ENDMDL
