MODEL 1
REMARK VINA RESULT:      -7.4      0.000      0.000
REMARK  Name = 
REMARK  1 active torsions:
REMARK  status: ('A' for Active; 'I' for Inactive)
REMARK    1  A    between atoms: C_1  and  N_2
REMARK                            x       y       z     vdW  Elec       q    Type
REMARK                         _______ _______ _______ _____ _____    ______ ____
ROOT
ATOM      1  C   UNL     1       2.159   5.346  20.841  0.00  0.00    +0.000 C 
ATOM      2  N   UNL     1       2.592   6.103  19.653  0.00  0.00    +0.000 N 
ATOM      3  C   UNL     1       3.425   5.582  18.703  0.00  0.00    +0.000 A 
ATOM      4  C   UNL     1       3.950   4.272  18.770  0.00  0.00    +0.000 A 
ATOM      5  C   UNL     1       4.802   3.763  17.783  0.00  0.00    +0.000 A 
ATOM      6  C   UNL     1       5.151   4.552  16.699  0.00  0.00    +0.000 A 
ATOM      7 CL   UNL     1       6.195   3.927  15.490  0.00  0.00    +0.000 Cl
ATOM      8  C   UNL     1       4.654   5.849  16.597  0.00  0.00    +0.000 A 
ATOM      9  C   UNL     1       3.797   6.376  17.581  0.00  0.00    +0.000 A 
ATOM     10  C   UNL     1       3.327   7.681  17.433  0.00  0.00    +0.000 A 
ATOM     11  C   UNL     1       2.485   8.171  18.423  0.00  0.00    +0.000 A 
ATOM     12  N   UNL     1       1.880   9.403  18.534  0.00  0.00    +0.000 N 
ATOM     13  C   UNL     1       1.121   9.471  19.681  0.00  0.00    +0.000 A 
ATOM     14  C   UNL     1       0.346  10.528  20.183  0.00  0.00    +0.000 A 
ATOM     15  C   UNL     1      -0.332  10.321  21.387  0.00  0.00    +0.000 A 
ATOM     16 CL   UNL     1      -1.298  11.582  22.047  0.00  0.00    +0.000 Cl
ATOM     17  C   UNL     1      -0.243   9.110  22.062  0.00  0.00    +0.000 A 
ATOM     18  C   UNL     1       0.535   8.068  21.546  0.00  0.00    +0.000 A 
ATOM     19  C   UNL     1       1.237   8.240  20.329  0.00  0.00    +0.000 A 
ATOM     20  C   UNL     1       2.105   7.418  19.524  0.00  0.00    +0.000 A 
ATOM     21  H   UNL     1       1.975  10.164  17.868  0.00  0.00    +0.000 HD
ENDROOT
TORSDOF 0
ENDMDL
MODEL 2
REMARK VINA RESULT:      -7.3      1.296      7.334
REMARK  Name = 
REMARK  1 active torsions:
REMARK  status: ('A' for Active; 'I' for Inactive)
REMARK    1  A    between atoms: C_1  and  N_2
REMARK                            x       y       z     vdW  Elec       q    Type
REMARK                         _______ _______ _______ _____ _____    ______ ____
ROOT
ATOM      1  C   UNL     1       1.509  10.358  18.110  0.00  0.00    +0.000 C 
ATOM      2  N   UNL     1       1.143   9.775  19.413  0.00  0.00    +0.000 N 
ATOM      3  C   UNL     1       0.360  10.427  20.325  0.00  0.00    +0.000 A 
ATOM      4  C   UNL     1      -0.170  11.717  20.106  0.00  0.00    +0.000 A 
ATOM      5  C   UNL     1      -0.969  12.363  21.057  0.00  0.00    +0.000 A 
ATOM      6  C   UNL     1      -1.260  11.732  22.255  0.00  0.00    +0.000 A 
ATOM      7 CL   UNL     1      -2.240  12.524  23.420  0.00  0.00    +0.000 Cl
ATOM      8  C   UNL     1      -0.757  10.458  22.509  0.00  0.00    +0.000 A 
ATOM      9  C   UNL     1       0.048   9.796  21.564  0.00  0.00    +0.000 A 
ATOM     10  C   UNL     1       0.529   8.523  21.866  0.00  0.00    +0.000 A 
ATOM     11  C   UNL     1       1.322   7.898  20.912  0.00  0.00    +0.000 A 
ATOM     12  N   UNL     1       1.923   6.659  20.940  0.00  0.00    +0.000 N 
ATOM     13  C   UNL     1       2.625   6.432  19.777  0.00  0.00    +0.000 A 
ATOM     14  C   UNL     1       3.380   5.314  19.388  0.00  0.00    +0.000 A 
ATOM     15  C   UNL     1       3.994   5.351  18.134  0.00  0.00    +0.000 A 
ATOM     16 CL   UNL     1       4.930   4.007  17.607  0.00  0.00    +0.000 Cl
ATOM     17  C   UNL     1       3.862   6.455  17.302  0.00  0.00    +0.000 A 
ATOM     18  C   UNL     1       3.106   7.560  17.707  0.00  0.00    +0.000 A 
ATOM     19  C   UNL     1       2.469   7.560  18.971  0.00  0.00    +0.000 A 
ATOM     20  C   UNL     1       1.639   8.488  19.697  0.00  0.00    +0.000 A 
ATOM     21  H   UNL     1       1.864   5.997  21.708  0.00  0.00    +0.000 HD
ENDROOT
TORSDOF 0
ENDMDL
MODEL 3
REMARK VINA RESULT:      -7.1      0.863      7.118
REMARK  Name = 
REMARK  1 active torsions:
REMARK  status: ('A' for Active; 'I' for Inactive)
REMARK    1  A    between atoms: C_1  and  N_2
REMARK                            x       y       z     vdW  Elec       q    Type
REMARK                         _______ _______ _______ _____ _____    ______ ____
ROOT
ATOM      1  C   UNL     1       2.101   9.807  17.695  0.00  0.00    +0.000 C 
ATOM      2  N   UNL     1       1.791   9.051  18.923  0.00  0.00    +0.000 N 
ATOM      3  C   UNL     1       0.980   9.538  19.910  0.00  0.00    +0.000 A 
ATOM      4  C   UNL     1       0.365  10.808  19.849  0.00  0.00    +0.000 A 
ATOM      5  C   UNL     1      -0.461  11.283  20.874  0.00  0.00    +0.000 A 
ATOM      6  C   UNL     1      -0.695  10.497  21.991  0.00  0.00    +0.000 A 
ATOM      7 CL   UNL     1      -1.708  11.080  23.247  0.00  0.00    +0.000 Cl
ATOM      8  C   UNL     1      -0.107   9.239  22.089  0.00  0.00    +0.000 A 
ATOM      9  C   UNL     1       0.726   8.747  21.067  0.00  0.00    +0.000 A 
ATOM     10  C   UNL     1       1.292   7.481  21.213  0.00  0.00    +0.000 A 
ATOM     11  C   UNL     1       2.111   7.026  20.187  0.00  0.00    +0.000 A 
ATOM     12  N   UNL     1       2.791   5.835  20.065  0.00  0.00    +0.000 N 
ATOM     13  C   UNL     1       3.490   5.793  18.879  0.00  0.00    +0.000 A 
ATOM     14  C   UNL     1       4.310   4.781  18.356  0.00  0.00    +0.000 A 
ATOM     15  C   UNL     1       4.904   5.006  17.111  0.00  0.00    +0.000 A 
ATOM     16 CL   UNL     1       5.918   3.798  16.423  0.00  0.00    +0.000 Cl
ATOM     17  C   UNL     1       4.690   6.189  16.417  0.00  0.00    +0.000 A 
ATOM     18  C   UNL     1       3.870   7.187  16.955  0.00  0.00    +0.000 A 
ATOM     19  C   UNL     1       3.251   6.996  18.213  0.00  0.00    +0.000 A 
ATOM     20  C   UNL     1       2.373   7.775  19.049  0.00  0.00    +0.000 A 
ATOM     21  H   UNL     1       2.785   5.085  20.749  0.00  0.00    +0.000 HD
ENDROOT
TORSDOF 0
ENDMDL
MODEL 4
REMARK VINA RESULT:      -7.0      1.785      2.593
REMARK  Name = 
REMARK  1 active torsions:
REMARK  status: ('A' for Active; 'I' for Inactive)
REMARK    1  A    between atoms: C_1  and  N_2
REMARK                            x       y       z     vdW  Elec       q    Type
REMARK                         _______ _______ _______ _____ _____    ______ ____
ROOT
ATOM      1  C   UNL     1       0.830   8.059  21.594  0.00  0.00    +0.000 C 
ATOM      2  N   UNL     1       1.444   8.108  20.254  0.00  0.00    +0.000 N 
ATOM      3  C   UNL     1       2.103   7.047  19.700  0.00  0.00    +0.000 A 
ATOM      4  C   UNL     1       2.259   5.806  20.356  0.00  0.00    +0.000 A 
ATOM      5  C   UNL     1       2.940   4.735  19.765  0.00  0.00    +0.000 A 
ATOM      6  C   UNL     1       3.481   4.877  18.498  0.00  0.00    +0.000 A 
ATOM      7 CL   UNL     1       4.315   3.562  17.775  0.00  0.00    +0.000 Cl
ATOM      8  C   UNL     1       3.349   6.085  17.818  0.00  0.00    +0.000 A 
ATOM      9  C   UNL     1       2.668   7.171  18.398  0.00  0.00    +0.000 A 
ATOM     10  C   UNL     1       2.563   8.360  17.677  0.00  0.00    +0.000 A 
ATOM     11  C   UNL     1       1.887   9.413  18.279  0.00  0.00    +0.000 A 
ATOM     12  N   UNL     1       1.634  10.682  17.807  0.00  0.00    +0.000 N 
ATOM     13  C   UNL     1       0.926  11.414  18.734  0.00  0.00    +0.000 A 
ATOM     14  C   UNL     1       0.464  12.738  18.670  0.00  0.00    +0.000 A 
ATOM     15  C   UNL     1      -0.240  13.234  19.770  0.00  0.00    +0.000 A 
ATOM     16 CL   UNL     1      -0.830  14.850  19.744  0.00  0.00    +0.000 Cl
ATOM     17  C   UNL     1      -0.473  12.445  20.888  0.00  0.00    +0.000 A 
ATOM     18  C   UNL     1      -0.004  11.127  20.935  0.00  0.00    +0.000 A 
ATOM     19  C   UNL     1       0.712  10.589  19.840  0.00  0.00    +0.000 A 
ATOM     20  C   UNL     1       1.325   9.319  19.544  0.00  0.00    +0.000 A 
ATOM     21  H   UNL     1       1.925  11.039  16.902  0.00  0.00    +0.000 HD
ENDROOT
TORSDOF 0
ENDMDL
MODEL 5
REMARK VINA RESULT:      -6.9      2.580      8.269
REMARK  Name = 
REMARK  1 active torsions:
REMARK  status: ('A' for Active; 'I' for Inactive)
REMARK    1  A    between atoms: C_1  and  N_2
REMARK                            x       y       z     vdW  Elec       q    Type
REMARK                         _______ _______ _______ _____ _____    ______ ____
ROOT
ATOM      1  C   UNL     1      -0.488  12.024  18.746  0.00  0.00    +0.000 C 
ATOM      2  N   UNL     1      -0.569  11.447  20.101  0.00  0.00    +0.000 N 
ATOM      3  C   UNL     1      -1.290  12.020  21.111  0.00  0.00    +0.000 A 
ATOM      4  C   UNL     1      -2.024  13.216  20.954  0.00  0.00    +0.000 A 
ATOM      5  C   UNL     1      -2.755  13.782  22.005  0.00  0.00    +0.000 A 
ATOM      6  C   UNL     1      -2.771  13.163  23.245  0.00  0.00    +0.000 A 
ATOM      7 CL   UNL     1      -3.668  13.857  24.533  0.00  0.00    +0.000 Cl
ATOM      8  C   UNL     1      -2.059  11.982  23.440  0.00  0.00    +0.000 A 
ATOM      9  C   UNL     1      -1.320  11.401  22.393  0.00  0.00    +0.000 A 
ATOM     10  C   UNL     1      -0.623  10.218  22.640  0.00  0.00    +0.000 A 
ATOM     11  C   UNL     1       0.098   9.672  21.586  0.00  0.00    +0.000 A 
ATOM     12  N   UNL     1       0.866   8.530  21.543  0.00  0.00    +0.000 N 
ATOM     13  C   UNL     1       1.410   8.356  20.290  0.00  0.00    +0.000 A 
ATOM     14  C   UNL     1       2.249   7.339  19.808  0.00  0.00    +0.000 A 
ATOM     15  C   UNL     1       2.657   7.411  18.474  0.00  0.00    +0.000 A 
ATOM     16 CL   UNL     1       3.685   6.190  17.832  0.00  0.00    +0.000 Cl
ATOM     17  C   UNL     1       2.247   8.453  17.653  0.00  0.00    +0.000 A 
ATOM     18  C   UNL     1       1.411   9.459  18.151  0.00  0.00    +0.000 A 
ATOM     19  C   UNL     1       0.977   9.420  19.497  0.00  0.00    +0.000 A 
ATOM     20  C   UNL     1       0.143  10.253  20.327  0.00  0.00    +0.000 A 
ATOM     21  H   UNL     1       1.017   7.896  22.322  0.00  0.00    +0.000 HD
ENDROOT
TORSDOF 0
ENDMDL
MODEL 6
REMARK VINA RESULT:      -6.9      1.754      3.404
REMARK  Name = 
REMARK  1 active torsions:
REMARK  status: ('A' for Active; 'I' for Inactive)
REMARK    1  A    between atoms: C_1  and  N_2
REMARK                            x       y       z     vdW  Elec       q    Type
REMARK                         _______ _______ _______ _____ _____    ______ ____
ROOT
ATOM      1  C   UNL     1       1.569  10.353  18.185  0.00  0.00    +0.000 C 
ATOM      2  N   UNL     1       1.575   9.228  19.138  0.00  0.00    +0.000 N 
ATOM      3  C   UNL     1       2.227   8.052  18.895  0.00  0.00    +0.000 A 
ATOM      4  C   UNL     1       2.955   7.802  17.711  0.00  0.00    +0.000 A 
ATOM      5  C   UNL     1       3.614   6.587  17.487  0.00  0.00    +0.000 A 
ATOM      6  C   UNL     1       3.563   5.589  18.445  0.00  0.00    +0.000 A 
ATOM      7 CL   UNL     1       4.372   4.101  18.170  0.00  0.00    +0.000 Cl
ATOM      8  C   UNL     1       2.856   5.797  19.627  0.00  0.00    +0.000 A 
ATOM      9  C   UNL     1       2.188   7.011  19.867  0.00  0.00    +0.000 A 
ATOM     10  C   UNL     1       1.493   7.170  21.066  0.00  0.00    +0.000 A 
ATOM     11  C   UNL     1       0.843   8.380  21.271  0.00  0.00    +0.000 A 
ATOM     12  N   UNL     1       0.093   8.807  22.344  0.00  0.00    +0.000 N 
ATOM     13  C   UNL     1      -0.372  10.086  22.135  0.00  0.00    +0.000 A 
ATOM     14  C   UNL     1      -1.168  10.898  22.958  0.00  0.00    +0.000 A 
ATOM     15  C   UNL     1      -1.496  12.173  22.491  0.00  0.00    +0.000 A 
ATOM     16 CL   UNL     1      -2.467  13.210  23.461  0.00  0.00    +0.000 Cl
ATOM     17  C   UNL     1      -1.050  12.621  21.255  0.00  0.00    +0.000 A 
ATOM     18  C   UNL     1      -0.259  11.797  20.447  0.00  0.00    +0.000 A 
ATOM     19  C   UNL     1       0.095  10.499  20.886  0.00  0.00    +0.000 A 
ATOM     20  C   UNL     1       0.867   9.410  20.342  0.00  0.00    +0.000 A 
ATOM     21  H   UNL     1      -0.096   8.262  23.179  0.00  0.00    +0.000 HD
ENDROOT
TORSDOF 0
ENDMDL
MODEL 7
REMARK VINA RESULT:      -6.9      1.585      6.965
REMARK  Name = 
REMARK  1 active torsions:
REMARK  status: ('A' for Active; 'I' for Inactive)
REMARK    1  A    between atoms: C_1  and  N_2
REMARK                            x       y       z     vdW  Elec       q    Type
REMARK                         _______ _______ _______ _____ _____    ______ ____
ROOT
ATOM      1  C   UNL     1       2.323   8.729  17.508  0.00  0.00    +0.000 C 
ATOM      2  N   UNL     1       1.858   8.582  18.899  0.00  0.00    +0.000 N 
ATOM      3  C   UNL     1       1.322   9.614  19.617  0.00  0.00    +0.000 A 
ATOM      4  C   UNL     1       1.163  10.917  19.096  0.00  0.00    +0.000 A 
ATOM      5  C   UNL     1       0.611  11.957  19.853  0.00  0.00    +0.000 A 
ATOM      6  C   UNL     1       0.200  11.720  21.154  0.00  0.00    +0.000 A 
ATOM      7 CL   UNL     1      -0.477  12.996  22.080  0.00  0.00    +0.000 Cl
ATOM      8  C   UNL     1       0.340  10.448  21.704  0.00  0.00    +0.000 A 
ATOM      9  C   UNL     1       0.893   9.392  20.957  0.00  0.00    +0.000 A 
ATOM     10  C   UNL     1       1.012   8.138  21.554  0.00  0.00    +0.000 A 
ATOM     11  C   UNL     1       1.564   7.118  20.790  0.00  0.00    +0.000 A 
ATOM     12  N   UNL     1       1.798   5.800  21.116  0.00  0.00    +0.000 N 
ATOM     13  C   UNL     1       2.365   5.130  20.055  0.00  0.00    +0.000 A 
ATOM     14  C   UNL     1       2.765   3.788  19.951  0.00  0.00    +0.000 A 
ATOM     15  C   UNL     1       3.319   3.368  18.739  0.00  0.00    +0.000 A 
ATOM     16 CL   UNL     1       3.824   1.734  18.557  0.00  0.00    +0.000 Cl
ATOM     17  C   UNL     1       3.468   4.247  17.675  0.00  0.00    +0.000 A 
ATOM     18  C   UNL     1       3.064   5.581  17.797  0.00  0.00    +0.000 A 
ATOM     19  C   UNL     1       2.499   6.045  19.009  0.00  0.00    +0.000 A 
ATOM     20  C   UNL     1       1.988   7.306  19.482  0.00  0.00    +0.000 A 
ATOM     21  H   UNL     1       1.586   5.373  22.012  0.00  0.00    +0.000 HD
ENDROOT
TORSDOF 0
ENDMDL
MODEL 8
REMARK VINA RESULT:      -6.8      2.965      5.256
REMARK  Name = 
REMARK  1 active torsions:
REMARK  status: ('A' for Active; 'I' for Inactive)
REMARK    1  A    between atoms: C_1  and  N_2
REMARK                            x       y       z     vdW  Elec       q    Type
REMARK                         _______ _______ _______ _____ _____    ______ ____
ROOT
ATOM      1  C   UNL     1      -0.446  11.833  18.586  0.00  0.00    +0.000 C 
ATOM      2  N   UNL     1      -0.111  10.848  19.630  0.00  0.00    +0.000 N 
ATOM      3  C   UNL     1       0.706   9.775  19.406  0.00  0.00    +0.000 A 
ATOM      4  C   UNL     1       1.305   9.508  18.155  0.00  0.00    +0.000 A 
ATOM      5  C   UNL     1       2.138   8.402  17.951  0.00  0.00    +0.000 A 
ATOM      6  C   UNL     1       2.395   7.531  18.998  0.00  0.00    +0.000 A 
ATOM      7 CL   UNL     1       3.417   6.175  18.747  0.00  0.00    +0.000 Cl
ATOM      8  C   UNL     1       1.823   7.759  20.247  0.00  0.00    +0.000 A 
ATOM      9  C   UNL     1       0.984   8.867  20.467  0.00  0.00    +0.000 A 
ATOM     10  C   UNL     1       0.435   9.051  21.736  0.00  0.00    +0.000 A 
ATOM     11  C   UNL     1      -0.391  10.153  21.920  0.00  0.00    +0.000 A 
ATOM     12  N   UNL     1      -1.058  10.575  23.048  0.00  0.00    +0.000 N 
ATOM     13  C   UNL     1      -1.771  11.725  22.790  0.00  0.00    +0.000 A 
ATOM     14  C   UNL     1      -2.585  12.486  23.642  0.00  0.00    +0.000 A 
ATOM     15  C   UNL     1      -3.198  13.624  23.110  0.00  0.00    +0.000 A 
ATOM     16 CL   UNL     1      -4.205  14.595  24.111  0.00  0.00    +0.000 Cl
ATOM     17  C   UNL     1      -3.006  13.988  21.784  0.00  0.00    +0.000 A 
ATOM     18  C   UNL     1      -2.192  13.215  20.948  0.00  0.00    +0.000 A 
ATOM     19  C   UNL     1      -1.555  12.056  21.451  0.00  0.00    +0.000 A 
ATOM     20  C   UNL     1      -0.676  11.053  20.904  0.00  0.00    +0.000 A 
ATOM     21  H   UNL     1      -1.034  10.110  23.950  0.00  0.00    +0.000 HD
ENDROOT
TORSDOF 0
ENDMDL
MODEL 9
REMARK VINA RESULT:      -6.8      0.836      6.679
REMARK  Name = 
REMARK  1 active torsions:
REMARK  status: ('A' for Active; 'I' for Inactive)
REMARK    1  A    between atoms: C_1  and  N_2
REMARK                            x       y       z     vdW  Elec       q    Type
REMARK                         _______ _______ _______ _____ _____    ______ ____
ROOT
ATOM      1  C   UNL     1       1.999   5.678  20.838  0.00  0.00    +0.000 C 
ATOM      2  N   UNL     1       1.978   6.916  20.039  0.00  0.00    +0.000 N 
ATOM      3  C   UNL     1       1.255   8.020  20.396  0.00  0.00    +0.000 A 
ATOM      4  C   UNL     1       0.460   8.077  21.562  0.00  0.00    +0.000 A 
ATOM      5  C   UNL     1      -0.271   9.221  21.906  0.00  0.00    +0.000 A 
ATOM      6  C   UNL     1      -0.225  10.339  21.091  0.00  0.00    +0.000 A 
ATOM      7 CL   UNL     1      -1.122  11.740  21.513  0.00  0.00    +0.000 Cl
ATOM      8  C   UNL     1       0.547  10.322  19.932  0.00  0.00    +0.000 A 
ATOM      9  C   UNL     1       1.288   9.181  19.572  0.00  0.00    +0.000 A 
ATOM     10  C   UNL     1       2.045   9.214  18.401  0.00  0.00    +0.000 A 
ATOM     11  C   UNL     1       2.763   8.070  18.075  0.00  0.00    +0.000 A 
ATOM     12  N   UNL     1       3.582   7.823  16.996  0.00  0.00    +0.000 N 
ATOM     13  C   UNL     1       4.100   6.548  17.060  0.00  0.00    +0.000 A 
ATOM     14  C   UNL     1       4.969   5.887  16.178  0.00  0.00    +0.000 A 
ATOM     15  C   UNL     1       5.339   4.576  16.492  0.00  0.00    +0.000 A 
ATOM     16 CL   UNL     1       6.403   3.720  15.446  0.00  0.00    +0.000 Cl
ATOM     17  C   UNL     1       4.863   3.951  17.637  0.00  0.00    +0.000 A 
ATOM     18  C   UNL     1       3.996   4.626  18.504  0.00  0.00    +0.000 A 
ATOM     19  C   UNL     1       3.599   5.954  18.220  0.00  0.00    +0.000 A 
ATOM     20  C   UNL     1       2.750   6.927  18.860  0.00  0.00    +0.000 A 
ATOM     21  H   UNL     1       3.784   8.482  16.251  0.00  0.00    +0.000 HD
ENDROOT
TORSDOF 0
ENDMDL
