MODEL 1
REMARK VINA RESULT:      -6.7      0.000      0.000
REMARK  Name = 
REMARK  7 active torsions:
REMARK  status: ('A' for Active; 'I' for Inactive)
REMARK    1  A    between atoms: C_1  and  O_2
REMARK    2  A    between atoms: O_2  and  C_3
REMARK    3  A    between atoms: C_3  and  C_5
REMARK    4  A    between atoms: C_5  and  C_6
REMARK    5  A    between atoms: N_7  and  N_8
REMARK    6  A    between atoms: C_14  and  C_15
REMARK    7  A    between atoms: C_15  and  O_17
REMARK                            x       y       z     vdW  Elec       q    Type
REMARK                         _______ _______ _______ _____ _____    ______ ____
ROOT
ATOM      1  N   UNL     1       3.853   5.678  19.929  0.00  0.00    +0.000 N 
ATOM      2  C   UNL     1       4.967   5.391  19.178  0.00  0.00    +0.000 C 
ATOM      3  N   UNL     1       6.176   5.364  19.633  0.00  0.00    +0.000 NA
ATOM      4  C   UNL     1       7.100   5.020  18.670  0.00  0.00    +0.000 C 
ATOM      5  O   UNL     1       8.294   4.851  18.871  0.00  0.00    +0.000 OA
ATOM      6  C   UNL     1       6.479   4.866  17.323  0.00  0.00    +0.000 C 
ATOM      7  C   UNL     1       7.225   4.636  16.238  0.00  0.00    +0.000 C 
ATOM      8  S   UNL     1       4.784   5.039  17.468  0.00  0.00    +0.000 S 
ATOM      9  H   UNL     1       4.080   5.858  20.905  0.00  0.00    +0.000 HD
ENDROOT
BRANCH   1  11
ATOM     10  C   UNL     1       2.153   4.294  20.442  0.00  0.00    +0.000 C 
ATOM     11  N   UNL     1       2.610   5.190  19.632  0.00  0.00    +0.000 NA
BRANCH  10  12
ATOM     12  C   UNL     1       0.833   3.640  20.159  0.00  0.00    +0.000 C 
BRANCH  12  13
ATOM     13  C   UNL     1       0.975   2.508  19.186  0.00  0.00    +0.000 C 
ATOM     14  O   UNL     1       0.126   2.177  18.370  0.00  0.00    +0.000 OA
BRANCH  13  16
ATOM     15  C   UNL     1       2.921   1.784  18.104  0.00  0.00    +0.000 C 
ATOM     16  O   UNL     1       2.197   1.922  19.328  0.00  0.00    +0.000 OA
ENDBRANCH  13  16
ENDBRANCH  12  13
ENDBRANCH  10  12
ENDBRANCH   1  11
BRANCH   7  17
ATOM     17  C   UNL     1       6.690   4.561  14.870  0.00  0.00    +0.000 C 
ATOM     18  O   UNL     1       6.621   5.483  14.082  0.00  0.00    +0.000 OA
BRANCH  17  19
ATOM     19  O   UNL     1       6.300   3.309  14.556  0.00  0.00    +0.000 OA
ATOM     20  H   UNL     1       6.916   2.783  14.018  0.00  0.00    +0.000 HD
ENDBRANCH  17  19
ENDBRANCH   7  17
TORSDOF 6
ENDMDL
MODEL 2
REMARK VINA RESULT:      -6.5      2.563      3.732
REMARK  Name = 
REMARK  7 active torsions:
REMARK  status: ('A' for Active; 'I' for Inactive)
REMARK    1  A    between atoms: C_1  and  O_2
REMARK    2  A    between atoms: O_2  and  C_3
REMARK    3  A    between atoms: C_3  and  C_5
REMARK    4  A    between atoms: C_5  and  C_6
REMARK    5  A    between atoms: N_7  and  N_8
REMARK    6  A    between atoms: C_14  and  C_15
REMARK    7  A    between atoms: C_15  and  O_17
REMARK                            x       y       z     vdW  Elec       q    Type
REMARK                         _______ _______ _______ _____ _____    ______ ____
ROOT
ATOM      1  N   UNL     1       6.550   5.155  17.281  0.00  0.00    +0.000 N 
ATOM      2  C   UNL     1       6.786   5.012  15.935  0.00  0.00    +0.000 C 
ATOM      3  N   UNL     1       7.634   5.713  15.257  0.00  0.00    +0.000 NA
ATOM      4  C   UNL     1       7.691   5.342  13.931  0.00  0.00    +0.000 C 
ATOM      5  O   UNL     1       8.468   5.800  13.105  0.00  0.00    +0.000 OA
ATOM      6  C   UNL     1       6.683   4.294  13.595  0.00  0.00    +0.000 C 
ATOM      7  C   UNL     1       6.510   3.878  12.337  0.00  0.00    +0.000 C 
ATOM      8  S   UNL     1       5.886   3.810  15.027  0.00  0.00    +0.000 S 
ATOM      9  H   UNL     1       7.134   5.875  17.701  0.00  0.00    +0.000 HD
ENDROOT
BRANCH   1  11
ATOM     10  C   UNL     1       4.936   4.271  18.578  0.00  0.00    +0.000 C 
ATOM     11  N   UNL     1       6.116   4.128  18.073  0.00  0.00    +0.000 NA
BRANCH  10  12
ATOM     12  C   UNL     1       4.401   3.237  19.524  0.00  0.00    +0.000 C 
BRANCH  12  13
ATOM     13  C   UNL     1       3.350   2.386  18.874  0.00  0.00    +0.000 C 
ATOM     14  O   UNL     1       3.501   1.216  18.551  0.00  0.00    +0.000 OA
BRANCH  13  16
ATOM     15  C   UNL     1       1.011   2.316  18.819  0.00  0.00    +0.000 C 
ATOM     16  O   UNL     1       2.201   3.101  18.723  0.00  0.00    +0.000 OA
ENDBRANCH  13  16
ENDBRANCH  12  13
ENDBRANCH  10  12
ENDBRANCH   1  11
BRANCH   7  17
ATOM     17  C   UNL     1       5.478   2.915  11.922  0.00  0.00    +0.000 C 
ATOM     18  O   UNL     1       4.311   3.173  11.705  0.00  0.00    +0.000 OA
BRANCH  17  19
ATOM     19  O   UNL     1       5.987   1.675  11.768  0.00  0.00    +0.000 OA
ATOM     20  H   UNL     1       6.077   1.351  10.855  0.00  0.00    +0.000 HD
ENDBRANCH  17  19
ENDBRANCH   7  17
TORSDOF 6
ENDMDL
MODEL 3
REMARK VINA RESULT:      -6.4      2.465      3.537
REMARK  Name = 
REMARK  7 active torsions:
REMARK  status: ('A' for Active; 'I' for Inactive)
REMARK    1  A    between atoms: C_1  and  O_2
REMARK    2  A    between atoms: O_2  and  C_3
REMARK    3  A    between atoms: C_3  and  C_5
REMARK    4  A    between atoms: C_5  and  C_6
REMARK    5  A    between atoms: N_7  and  N_8
REMARK    6  A    between atoms: C_14  and  C_15
REMARK    7  A    between atoms: C_15  and  O_17
REMARK                            x       y       z     vdW  Elec       q    Type
REMARK                         _______ _______ _______ _____ _____    ______ ____
ROOT
ATOM      1  N   UNL     1       5.984   5.179  17.302  0.00  0.00    +0.000 N 
ATOM      2  C   UNL     1       6.367   4.997  15.996  0.00  0.00    +0.000 C 
ATOM      3  N   UNL     1       7.316   5.650  15.408  0.00  0.00    +0.000 NA
ATOM      4  C   UNL     1       7.510   5.248  14.104  0.00  0.00    +0.000 C 
ATOM      5  O   UNL     1       8.396   5.658  13.367  0.00  0.00    +0.000 OA
ATOM      6  C   UNL     1       6.506   4.234  13.672  0.00  0.00    +0.000 C 
ATOM      7  C   UNL     1       6.462   3.797  12.410  0.00  0.00    +0.000 C 
ATOM      8  S   UNL     1       5.529   3.812  15.010  0.00  0.00    +0.000 S 
ATOM      9  H   UNL     1       6.544   5.885  17.775  0.00  0.00    +0.000 HD
ENDROOT
BRANCH   1  11
ATOM     10  C   UNL     1       4.365   4.521  18.722  0.00  0.00    +0.000 C 
ATOM     11  N   UNL     1       5.420   4.187  18.056  0.00  0.00    +0.000 NA
BRANCH  10  12
ATOM     12  C   UNL     1       3.718   3.527  19.639  0.00  0.00    +0.000 C 
BRANCH  12  13
ATOM     13  C   UNL     1       2.262   3.353  19.327  0.00  0.00    +0.000 C 
ATOM     14  O   UNL     1       1.650   3.983  18.475  0.00  0.00    +0.000 OA
BRANCH  13  16
ATOM     15  C   UNL     1       1.560   2.753  21.478  0.00  0.00    +0.000 C 
ATOM     16  O   UNL     1       1.731   2.373  20.111  0.00  0.00    +0.000 OA
ENDBRANCH  13  16
ENDBRANCH  12  13
ENDBRANCH  10  12
ENDBRANCH   1  11
BRANCH   7  17
ATOM     17  C   UNL     1       5.446   2.866  11.894  0.00  0.00    +0.000 C 
ATOM     18  O   UNL     1       4.302   3.152  11.603  0.00  0.00    +0.000 OA
BRANCH  17  19
ATOM     19  O   UNL     1       5.944   1.622  11.740  0.00  0.00    +0.000 OA
ATOM     20  H   UNL     1       6.816   1.551  11.314  0.00  0.00    +0.000 HD
ENDBRANCH  17  19
ENDBRANCH   7  17
TORSDOF 6
ENDMDL
MODEL 4
REMARK VINA RESULT:      -6.2      2.103      3.631
REMARK  Name = 
REMARK  7 active torsions:
REMARK  status: ('A' for Active; 'I' for Inactive)
REMARK    1  A    between atoms: C_1  and  O_2
REMARK    2  A    between atoms: O_2  and  C_3
REMARK    3  A    between atoms: C_3  and  C_5
REMARK    4  A    between atoms: C_5  and  C_6
REMARK    5  A    between atoms: N_7  and  N_8
REMARK    6  A    between atoms: C_14  and  C_15
REMARK    7  A    between atoms: C_15  and  O_17
REMARK                            x       y       z     vdW  Elec       q    Type
REMARK                         _______ _______ _______ _____ _____    ______ ____
ROOT
ATOM      1  N   UNL     1       3.249   3.217  16.498  0.00  0.00    +0.000 N 
ATOM      2  C   UNL     1       4.453   3.879  16.499  0.00  0.00    +0.000 C 
ATOM      3  N   UNL     1       5.219   4.018  15.468  0.00  0.00    +0.000 NA
ATOM      4  C   UNL     1       6.354   4.751  15.742  0.00  0.00    +0.000 C 
ATOM      5  O   UNL     1       7.192   5.084  14.917  0.00  0.00    +0.000 OA
ATOM      6  C   UNL     1       6.457   5.109  17.186  0.00  0.00    +0.000 C 
ATOM      7  C   UNL     1       7.538   5.729  17.671  0.00  0.00    +0.000 C 
ATOM      8  S   UNL     1       5.039   4.595  17.991  0.00  0.00    +0.000 S 
ATOM      9  H   UNL     1       3.011   2.851  15.579  0.00  0.00    +0.000 HD
ENDROOT
BRANCH   1  11
ATOM     10  C   UNL     1       1.862   2.572  18.150  0.00  0.00    +0.000 C 
ATOM     11  N   UNL     1       2.231   3.524  17.358  0.00  0.00    +0.000 NA
BRANCH  10  12
ATOM     12  C   UNL     1       0.702   2.783  19.076  0.00  0.00    +0.000 C 
BRANCH  12  13
ATOM     13  C   UNL     1       1.157   3.165  20.453  0.00  0.00    +0.000 C 
ATOM     14  O   UNL     1       1.664   2.397  21.259  0.00  0.00    +0.000 OA
BRANCH  13  16
ATOM     15  C   UNL     1       2.144   5.275  20.683  0.00  0.00    +0.000 C 
ATOM     16  O   UNL     1       0.947   4.495  20.661  0.00  0.00    +0.000 OA
ENDBRANCH  13  16
ENDBRANCH  12  13
ENDBRANCH  10  12
ENDBRANCH   1  11
BRANCH   7  17
ATOM     17  C   UNL     1       7.744   6.033  19.095  0.00  0.00    +0.000 C 
ATOM     18  O   UNL     1       7.327   5.379  20.030  0.00  0.00    +0.000 OA
BRANCH  17  19
ATOM     19  O   UNL     1       8.503   7.136  19.263  0.00  0.00    +0.000 OA
ATOM     20  H   UNL     1       8.264   7.720  20.004  0.00  0.00    +0.000 HD
ENDBRANCH  17  19
ENDBRANCH   7  17
TORSDOF 6
ENDMDL
MODEL 5
REMARK VINA RESULT:      -6.2      2.441      3.608
REMARK  Name = 
REMARK  7 active torsions:
REMARK  status: ('A' for Active; 'I' for Inactive)
REMARK    1  A    between atoms: C_1  and  O_2
REMARK    2  A    between atoms: O_2  and  C_3
REMARK    3  A    between atoms: C_3  and  C_5
REMARK    4  A    between atoms: C_5  and  C_6
REMARK    5  A    between atoms: N_7  and  N_8
REMARK    6  A    between atoms: C_14  and  C_15
REMARK    7  A    between atoms: C_15  and  O_17
REMARK                            x       y       z     vdW  Elec       q    Type
REMARK                         _______ _______ _______ _____ _____    ______ ____
ROOT
ATOM      1  N   UNL     1       5.838   5.410  17.235  0.00  0.00    +0.000 N 
ATOM      2  C   UNL     1       6.279   5.154  15.959  0.00  0.00    +0.000 C 
ATOM      3  N   UNL     1       7.288   5.736  15.397  0.00  0.00    +0.000 NA
ATOM      4  C   UNL     1       7.529   5.270  14.123  0.00  0.00    +0.000 C 
ATOM      5  O   UNL     1       8.470   5.605  13.418  0.00  0.00    +0.000 OA
ATOM      6  C   UNL     1       6.500   4.285  13.679  0.00  0.00    +0.000 C 
ATOM      7  C   UNL     1       6.500   3.796  12.435  0.00  0.00    +0.000 C 
ATOM      8  S   UNL     1       5.436   3.967  14.979  0.00  0.00    +0.000 S 
ATOM      9  H   UNL     1       6.407   6.109  17.708  0.00  0.00    +0.000 HD
ENDROOT
BRANCH   1  11
ATOM     10  C   UNL     1       4.111   4.887  18.582  0.00  0.00    +0.000 C 
ATOM     11  N   UNL     1       5.189   4.479  17.997  0.00  0.00    +0.000 NA
BRANCH  10  12
ATOM     12  C   UNL     1       3.369   3.965  19.502  0.00  0.00    +0.000 C 
BRANCH  12  13
ATOM     13  C   UNL     1       3.997   2.603  19.545  0.00  0.00    +0.000 C 
ATOM     14  O   UNL     1       5.065   2.343  20.081  0.00  0.00    +0.000 OA
BRANCH  13  16
ATOM     15  C   UNL     1       2.480   2.230  17.801  0.00  0.00    +0.000 C 
ATOM     16  O   UNL     1       3.191   1.699  18.922  0.00  0.00    +0.000 OA
ENDBRANCH  13  16
ENDBRANCH  12  13
ENDBRANCH  10  12
ENDBRANCH   1  11
BRANCH   7  17
ATOM     17  C   UNL     1       5.468   2.892  11.905  0.00  0.00    +0.000 C 
ATOM     18  O   UNL     1       4.332   3.205  11.610  0.00  0.00    +0.000 OA
BRANCH  17  19
ATOM     19  O   UNL     1       5.941   1.639  11.741  0.00  0.00    +0.000 OA
ATOM     20  H   UNL     1       5.343   0.913  11.989  0.00  0.00    +0.000 HD
ENDBRANCH  17  19
ENDBRANCH   7  17
TORSDOF 6
ENDMDL
MODEL 6
REMARK VINA RESULT:      -6.2      4.418      7.875
REMARK  Name = 
REMARK  7 active torsions:
REMARK  status: ('A' for Active; 'I' for Inactive)
REMARK    1  A    between atoms: C_1  and  O_2
REMARK    2  A    between atoms: O_2  and  C_3
REMARK    3  A    between atoms: C_3  and  C_5
REMARK    4  A    between atoms: C_5  and  C_6
REMARK    5  A    between atoms: N_7  and  N_8
REMARK    6  A    between atoms: C_14  and  C_15
REMARK    7  A    between atoms: C_15  and  O_17
REMARK                            x       y       z     vdW  Elec       q    Type
REMARK                         _______ _______ _______ _____ _____    ______ ____
ROOT
ATOM      1  N   UNL     1       7.573   7.756  17.023  0.00  0.00    +0.000 N 
ATOM      2  C   UNL     1       6.953   6.532  16.945  0.00  0.00    +0.000 C 
ATOM      3  N   UNL     1       6.846   5.828  15.865  0.00  0.00    +0.000 NA
ATOM      4  C   UNL     1       6.203   4.627  16.075  0.00  0.00    +0.000 C 
ATOM      5  O   UNL     1       6.048   3.756  15.232  0.00  0.00    +0.000 OA
ATOM      6  C   UNL     1       5.704   4.492  17.474  0.00  0.00    +0.000 C 
ATOM      7  C   UNL     1       4.963   3.445  17.848  0.00  0.00    +0.000 C 
ATOM      8  S   UNL     1       6.232   5.839  18.386  0.00  0.00    +0.000 S 
ATOM      9  H   UNL     1       7.959   8.052  16.129  0.00  0.00    +0.000 HD
ENDROOT
BRANCH   1  11
ATOM     10  C   UNL     1       8.491   9.468  18.161  0.00  0.00    +0.000 C 
ATOM     11  N   UNL     1       8.159   8.219  18.168  0.00  0.00    +0.000 NA
BRANCH  10  12
ATOM     12  C   UNL     1       9.211  10.053  19.339  0.00  0.00    +0.000 C 
BRANCH  12  13
ATOM     13  C   UNL     1      10.140  11.156  18.926  0.00  0.00    +0.000 C 
ATOM     14  O   UNL     1      11.120  11.518  19.562  0.00  0.00    +0.000 OA
BRANCH  13  16
ATOM     15  C   UNL     1       9.730  13.102  17.692  0.00  0.00    +0.000 C 
ATOM     16  O   UNL     1       9.745  11.674  17.730  0.00  0.00    +0.000 OA
ENDBRANCH  13  16
ENDBRANCH  12  13
ENDBRANCH  10  12
ENDBRANCH   1  11
BRANCH   7  17
ATOM     17  C   UNL     1       4.366   3.291  19.183  0.00  0.00    +0.000 C 
ATOM     18  O   UNL     1       3.419   3.918  19.616  0.00  0.00    +0.000 OA
BRANCH  17  19
ATOM     19  O   UNL     1       4.978   2.321  19.893  0.00  0.00    +0.000 OA
ATOM     20  H   UNL     1       4.790   1.404  19.630  0.00  0.00    +0.000 HD
ENDBRANCH  17  19
ENDBRANCH   7  17
TORSDOF 6
ENDMDL
MODEL 7
REMARK VINA RESULT:      -6.1      2.674      3.818
REMARK  Name = 
REMARK  7 active torsions:
REMARK  status: ('A' for Active; 'I' for Inactive)
REMARK    1  A    between atoms: C_1  and  O_2
REMARK    2  A    between atoms: O_2  and  C_3
REMARK    3  A    between atoms: C_3  and  C_5
REMARK    4  A    between atoms: C_5  and  C_6
REMARK    5  A    between atoms: N_7  and  N_8
REMARK    6  A    between atoms: C_14  and  C_15
REMARK    7  A    between atoms: C_15  and  O_17
REMARK                            x       y       z     vdW  Elec       q    Type
REMARK                         _______ _______ _______ _____ _____    ______ ____
ROOT
ATOM      1  N   UNL     1       6.189   5.068  17.357  0.00  0.00    +0.000 N 
ATOM      2  C   UNL     1       6.519   4.939  16.030  0.00  0.00    +0.000 C 
ATOM      3  N   UNL     1       7.408   5.651  15.419  0.00  0.00    +0.000 NA
ATOM      4  C   UNL     1       7.559   5.293  14.096  0.00  0.00    +0.000 C 
ATOM      5  O   UNL     1       8.389   5.763  13.331  0.00  0.00    +0.000 OA
ATOM      6  C   UNL     1       6.584   4.244  13.682  0.00  0.00    +0.000 C 
ATOM      7  C   UNL     1       6.501   3.838  12.411  0.00  0.00    +0.000 C 
ATOM      8  S   UNL     1       5.691   3.741  15.050  0.00  0.00    +0.000 S 
ATOM      9  H   UNL     1       6.738   5.788  17.824  0.00  0.00    +0.000 HD
ENDROOT
BRANCH   1  11
ATOM     10  C   UNL     1       4.441   4.066  18.362  0.00  0.00    +0.000 C 
ATOM     11  N   UNL     1       5.707   4.031  18.107  0.00  0.00    +0.000 NA
BRANCH  10  12
ATOM     12  C   UNL     1       3.830   3.017  19.242  0.00  0.00    +0.000 C 
BRANCH  12  13
ATOM     13  C   UNL     1       3.023   3.627  20.349  0.00  0.00    +0.000 C 
ATOM     14  O   UNL     1       2.461   2.996  21.233  0.00  0.00    +0.000 OA
BRANCH  13  16
ATOM     15  C   UNL     1       1.802   5.607  20.617  0.00  0.00    +0.000 C 
ATOM     16  O   UNL     1       3.031   4.985  20.238  0.00  0.00    +0.000 OA
ENDBRANCH  13  16
ENDBRANCH  12  13
ENDBRANCH  10  12
ENDBRANCH   1  11
BRANCH   7  17
ATOM     17  C   UNL     1       5.506   2.874  11.916  0.00  0.00    +0.000 C 
ATOM     18  O   UNL     1       4.357   3.129  11.614  0.00  0.00    +0.000 OA
BRANCH  17  19
ATOM     19  O   UNL     1       6.030   1.637  11.795  0.00  0.00    +0.000 OA
ATOM     20  H   UNL     1       5.980   1.064  12.580  0.00  0.00    +0.000 HD
ENDBRANCH  17  19
ENDBRANCH   7  17
TORSDOF 6
ENDMDL
MODEL 8
REMARK VINA RESULT:      -6.1      2.290      3.664
REMARK  Name = 
REMARK  7 active torsions:
REMARK  status: ('A' for Active; 'I' for Inactive)
REMARK    1  A    between atoms: C_1  and  O_2
REMARK    2  A    between atoms: O_2  and  C_3
REMARK    3  A    between atoms: C_3  and  C_5
REMARK    4  A    between atoms: C_5  and  C_6
REMARK    5  A    between atoms: N_7  and  N_8
REMARK    6  A    between atoms: C_14  and  C_15
REMARK    7  A    between atoms: C_15  and  O_17
REMARK                            x       y       z     vdW  Elec       q    Type
REMARK                         _______ _______ _______ _____ _____    ______ ____
ROOT
ATOM      1  N   UNL     1       3.492   2.757  17.236  0.00  0.00    +0.000 N 
ATOM      2  C   UNL     1       4.500   3.672  17.050  0.00  0.00    +0.000 C 
ATOM      3  N   UNL     1       4.904   4.101  15.899  0.00  0.00    +0.000 NA
ATOM      4  C   UNL     1       5.910   5.037  16.003  0.00  0.00    +0.000 C 
ATOM      5  O   UNL     1       6.402   5.646  15.064  0.00  0.00    +0.000 OA
ATOM      6  C   UNL     1       6.347   5.240  17.414  0.00  0.00    +0.000 C 
ATOM      7  C   UNL     1       7.382   6.030  17.712  0.00  0.00    +0.000 C 
ATOM      8  S   UNL     1       5.337   4.325  18.447  0.00  0.00    +0.000 S 
ATOM      9  H   UNL     1       3.078   2.455  16.356  0.00  0.00    +0.000 HD
ENDROOT
BRANCH   1  11
ATOM     10  C   UNL     1       1.799   3.623  18.440  0.00  0.00    +0.000 C 
ATOM     11  N   UNL     1       2.720   2.721  18.363  0.00  0.00    +0.000 NA
BRANCH  10  12
ATOM     12  C   UNL     1       0.950   3.718  19.673  0.00  0.00    +0.000 C 
BRANCH  12  13
ATOM     13  C   UNL     1       1.608   4.548  20.734  0.00  0.00    +0.000 C 
ATOM     14  O   UNL     1       1.510   5.763  20.831  0.00  0.00    +0.000 OA
BRANCH  13  16
ATOM     15  C   UNL     1       1.598   2.574  21.993  0.00  0.00    +0.000 C 
ATOM     16  O   UNL     1       2.307   3.746  21.585  0.00  0.00    +0.000 OA
ENDBRANCH  13  16
ENDBRANCH  12  13
ENDBRANCH  10  12
ENDBRANCH   1  11
BRANCH   7  17
ATOM     17  C   UNL     1       7.921   6.207  19.069  0.00  0.00    +0.000 C 
ATOM     18  O   UNL     1       7.783   5.434  19.996  0.00  0.00    +0.000 OA
BRANCH  17  19
ATOM     19  O   UNL     1       8.643   7.342  19.174  0.00  0.00    +0.000 OA
ATOM     20  H   UNL     1       8.141   8.170  19.268  0.00  0.00    +0.000 HD
ENDBRANCH  17  19
ENDBRANCH   7  17
TORSDOF 6
ENDMDL
MODEL 9
REMARK VINA RESULT:      -6.1      2.494      3.694
REMARK  Name = 
REMARK  7 active torsions:
REMARK  status: ('A' for Active; 'I' for Inactive)
REMARK    1  A    between atoms: C_1  and  O_2
REMARK    2  A    between atoms: O_2  and  C_3
REMARK    3  A    between atoms: C_3  and  C_5
REMARK    4  A    between atoms: C_5  and  C_6
REMARK    5  A    between atoms: N_7  and  N_8
REMARK    6  A    between atoms: C_14  and  C_15
REMARK    7  A    between atoms: C_15  and  O_17
REMARK                            x       y       z     vdW  Elec       q    Type
REMARK                         _______ _______ _______ _____ _____    ______ ____
ROOT
ATOM      1  N   UNL     1       5.977   5.132  17.239  0.00  0.00    +0.000 N 
ATOM      2  C   UNL     1       6.372   4.960  15.934  0.00  0.00    +0.000 C 
ATOM      3  N   UNL     1       7.309   5.635  15.352  0.00  0.00    +0.000 NA
ATOM      4  C   UNL     1       7.519   5.238  14.049  0.00  0.00    +0.000 C 
ATOM      5  O   UNL     1       8.399   5.668  13.317  0.00  0.00    +0.000 OA
ATOM      6  C   UNL     1       6.541   4.202  13.610  0.00  0.00    +0.000 C 
ATOM      7  C   UNL     1       6.514   3.765  12.348  0.00  0.00    +0.000 C 
ATOM      8  S   UNL     1       5.566   3.757  14.943  0.00  0.00    +0.000 S 
ATOM      9  H   UNL     1       6.519   5.850  17.715  0.00  0.00    +0.000 HD
ENDROOT
BRANCH   1  11
ATOM     10  C   UNL     1       4.411   4.456  18.708  0.00  0.00    +0.000 C 
ATOM     11  N   UNL     1       5.432   4.127  17.988  0.00  0.00    +0.000 NA
BRANCH  10  12
ATOM     12  C   UNL     1       3.790   3.446  19.626  0.00  0.00    +0.000 C 
BRANCH  12  13
ATOM     13  C   UNL     1       2.467   3.916  20.151  0.00  0.00    +0.000 C 
ATOM     14  O   UNL     1       2.261   4.282  21.299  0.00  0.00    +0.000 OA
BRANCH  13  16
ATOM     15  C   UNL     1       1.001   2.604  18.881  0.00  0.00    +0.000 C 
ATOM     16  O   UNL     1       1.538   3.900  19.154  0.00  0.00    +0.000 OA
ENDBRANCH  13  16
ENDBRANCH  12  13
ENDBRANCH  10  12
ENDBRANCH   1  11
BRANCH   7  17
ATOM     17  C   UNL     1       5.522   2.812  11.826  0.00  0.00    +0.000 C 
ATOM     18  O   UNL     1       5.725   1.641  11.574  0.00  0.00    +0.000 OA
BRANCH  17  19
ATOM     19  O   UNL     1       4.308   3.384  11.684  0.00  0.00    +0.000 OA
ATOM     20  H   UNL     1       4.267   4.350  11.790  0.00  0.00    +0.000 HD
ENDBRANCH  17  19
ENDBRANCH   7  17
TORSDOF 6
ENDMDL
