MODEL 1
REMARK VINA RESULT:      -7.7      0.000      0.000
REMARK  Name = 
REMARK  6 active torsions:
REMARK  status: ('A' for Active; 'I' for Inactive)
REMARK    1  A    between atoms: C_1  and  O_2
REMARK    2  A    between atoms: O_2  and  C_3
REMARK    3  A    between atoms: C_6  and  N_7
REMARK    4  A    between atoms: C_8  and  C_10
REMARK    5  A    between atoms: C_10  and  S_11
REMARK    6  A    between atoms: S_11  and  C_14
REMARK                            x       y       z     vdW  Elec       q    Type
REMARK                         _______ _______ _______ _____ _____    ______ ____
ROOT
ATOM      1  N   UNL     1       2.736   5.867  20.284  0.00  0.00    +0.000 N 
ATOM      2  C   UNL     1       2.224   4.640  19.901  0.00  0.00    +0.000 C 
ATOM      3  O   UNL     1       1.319   4.469  19.083  0.00  0.00    +0.000 OA
ATOM      4  H   UNL     1       3.186   5.915  21.194  0.00  0.00    +0.000 HD
ENDROOT
BRANCH   1   8
ATOM      5  C   UNL     1       1.181   9.521  18.866  0.00  0.00    +0.000 A 
ATOM      6  C   UNL     1       0.947   9.094  20.173  0.00  0.00    +0.000 A 
ATOM      7  C   UNL     1       1.512   7.906  20.645  0.00  0.00    +0.000 A 
ATOM      8  C   UNL     1       2.252   7.096  19.784  0.00  0.00    +0.000 A 
ATOM      9  C   UNL     1       2.483   7.517  18.473  0.00  0.00    +0.000 A 
ATOM     10  C   UNL     1       1.961   8.735  18.018  0.00  0.00    +0.000 A 
BRANCH   5  12
ATOM     11  C   UNL     1      -0.841  10.627  18.334  0.00  0.00    +0.000 C 
ATOM     12  O   UNL     1       0.567  10.695  18.526  0.00  0.00    +0.000 OA
ENDBRANCH   5  12
ENDBRANCH   1   8
BRANCH   2  13
ATOM     13  C   UNL     1       2.866   3.469  20.571  0.00  0.00    +0.000 C 
BRANCH  13  14
ATOM     14  S   UNL     1       3.940   2.619  19.467  0.00  0.00    +0.000 S 
ATOM     15  O   UNL     1       5.025   2.086  20.275  0.00  0.00    +0.000 OA
ATOM     16  O   UNL     1       3.132   1.713  18.672  0.00  0.00    +0.000 OA
BRANCH  14  17
ATOM     17  C   UNL     1       4.691   3.809  18.382  0.00  0.00    +0.000 A 
ATOM     18  C   UNL     1       4.323   3.857  17.031  0.00  0.00    +0.000 A 
ATOM     19  C   UNL     1       5.018   4.693  16.152  0.00  0.00    +0.000 A 
ATOM     20  C   UNL     1       6.077   5.473  16.619  0.00  0.00    +0.000 A 
ATOM     21  C   UNL     1       6.439   5.415  17.968  0.00  0.00    +0.000 A 
ATOM     22 CL   UNL     1       7.761   6.362  18.531  0.00  0.00    +0.000 Cl
ATOM     23  C   UNL     1       5.756   4.583  18.852  0.00  0.00    +0.000 A 
ENDBRANCH  14  17
ENDBRANCH  13  14
ENDBRANCH   2  13
TORSDOF 5
ENDMDL
MODEL 2
REMARK VINA RESULT:      -7.7      0.329      1.078
REMARK  Name = 
REMARK  6 active torsions:
REMARK  status: ('A' for Active; 'I' for Inactive)
REMARK    1  A    between atoms: C_1  and  O_2
REMARK    2  A    between atoms: O_2  and  C_3
REMARK    3  A    between atoms: C_6  and  N_7
REMARK    4  A    between atoms: C_8  and  C_10
REMARK    5  A    between atoms: C_10  and  S_11
REMARK    6  A    between atoms: S_11  and  C_14
REMARK                            x       y       z     vdW  Elec       q    Type
REMARK                         _______ _______ _______ _____ _____    ______ ____
ROOT
ATOM      1  N   UNL     1       2.742   5.726  20.371  0.00  0.00    +0.000 N 
ATOM      2  C   UNL     1       2.200   4.503  20.015  0.00  0.00    +0.000 C 
ATOM      3  O   UNL     1       1.244   4.342  19.255  0.00  0.00    +0.000 OA
ATOM      4  H   UNL     1       3.250   5.767  21.250  0.00  0.00    +0.000 HD
ENDROOT
BRANCH   1   8
ATOM      5  C   UNL     1       1.335   9.425  18.916  0.00  0.00    +0.000 A 
ATOM      6  C   UNL     1       2.099   8.576  18.116  0.00  0.00    +0.000 A 
ATOM      7  C   UNL     1       2.515   7.330  18.593  0.00  0.00    +0.000 A 
ATOM      8  C   UNL     1       2.234   6.960  19.909  0.00  0.00    +0.000 A 
ATOM      9  C   UNL     1       1.475   7.810  20.716  0.00  0.00    +0.000 A 
ATOM     10  C   UNL     1       1.013   9.035  20.216  0.00  0.00    +0.000 A 
BRANCH   5  12
ATOM     11  C   UNL     1      -0.028  11.357  18.983  0.00  0.00    +0.000 C 
ATOM     12  O   UNL     1       0.998  10.616  18.334  0.00  0.00    +0.000 OA
ENDBRANCH   5  12
ENDBRANCH   1   8
BRANCH   2  13
ATOM     13  C   UNL     1       2.877   3.326  20.636  0.00  0.00    +0.000 C 
BRANCH  13  14
ATOM     14  S   UNL     1       3.988   2.565  19.505  0.00  0.00    +0.000 S 
ATOM     15  O   UNL     1       5.093   2.047  20.295  0.00  0.00    +0.000 OA
ATOM     16  O   UNL     1       3.221   1.656  18.673  0.00  0.00    +0.000 OA
BRANCH  14  17
ATOM     17  C   UNL     1       4.690   3.825  18.468  0.00  0.00    +0.000 A 
ATOM     18  C   UNL     1       4.263   3.962  17.141  0.00  0.00    +0.000 A 
ATOM     19  C   UNL     1       4.917   4.856  16.289  0.00  0.00    +0.000 A 
ATOM     20  C   UNL     1       5.997   5.606  16.759  0.00  0.00    +0.000 A 
ATOM     21  C   UNL     1       6.418   5.460  18.083  0.00  0.00    +0.000 A 
ATOM     22 CL   UNL     1       7.764   6.371  18.648  0.00  0.00    +0.000 Cl
ATOM     23  C   UNL     1       5.776   4.570  18.940  0.00  0.00    +0.000 A 
ENDBRANCH  14  17
ENDBRANCH  13  14
ENDBRANCH   2  13
TORSDOF 5
ENDMDL
MODEL 3
REMARK VINA RESULT:      -7.3      1.096      1.504
REMARK  Name = 
REMARK  6 active torsions:
REMARK  status: ('A' for Active; 'I' for Inactive)
REMARK    1  A    between atoms: C_1  and  O_2
REMARK    2  A    between atoms: O_2  and  C_3
REMARK    3  A    between atoms: C_6  and  N_7
REMARK    4  A    between atoms: C_8  and  C_10
REMARK    5  A    between atoms: C_10  and  S_11
REMARK    6  A    between atoms: S_11  and  C_14
REMARK                            x       y       z     vdW  Elec       q    Type
REMARK                         _______ _______ _______ _____ _____    ______ ____
ROOT
ATOM      1  N   UNL     1       2.736   5.899  20.219  0.00  0.00    +0.000 N 
ATOM      2  C   UNL     1       2.323   4.676  19.719  0.00  0.00    +0.000 C 
ATOM      3  O   UNL     1       1.545   4.517  18.778  0.00  0.00    +0.000 OA
ATOM      4  H   UNL     1       3.056   5.919  21.183  0.00  0.00    +0.000 HD
ENDROOT
BRANCH   1   8
ATOM      5  C   UNL     1       1.275   9.577  18.764  0.00  0.00    +0.000 A 
ATOM      6  C   UNL     1       1.008   9.157  20.067  0.00  0.00    +0.000 A 
ATOM      7  C   UNL     1       1.543   7.961  20.553  0.00  0.00    +0.000 A 
ATOM      8  C   UNL     1       2.284   7.134  19.707  0.00  0.00    +0.000 A 
ATOM      9  C   UNL     1       2.547   7.548  18.399  0.00  0.00    +0.000 A 
ATOM     10  C   UNL     1       2.055   8.774  17.932  0.00  0.00    +0.000 A 
BRANCH   5  12
ATOM     11  C   UNL     1       0.176  11.545  19.480  0.00  0.00    +0.000 C 
ATOM     12  O   UNL     1       0.688  10.760  18.410  0.00  0.00    +0.000 OA
ENDBRANCH   5  12
ENDBRANCH   1   8
BRANCH   2  13
ATOM     13  C   UNL     1       2.907   3.495  20.423  0.00  0.00    +0.000 C 
BRANCH  13  14
ATOM     14  S   UNL     1       4.100   2.684  19.416  0.00  0.00    +0.000 S 
ATOM     15  O   UNL     1       5.012   2.005  20.322  0.00  0.00    +0.000 OA
ATOM     16  O   UNL     1       3.384   1.914  18.415  0.00  0.00    +0.000 OA
BRANCH  14  17
ATOM     17  C   UNL     1       5.075   3.918  18.590  0.00  0.00    +0.000 A 
ATOM     18  C   UNL     1       5.886   4.786  19.334  0.00  0.00    +0.000 A 
ATOM     19  C   UNL     1       6.537   5.845  18.695  0.00  0.00    +0.000 A 
ATOM     20  C   UNL     1       6.376   6.039  17.322  0.00  0.00    +0.000 A 
ATOM     21  C   UNL     1       5.562   5.171  16.590  0.00  0.00    +0.000 A 
ATOM     22 CL   UNL     1       5.348   5.431  14.903  0.00  0.00    +0.000 Cl
ATOM     23  C   UNL     1       4.905   4.114  17.216  0.00  0.00    +0.000 A 
ENDBRANCH  14  17
ENDBRANCH  13  14
ENDBRANCH   2  13
TORSDOF 5
ENDMDL
MODEL 4
REMARK VINA RESULT:      -7.2      1.044      1.791
REMARK  Name = 
REMARK  6 active torsions:
REMARK  status: ('A' for Active; 'I' for Inactive)
REMARK    1  A    between atoms: C_1  and  O_2
REMARK    2  A    between atoms: O_2  and  C_3
REMARK    3  A    between atoms: C_6  and  N_7
REMARK    4  A    between atoms: C_8  and  C_10
REMARK    5  A    between atoms: C_10  and  S_11
REMARK    6  A    between atoms: S_11  and  C_14
REMARK                            x       y       z     vdW  Elec       q    Type
REMARK                         _______ _______ _______ _____ _____    ______ ____
ROOT
ATOM      1  N   UNL     1       2.698   5.811  20.367  0.00  0.00    +0.000 N 
ATOM      2  C   UNL     1       2.284   4.591  19.859  0.00  0.00    +0.000 C 
ATOM      3  O   UNL     1       1.464   4.439  18.953  0.00  0.00    +0.000 OA
ATOM      4  H   UNL     1       3.064   5.815  21.315  0.00  0.00    +0.000 HD
ENDROOT
BRANCH   1   8
ATOM      5  C   UNL     1       1.317   9.522  18.919  0.00  0.00    +0.000 A 
ATOM      6  C   UNL     1       2.095   8.680  18.125  0.00  0.00    +0.000 A 
ATOM      7  C   UNL     1       2.501   7.430  18.599  0.00  0.00    +0.000 A 
ATOM      8  C   UNL     1       2.199   7.048  19.907  0.00  0.00    +0.000 A 
ATOM      9  C   UNL     1       1.426   7.892  20.708  0.00  0.00    +0.000 A 
ATOM     10  C   UNL     1       0.973   9.122  20.210  0.00  0.00    +0.000 A 
BRANCH   5  12
ATOM     11  C   UNL     1      -0.271  11.263  18.709  0.00  0.00    +0.000 C 
ATOM     12  O   UNL     1       0.991  10.718  18.342  0.00  0.00    +0.000 OA
ENDBRANCH   5  12
ENDBRANCH   1   8
BRANCH   2  13
ATOM     13  C   UNL     1       2.923   3.406  20.506  0.00  0.00    +0.000 C 
BRANCH  13  14
ATOM     14  S   UNL     1       4.070   2.634  19.419  0.00  0.00    +0.000 S 
ATOM     15  O   UNL     1       5.006   1.903  20.258  0.00  0.00    +0.000 OA
ATOM     16  O   UNL     1       3.311   1.920  18.409  0.00  0.00    +0.000 OA
BRANCH  14  17
ATOM     17  C   UNL     1       5.030   3.897  18.619  0.00  0.00    +0.000 A 
ATOM     18  C   UNL     1       5.832   4.758  19.380  0.00  0.00    +0.000 A 
ATOM     19  C   UNL     1       6.469   5.838  18.764  0.00  0.00    +0.000 A 
ATOM     20  C   UNL     1       6.304   6.061  17.396  0.00  0.00    +0.000 A 
ATOM     21  C   UNL     1       5.498   5.199  16.646  0.00  0.00    +0.000 A 
ATOM     22 CL   UNL     1       5.278   5.494  14.966  0.00  0.00    +0.000 Cl
ATOM     23  C   UNL     1       4.855   4.121  17.250  0.00  0.00    +0.000 A 
ENDBRANCH  14  17
ENDBRANCH  13  14
ENDBRANCH   2  13
TORSDOF 5
ENDMDL
MODEL 5
REMARK VINA RESULT:      -7.2      1.118      1.678
REMARK  Name = 
REMARK  6 active torsions:
REMARK  status: ('A' for Active; 'I' for Inactive)
REMARK    1  A    between atoms: C_1  and  O_2
REMARK    2  A    between atoms: O_2  and  C_3
REMARK    3  A    between atoms: C_6  and  N_7
REMARK    4  A    between atoms: C_8  and  C_10
REMARK    5  A    between atoms: C_10  and  S_11
REMARK    6  A    between atoms: S_11  and  C_14
REMARK                            x       y       z     vdW  Elec       q    Type
REMARK                         _______ _______ _______ _____ _____    ______ ____
ROOT
ATOM      1  N   UNL     1       2.705   6.283  19.800  0.00  0.00    +0.000 N 
ATOM      2  C   UNL     1       2.163   5.064  20.171  0.00  0.00    +0.000 C 
ATOM      3  O   UNL     1       1.030   4.896  20.623  0.00  0.00    +0.000 OA
ATOM      4  H   UNL     1       3.718   6.357  19.803  0.00  0.00    +0.000 HD
ENDROOT
BRANCH   1   8
ATOM      5  C   UNL     1       0.709   9.988  20.070  0.00  0.00    +0.000 A 
ATOM      6  C   UNL     1       1.268   9.552  18.868  0.00  0.00    +0.000 A 
ATOM      7  C   UNL     1       1.880   8.300  18.780  0.00  0.00    +0.000 A 
ATOM      8  C   UNL     1       2.009   7.505  19.920  0.00  0.00    +0.000 A 
ATOM      9  C   UNL     1       1.457   7.941  21.128  0.00  0.00    +0.000 A 
ATOM     10  C   UNL     1       0.795   9.174  21.199  0.00  0.00    +0.000 A 
BRANCH   5  12
ATOM     11  C   UNL     1      -0.161  11.730  18.728  0.00  0.00    +0.000 C 
ATOM     12  O   UNL     1       0.147  11.233  20.025  0.00  0.00    +0.000 OA
ENDBRANCH   5  12
ENDBRANCH   1   8
BRANCH   2  13
ATOM     13  C   UNL     1       3.080   3.900  19.981  0.00  0.00    +0.000 C 
BRANCH  13  14
ATOM     14  S   UNL     1       3.217   3.473  18.281  0.00  0.00    +0.000 S 
ATOM     15  O   UNL     1       3.308   2.023  18.225  0.00  0.00    +0.000 OA
ATOM     16  O   UNL     1       2.148   4.148  17.567  0.00  0.00    +0.000 OA
BRANCH  14  17
ATOM     17  C   UNL     1       4.773   4.075  17.670  0.00  0.00    +0.000 A 
ATOM     18  C   UNL     1       5.150   3.829  16.343  0.00  0.00    +0.000 A 
ATOM     19  C   UNL     1       6.432   4.177  15.910  0.00  0.00    +0.000 A 
ATOM     20  C   UNL     1       7.335   4.764  16.799  0.00  0.00    +0.000 A 
ATOM     21  C   UNL     1       6.952   5.001  18.121  0.00  0.00    +0.000 A 
ATOM     22 CL   UNL     1       8.078   5.702  19.216  0.00  0.00    +0.000 Cl
ATOM     23  C   UNL     1       5.678   4.655  18.565  0.00  0.00    +0.000 A 
ENDBRANCH  14  17
ENDBRANCH  13  14
ENDBRANCH   2  13
TORSDOF 5
ENDMDL
MODEL 6
REMARK VINA RESULT:      -7.1      1.476      2.145
REMARK  Name = 
REMARK  6 active torsions:
REMARK  status: ('A' for Active; 'I' for Inactive)
REMARK    1  A    between atoms: C_1  and  O_2
REMARK    2  A    between atoms: O_2  and  C_3
REMARK    3  A    between atoms: C_6  and  N_7
REMARK    4  A    between atoms: C_8  and  C_10
REMARK    5  A    between atoms: C_10  and  S_11
REMARK    6  A    between atoms: S_11  and  C_14
REMARK                            x       y       z     vdW  Elec       q    Type
REMARK                         _______ _______ _______ _____ _____    ______ ____
ROOT
ATOM      1  N   UNL     1       2.858   6.306  19.382  0.00  0.00    +0.000 N 
ATOM      2  C   UNL     1       2.340   5.175  19.989  0.00  0.00    +0.000 C 
ATOM      3  O   UNL     1       1.234   5.098  20.526  0.00  0.00    +0.000 OA
ATOM      4  H   UNL     1       3.869   6.371  19.315  0.00  0.00    +0.000 HD
ENDROOT
BRANCH   1   8
ATOM      5  C   UNL     1       0.885  10.024  19.128  0.00  0.00    +0.000 A 
ATOM      6  C   UNL     1       1.458   9.431  18.004  0.00  0.00    +0.000 A 
ATOM      7  C   UNL     1       2.063   8.174  18.092  0.00  0.00    +0.000 A 
ATOM      8  C   UNL     1       2.169   7.537  19.329  0.00  0.00    +0.000 A 
ATOM      9  C   UNL     1       1.603   8.132  20.459  0.00  0.00    +0.000 A 
ATOM     10  C   UNL     1       0.948   9.367  20.356  0.00  0.00    +0.000 A 
BRANCH   5  12
ATOM     11  C   UNL     1      -1.072  11.274  18.677  0.00  0.00    +0.000 C 
ATOM     12  O   UNL     1       0.332  11.255  18.910  0.00  0.00    +0.000 OA
ENDBRANCH   5  12
ENDBRANCH   1   8
BRANCH   2  13
ATOM     13  C   UNL     1       3.245   3.987  19.951  0.00  0.00    +0.000 C 
BRANCH  13  14
ATOM     14  S   UNL     1       3.361   3.330  18.324  0.00  0.00    +0.000 S 
ATOM     15  O   UNL     1       3.443   1.886  18.466  0.00  0.00    +0.000 OA
ATOM     16  O   UNL     1       2.288   3.909  17.536  0.00  0.00    +0.000 OA
BRANCH  14  17
ATOM     17  C   UNL     1       4.913   3.832  17.621  0.00  0.00    +0.000 A 
ATOM     18  C   UNL     1       5.883   4.446  18.425  0.00  0.00    +0.000 A 
ATOM     19  C   UNL     1       7.039   4.968  17.840  0.00  0.00    +0.000 A 
ATOM     20  C   UNL     1       7.226   4.882  16.459  0.00  0.00    +0.000 A 
ATOM     21  C   UNL     1       6.251   4.271  15.665  0.00  0.00    +0.000 A 
ATOM     22 CL   UNL     1       6.476   4.190  13.962  0.00  0.00    +0.000 Cl
ATOM     23  C   UNL     1       5.092   3.751  16.236  0.00  0.00    +0.000 A 
ENDBRANCH  14  17
ENDBRANCH  13  14
ENDBRANCH   2  13
TORSDOF 5
ENDMDL
MODEL 7
REMARK VINA RESULT:      -7.1      1.141      1.352
REMARK  Name = 
REMARK  6 active torsions:
REMARK  status: ('A' for Active; 'I' for Inactive)
REMARK    1  A    between atoms: C_1  and  O_2
REMARK    2  A    between atoms: O_2  and  C_3
REMARK    3  A    between atoms: C_6  and  N_7
REMARK    4  A    between atoms: C_8  and  C_10
REMARK    5  A    between atoms: C_10  and  S_11
REMARK    6  A    between atoms: S_11  and  C_14
REMARK                            x       y       z     vdW  Elec       q    Type
REMARK                         _______ _______ _______ _____ _____    ______ ____
ROOT
ATOM      1  N   UNL     1       2.820   6.000  19.373  0.00  0.00    +0.000 N 
ATOM      2  C   UNL     1       2.181   4.861  19.832  0.00  0.00    +0.000 C 
ATOM      3  O   UNL     1       1.032   4.817  20.271  0.00  0.00    +0.000 OA
ATOM      4  H   UNL     1       3.835   5.999  19.392  0.00  0.00    +0.000 HD
ENDROOT
BRANCH   1   8
ATOM      5  C   UNL     1       0.935   9.771  19.478  0.00  0.00    +0.000 A 
ATOM      6  C   UNL     1       1.024   8.974  20.619  0.00  0.00    +0.000 A 
ATOM      7  C   UNL     1       1.698   7.751  20.583  0.00  0.00    +0.000 A 
ATOM      8  C   UNL     1       2.218   7.277  19.378  0.00  0.00    +0.000 A 
ATOM      9  C   UNL     1       2.124   8.068  18.230  0.00  0.00    +0.000 A 
ATOM     10  C   UNL     1       1.496   9.320  18.283  0.00  0.00    +0.000 A 
BRANCH   5  12
ATOM     11  C   UNL     1       0.599  11.713  20.785  0.00  0.00    +0.000 C 
ATOM     12  O   UNL     1       0.245  10.939  19.644  0.00  0.00    +0.000 OA
ENDBRANCH   5  12
ENDBRANCH   1   8
BRANCH   2  13
ATOM     13  C   UNL     1       3.009   3.620  19.758  0.00  0.00    +0.000 C 
BRANCH  13  14
ATOM     14  S   UNL     1       3.261   3.125  18.089  0.00  0.00    +0.000 S 
ATOM     15  O   UNL     1       3.520   1.695  18.116  0.00  0.00    +0.000 OA
ATOM     16  O   UNL     1       2.151   3.634  17.304  0.00  0.00    +0.000 OA
BRANCH  14  17
ATOM     17  C   UNL     1       4.761   3.873  17.499  0.00  0.00    +0.000 A 
ATOM     18  C   UNL     1       5.119   3.759  16.149  0.00  0.00    +0.000 A 
ATOM     19  C   UNL     1       6.365   4.221  15.720  0.00  0.00    +0.000 A 
ATOM     20  C   UNL     1       7.253   4.791  16.634  0.00  0.00    +0.000 A 
ATOM     21  C   UNL     1       6.889   4.897  17.980  0.00  0.00    +0.000 A 
ATOM     22 CL   UNL     1       7.997   5.578  19.105  0.00  0.00    +0.000 Cl
ATOM     23  C   UNL     1       5.650   4.436  18.419  0.00  0.00    +0.000 A 
ENDBRANCH  14  17
ENDBRANCH  13  14
ENDBRANCH   2  13
TORSDOF 5
ENDMDL
MODEL 8
REMARK VINA RESULT:      -7.1      3.605      4.479
REMARK  Name = 
REMARK  6 active torsions:
REMARK  status: ('A' for Active; 'I' for Inactive)
REMARK    1  A    between atoms: C_1  and  O_2
REMARK    2  A    between atoms: O_2  and  C_3
REMARK    3  A    between atoms: C_6  and  N_7
REMARK    4  A    between atoms: C_8  and  C_10
REMARK    5  A    between atoms: C_10  and  S_11
REMARK    6  A    between atoms: S_11  and  C_14
REMARK                            x       y       z     vdW  Elec       q    Type
REMARK                         _______ _______ _______ _____ _____    ______ ____
ROOT
ATOM      1  N   UNL     1       3.498   5.396  17.663  0.00  0.00    +0.000 N 
ATOM      2  C   UNL     1       4.633   4.639  17.902  0.00  0.00    +0.000 C 
ATOM      3  O   UNL     1       5.134   4.438  19.009  0.00  0.00    +0.000 OA
ATOM      4  H   UNL     1       3.397   5.794  16.734  0.00  0.00    +0.000 HD
ENDROOT
BRANCH   1   8
ATOM      5  C   UNL     1       1.437   7.479  20.695  0.00  0.00    +0.000 A 
ATOM      6  C   UNL     1       1.945   8.142  19.578  0.00  0.00    +0.000 A 
ATOM      7  C   UNL     1       2.579   7.432  18.556  0.00  0.00    +0.000 A 
ATOM      8  C   UNL     1       2.782   6.058  18.684  0.00  0.00    +0.000 A 
ATOM      9  C   UNL     1       2.282   5.390  19.805  0.00  0.00    +0.000 A 
ATOM     10  C   UNL     1       1.598   6.098  20.803  0.00  0.00    +0.000 A 
BRANCH   5  12
ATOM     11  C   UNL     1      -0.149   9.178  21.132  0.00  0.00    +0.000 C 
ATOM     12  O   UNL     1       0.845   8.288  21.625  0.00  0.00    +0.000 OA
ENDBRANCH   5  12
ENDBRANCH   1   8
BRANCH   2  13
ATOM     13  C   UNL     1       5.246   4.047  16.676  0.00  0.00    +0.000 C 
BRANCH  13  14
ATOM     14  S   UNL     1       6.627   4.994  16.138  0.00  0.00    +0.000 S 
ATOM     15  O   UNL     1       6.220   6.389  16.200  0.00  0.00    +0.000 OA
ATOM     16  O   UNL     1       7.786   4.556  16.892  0.00  0.00    +0.000 OA
BRANCH  14  17
ATOM     17  C   UNL     1       6.909   4.654  14.417  0.00  0.00    +0.000 A 
ATOM     18  C   UNL     1       7.791   5.453  13.678  0.00  0.00    +0.000 A 
ATOM     19  C   UNL     1       7.900   5.273  12.297  0.00  0.00    +0.000 A 
ATOM     20  C   UNL     1       7.129   4.302  11.655  0.00  0.00    +0.000 A 
ATOM     21  C   UNL     1       6.249   3.511  12.400  0.00  0.00    +0.000 A 
ATOM     22 CL   UNL     1       5.285   2.333  11.600  0.00  0.00    +0.000 Cl
ATOM     23  C   UNL     1       6.130   3.685  13.777  0.00  0.00    +0.000 A 
ENDBRANCH  14  17
ENDBRANCH  13  14
ENDBRANCH   2  13
TORSDOF 5
ENDMDL
MODEL 9
REMARK VINA RESULT:      -7.1      1.565      2.032
REMARK  Name = 
REMARK  6 active torsions:
REMARK  status: ('A' for Active; 'I' for Inactive)
REMARK    1  A    between atoms: C_1  and  O_2
REMARK    2  A    between atoms: O_2  and  C_3
REMARK    3  A    between atoms: C_6  and  N_7
REMARK    4  A    between atoms: C_8  and  C_10
REMARK    5  A    between atoms: C_10  and  S_11
REMARK    6  A    between atoms: S_11  and  C_14
REMARK                            x       y       z     vdW  Elec       q    Type
REMARK                         _______ _______ _______ _____ _____    ______ ____
ROOT
ATOM      1  N   UNL     1       2.773   6.300  19.729  0.00  0.00    +0.000 N 
ATOM      2  C   UNL     1       2.204   5.113  20.156  0.00  0.00    +0.000 C 
ATOM      3  O   UNL     1       1.057   4.986  20.586  0.00  0.00    +0.000 OA
ATOM      4  H   UNL     1       3.786   6.362  19.755  0.00  0.00    +0.000 HD
ENDROOT
BRANCH   1   8
ATOM      5  C   UNL     1       0.655   9.942  19.909  0.00  0.00    +0.000 A 
ATOM      6  C   UNL     1       0.805   9.135  21.037  0.00  0.00    +0.000 A 
ATOM      7  C   UNL     1       1.554   7.957  20.975  0.00  0.00    +0.000 A 
ATOM      8  C   UNL     1       2.092   7.537  19.759  0.00  0.00    +0.000 A 
ATOM      9  C   UNL     1       1.938   8.338  18.625  0.00  0.00    +0.000 A 
ATOM     10  C   UNL     1       1.233   9.546  18.703  0.00  0.00    +0.000 A 
BRANCH   5  12
ATOM     11  C   UNL     1      -0.555  11.290  21.430  0.00  0.00    +0.000 C 
ATOM     12  O   UNL     1      -0.105  11.062  20.100  0.00  0.00    +0.000 OA
ENDBRANCH   5  12
ENDBRANCH   1   8
BRANCH   2  13
ATOM     13  C   UNL     1       3.109   3.928  20.060  0.00  0.00    +0.000 C 
BRANCH  13  14
ATOM     14  S   UNL     1       3.240   3.365  18.399  0.00  0.00    +0.000 S 
ATOM     15  O   UNL     1       3.272   1.913  18.455  0.00  0.00    +0.000 OA
ATOM     16  O   UNL     1       2.206   4.026  17.624  0.00  0.00    +0.000 OA
BRANCH  14  17
ATOM     17  C   UNL     1       4.824   3.855  17.760  0.00  0.00    +0.000 A 
ATOM     18  C   UNL     1       5.768   4.453  18.605  0.00  0.00    +0.000 A 
ATOM     19  C   UNL     1       6.952   4.967  18.069  0.00  0.00    +0.000 A 
ATOM     20  C   UNL     1       7.191   4.887  16.696  0.00  0.00    +0.000 A 
ATOM     21  C   UNL     1       6.242   4.291  15.861  0.00  0.00    +0.000 A 
ATOM     22 CL   UNL     1       6.533   4.218  14.166  0.00  0.00    +0.000 Cl
ATOM     23  C   UNL     1       5.057   3.779  16.383  0.00  0.00    +0.000 A 
ENDBRANCH  14  17
ENDBRANCH  13  14
ENDBRANCH   2  13
TORSDOF 5
ENDMDL
