MODEL 1
REMARK VINA RESULT:      -6.8      0.000      0.000
REMARK  Name = 
REMARK  9 active torsions:
REMARK  status: ('A' for Active; 'I' for Inactive)
REMARK    1  A    between atoms: C_1  and  C_2
REMARK    2  A    between atoms: C_2  and  N_3
REMARK    3  A    between atoms: N_3  and  C_4
REMARK    4  A    between atoms: C_4  and  C_5
REMARK    5  A    between atoms: C_6  and  C_8
REMARK    6  A    between atoms: C_8  and  N_9
REMARK    7  A    between atoms: N_9  and  C_10
REMARK    8  A    between atoms: C_11  and  C_13
REMARK    9  A    between atoms: C_13  and  C_14
REMARK                            x       y       z     vdW  Elec       q    Type
REMARK                         _______ _______ _______ _____ _____    ______ ____
ROOT
ATOM      1  N   UNL     1       4.381   4.902  17.275  0.00  0.00    +0.000 N 
ATOM      2  C   UNL     1       4.711   3.607  17.843  0.00  0.00    +0.000 C 
ATOM      3  C   UNL     1       5.246   5.607  16.445  0.00  0.00    +0.000 C 
ATOM      4  O   UNL     1       4.932   6.699  15.958  0.00  0.00    +0.000 OA
ENDROOT
BRANCH   1   5
ATOM      5  C   UNL     1       3.059   5.473  17.588  0.00  0.00    +0.000 C 
BRANCH   5   7
ATOM      6  N   UNL     1       1.697   4.488  19.480  0.00  0.00    +0.000 N 
ATOM      7  C   UNL     1       1.980   4.475  18.093  0.00  0.00    +0.000 C 
ATOM      8  O   UNL     1       1.394   3.715  17.319  0.00  0.00    +0.000 OA
BRANCH   6  10
ATOM      9  C   UNL     1       1.338   2.777  21.287  0.00  0.00    +0.000 C 
ATOM     10  C   UNL     1       0.831   3.421  20.005  0.00  0.00    +0.000 C 
ENDBRANCH   6  10
BRANCH   6  11
ATOM     11  C   UNL     1       2.381   5.419  20.392  0.00  0.00    +0.000 C 
ATOM     12  C   UNL     1       1.723   6.750  20.728  0.00  0.00    +0.000 C 
ENDBRANCH   6  11
ENDBRANCH   5   7
ENDBRANCH   1   5
BRANCH   3  13
ATOM     13  C   UNL     1       6.598   4.976  16.093  0.00  0.00    +0.000 C 
BRANCH  13  14
ATOM     14  C   UNL     1       6.754   4.690  14.616  0.00  0.00    +0.000 A 
ATOM     15  C   UNL     1       7.679   5.408  13.843  0.00  0.00    +0.000 A 
ATOM     16  C   UNL     1       7.808   5.173  12.472  0.00  0.00    +0.000 A 
ATOM     17  C   UNL     1       7.018   4.208  11.853  0.00  0.00    +0.000 A 
ATOM     18  C   UNL     1       6.112   3.480  12.618  0.00  0.00    +0.000 A 
ATOM     19  F   UNL     1       5.347   2.555  12.025  0.00  0.00    +0.000 F 
ATOM     20  C   UNL     1       5.982   3.702  13.984  0.00  0.00    +0.000 A 
ENDBRANCH  13  14
ENDBRANCH   3  13
TORSDOF 6
ENDMDL
MODEL 2
REMARK VINA RESULT:      -6.5      3.128      7.227
REMARK  Name = 
REMARK  9 active torsions:
REMARK  status: ('A' for Active; 'I' for Inactive)
REMARK    1  A    between atoms: C_1  and  C_2
REMARK    2  A    between atoms: C_2  and  N_3
REMARK    3  A    between atoms: N_3  and  C_4
REMARK    4  A    between atoms: C_4  and  C_5
REMARK    5  A    between atoms: C_6  and  C_8
REMARK    6  A    between atoms: C_8  and  N_9
REMARK    7  A    between atoms: N_9  and  C_10
REMARK    8  A    between atoms: C_11  and  C_13
REMARK    9  A    between atoms: C_13  and  C_14
REMARK                            x       y       z     vdW  Elec       q    Type
REMARK                         _______ _______ _______ _____ _____    ______ ____
ROOT
ATOM      1  N   UNL     1       5.507   5.651  17.357  0.00  0.00    +0.000 N 
ATOM      2  C   UNL     1       4.670   6.710  16.823  0.00  0.00    +0.000 C 
ATOM      3  C   UNL     1       5.301   5.082  18.609  0.00  0.00    +0.000 C 
ATOM      4  O   UNL     1       6.016   4.167  19.032  0.00  0.00    +0.000 OA
ENDROOT
BRANCH   1   5
ATOM      5  C   UNL     1       6.610   5.156  16.514  0.00  0.00    +0.000 C 
BRANCH   5   7
ATOM      6  N   UNL     1       6.747   4.248  14.156  0.00  0.00    +0.000 N 
ATOM      7  C   UNL     1       6.241   4.070  15.465  0.00  0.00    +0.000 C 
ATOM      8  O   UNL     1       5.547   3.095  15.767  0.00  0.00    +0.000 OA
BRANCH   6  10
ATOM      9  C   UNL     1       4.903   3.749  12.521  0.00  0.00    +0.000 C 
ATOM     10  C   UNL     1       6.247   3.344  13.108  0.00  0.00    +0.000 C 
ENDBRANCH   6  10
BRANCH   6  11
ATOM     11  C   UNL     1       7.598   5.400  13.814  0.00  0.00    +0.000 C 
ATOM     12  C   UNL     1       8.022   5.607  12.366  0.00  0.00    +0.000 C 
ENDBRANCH   6  11
ENDBRANCH   5   7
ENDBRANCH   1   5
BRANCH   3  13
ATOM     13  C   UNL     1       4.120   5.577  19.451  0.00  0.00    +0.000 C 
BRANCH  13  14
ATOM     14  C   UNL     1       2.967   4.600  19.492  0.00  0.00    +0.000 A 
ATOM     15  C   UNL     1       2.293   4.240  18.315  0.00  0.00    +0.000 A 
ATOM     16  C   UNL     1       1.207   3.362  18.346  0.00  0.00    +0.000 A 
ATOM     17  C   UNL     1       0.782   2.823  19.558  0.00  0.00    +0.000 A 
ATOM     18  C   UNL     1       1.458   3.161  20.726  0.00  0.00    +0.000 A 
ATOM     19  F   UNL     1       1.048   2.649  21.893  0.00  0.00    +0.000 F 
ATOM     20  C   UNL     1       2.544   4.029  20.703  0.00  0.00    +0.000 A 
ENDBRANCH  13  14
ENDBRANCH   3  13
TORSDOF 6
ENDMDL
MODEL 3
REMARK VINA RESULT:      -6.5      1.213      1.701
REMARK  Name = 
REMARK  9 active torsions:
REMARK  status: ('A' for Active; 'I' for Inactive)
REMARK    1  A    between atoms: C_1  and  C_2
REMARK    2  A    between atoms: C_2  and  N_3
REMARK    3  A    between atoms: N_3  and  C_4
REMARK    4  A    between atoms: C_4  and  C_5
REMARK    5  A    between atoms: C_6  and  C_8
REMARK    6  A    between atoms: C_8  and  N_9
REMARK    7  A    between atoms: N_9  and  C_10
REMARK    8  A    between atoms: C_11  and  C_13
REMARK    9  A    between atoms: C_13  and  C_14
REMARK                            x       y       z     vdW  Elec       q    Type
REMARK                         _______ _______ _______ _____ _____    ______ ____
ROOT
ATOM      1  N   UNL     1       4.722   4.952  17.100  0.00  0.00    +0.000 N 
ATOM      2  C   UNL     1       5.109   3.634  17.572  0.00  0.00    +0.000 C 
ATOM      3  C   UNL     1       5.535   5.733  16.287  0.00  0.00    +0.000 C 
ATOM      4  O   UNL     1       5.173   6.844  15.882  0.00  0.00    +0.000 OA
ENDROOT
BRANCH   1   5
ATOM      5  C   UNL     1       3.396   5.461  17.495  0.00  0.00    +0.000 C 
BRANCH   5   7
ATOM      6  N   UNL     1       1.964   4.543  19.369  0.00  0.00    +0.000 N 
ATOM      7  C   UNL     1       3.049   5.377  19.007  0.00  0.00    +0.000 C 
ATOM      8  O   UNL     1       3.697   6.003  19.851  0.00  0.00    +0.000 OA
BRANCH   6  10
ATOM      9  C   UNL     1       2.077   3.529  21.666  0.00  0.00    +0.000 C 
ATOM     10  C   UNL     1       1.497   4.606  20.762  0.00  0.00    +0.000 C 
ENDBRANCH   6  10
BRANCH   6  11
ATOM     11  C   UNL     1       1.216   3.779  18.358  0.00  0.00    +0.000 C 
ATOM     12  C   UNL     1       0.913   2.309  18.612  0.00  0.00    +0.000 C 
ENDBRANCH   6  11
ENDBRANCH   5   7
ENDBRANCH   1   5
BRANCH   3  13
ATOM     13  C   UNL     1       6.890   5.167  15.848  0.00  0.00    +0.000 C 
BRANCH  13  14
ATOM     14  C   UNL     1       6.926   4.777  14.387  0.00  0.00    +0.000 A 
ATOM     15  C   UNL     1       7.773   5.444  13.490  0.00  0.00    +0.000 A 
ATOM     16  C   UNL     1       7.792   5.111  12.134  0.00  0.00    +0.000 A 
ATOM     17  C   UNL     1       6.966   4.098  11.653  0.00  0.00    +0.000 A 
ATOM     18  C   UNL     1       6.137   3.420  12.542  0.00  0.00    +0.000 A 
ATOM     19  F   UNL     1       5.337   2.449  12.083  0.00  0.00    +0.000 F 
ATOM     20  C   UNL     1       6.118   3.740  13.895  0.00  0.00    +0.000 A 
ENDBRANCH  13  14
ENDBRANCH   3  13
TORSDOF 6
ENDMDL
MODEL 4
REMARK VINA RESULT:      -6.3      1.890      2.743
REMARK  Name = 
REMARK  9 active torsions:
REMARK  status: ('A' for Active; 'I' for Inactive)
REMARK    1  A    between atoms: C_1  and  C_2
REMARK    2  A    between atoms: C_2  and  N_3
REMARK    3  A    between atoms: N_3  and  C_4
REMARK    4  A    between atoms: C_4  and  C_5
REMARK    5  A    between atoms: C_6  and  C_8
REMARK    6  A    between atoms: C_8  and  N_9
REMARK    7  A    between atoms: N_9  and  C_10
REMARK    8  A    between atoms: C_11  and  C_13
REMARK    9  A    between atoms: C_13  and  C_14
REMARK                            x       y       z     vdW  Elec       q    Type
REMARK                         _______ _______ _______ _____ _____    ______ ____
ROOT
ATOM      1  N   UNL     1       5.598   5.849  18.071  0.00  0.00    +0.000 N 
ATOM      2  C   UNL     1       4.875   6.920  17.410  0.00  0.00    +0.000 C 
ATOM      3  C   UNL     1       6.742   5.266  17.536  0.00  0.00    +0.000 C 
ATOM      4  O   UNL     1       7.351   4.368  18.129  0.00  0.00    +0.000 OA
ENDROOT
BRANCH   1   5
ATOM      5  C   UNL     1       5.095   5.382  19.375  0.00  0.00    +0.000 C 
BRANCH   5   7
ATOM      6  N   UNL     1       3.052   3.893  19.260  0.00  0.00    +0.000 N 
ATOM      7  C   UNL     1       3.557   5.195  19.493  0.00  0.00    +0.000 C 
ATOM      8  O   UNL     1       2.816   6.137  19.784  0.00  0.00    +0.000 OA
BRANCH   6  10
ATOM      9  C   UNL     1       0.937   3.225  20.444  0.00  0.00    +0.000 C 
ATOM     10  C   UNL     1       1.592   3.740  19.170  0.00  0.00    +0.000 C 
ENDBRANCH   6  10
BRANCH   6  11
ATOM     11  C   UNL     1       3.948   2.770  18.942  0.00  0.00    +0.000 C 
ATOM     12  C   UNL     1       3.426   1.621  18.090  0.00  0.00    +0.000 C 
ENDBRANCH   6  11
ENDBRANCH   5   7
ENDBRANCH   1   5
BRANCH   3  13
ATOM     13  C   UNL     1       7.277   5.797  16.202  0.00  0.00    +0.000 C 
BRANCH  13  14
ATOM     14  C   UNL     1       6.776   5.018  15.007  0.00  0.00    +0.000 A 
ATOM     15  C   UNL     1       5.640   4.200  15.113  0.00  0.00    +0.000 A 
ATOM     16  C   UNL     1       5.187   3.453  14.024  0.00  0.00    +0.000 A 
ATOM     17  C   UNL     1       5.861   3.516  12.806  0.00  0.00    +0.000 A 
ATOM     18  C   UNL     1       6.976   4.339  12.690  0.00  0.00    +0.000 A 
ATOM     19  F   UNL     1       7.630   4.399  11.523  0.00  0.00    +0.000 F 
ATOM     20  C   UNL     1       7.430   5.093  13.767  0.00  0.00    +0.000 A 
ENDBRANCH  13  14
ENDBRANCH   3  13
TORSDOF 6
ENDMDL
MODEL 5
REMARK VINA RESULT:      -6.3      1.500      2.040
REMARK  Name = 
REMARK  9 active torsions:
REMARK  status: ('A' for Active; 'I' for Inactive)
REMARK    1  A    between atoms: C_1  and  C_2
REMARK    2  A    between atoms: C_2  and  N_3
REMARK    3  A    between atoms: N_3  and  C_4
REMARK    4  A    between atoms: C_4  and  C_5
REMARK    5  A    between atoms: C_6  and  C_8
REMARK    6  A    between atoms: C_8  and  N_9
REMARK    7  A    between atoms: N_9  and  C_10
REMARK    8  A    between atoms: C_11  and  C_13
REMARK    9  A    between atoms: C_13  and  C_14
REMARK                            x       y       z     vdW  Elec       q    Type
REMARK                         _______ _______ _______ _____ _____    ______ ____
ROOT
ATOM      1  N   UNL     1       4.372   5.429  17.074  0.00  0.00    +0.000 N 
ATOM      2  C   UNL     1       4.705   6.835  16.926  0.00  0.00    +0.000 C 
ATOM      3  C   UNL     1       5.245   4.404  16.726  0.00  0.00    +0.000 C 
ATOM      4  O   UNL     1       4.944   3.215  16.881  0.00  0.00    +0.000 OA
ENDROOT
BRANCH   1   5
ATOM      5  C   UNL     1       3.053   5.091  17.637  0.00  0.00    +0.000 C 
BRANCH   5   7
ATOM      6  N   UNL     1       2.538   3.918  19.819  0.00  0.00    +0.000 N 
ATOM      7  C   UNL     1       2.937   5.119  19.186  0.00  0.00    +0.000 C 
ATOM      8  O   UNL     1       3.192   6.139  19.831  0.00  0.00    +0.000 OA
BRANCH   6  10
ATOM      9  C   UNL     1       1.684   2.683  21.836  0.00  0.00    +0.000 C 
ATOM     10  C   UNL     1       2.231   3.980  21.257  0.00  0.00    +0.000 C 
ENDBRANCH   6  10
BRANCH   6  11
ATOM     11  C   UNL     1       2.264   2.697  19.043  0.00  0.00    +0.000 C 
ATOM     12  C   UNL     1       0.835   2.390  18.619  0.00  0.00    +0.000 C 
ENDBRANCH   6  11
ENDBRANCH   5   7
ENDBRANCH   1   5
BRANCH   3  13
ATOM     13  C   UNL     1       6.631   4.776  16.187  0.00  0.00    +0.000 C 
BRANCH  13  14
ATOM     14  C   UNL     1       6.760   4.581  14.693  0.00  0.00    +0.000 A 
ATOM     15  C   UNL     1       7.694   5.322  13.954  0.00  0.00    +0.000 A 
ATOM     16  C   UNL     1       7.799   5.171  12.569  0.00  0.00    +0.000 A 
ATOM     17  C   UNL     1       6.973   4.270  11.901  0.00  0.00    +0.000 A 
ATOM     18  C   UNL     1       6.057   3.520  12.632  0.00  0.00    +0.000 A 
ATOM     19  F   UNL     1       5.258   2.656  11.993  0.00  0.00    +0.000 F 
ATOM     20  C   UNL     1       5.951   3.657  14.011  0.00  0.00    +0.000 A 
ENDBRANCH  13  14
ENDBRANCH   3  13
TORSDOF 6
ENDMDL
MODEL 6
REMARK VINA RESULT:      -6.2      3.211      7.172
REMARK  Name = 
REMARK  9 active torsions:
REMARK  status: ('A' for Active; 'I' for Inactive)
REMARK    1  A    between atoms: C_1  and  C_2
REMARK    2  A    between atoms: C_2  and  N_3
REMARK    3  A    between atoms: N_3  and  C_4
REMARK    4  A    between atoms: C_4  and  C_5
REMARK    5  A    between atoms: C_6  and  C_8
REMARK    6  A    between atoms: C_8  and  N_9
REMARK    7  A    between atoms: N_9  and  C_10
REMARK    8  A    between atoms: C_11  and  C_13
REMARK    9  A    between atoms: C_13  and  C_14
REMARK                            x       y       z     vdW  Elec       q    Type
REMARK                         _______ _______ _______ _____ _____    ______ ____
ROOT
ATOM      1  N   UNL     1       5.766   5.696  18.089  0.00  0.00    +0.000 N 
ATOM      2  C   UNL     1       5.225   6.922  17.528  0.00  0.00    +0.000 C 
ATOM      3  C   UNL     1       5.168   5.019  19.146  0.00  0.00    +0.000 C 
ATOM      4  O   UNL     1       5.639   3.967  19.592  0.00  0.00    +0.000 OA
ENDROOT
BRANCH   1   5
ATOM      5  C   UNL     1       6.995   5.149  17.487  0.00  0.00    +0.000 C 
BRANCH   5   7
ATOM      6  N   UNL     1       6.544   4.442  15.099  0.00  0.00    +0.000 N 
ATOM      7  C   UNL     1       7.172   5.374  15.959  0.00  0.00    +0.000 C 
ATOM      8  O   UNL     1       7.823   6.326  15.521  0.00  0.00    +0.000 OA
BRANCH   6  10
ATOM      9  C   UNL     1       6.103   3.529  12.798  0.00  0.00    +0.000 C 
ATOM     10  C   UNL     1       6.864   4.522  13.665  0.00  0.00    +0.000 C 
ENDBRANCH   6  10
BRANCH   6  11
ATOM     11  C   UNL     1       5.745   3.327  15.631  0.00  0.00    +0.000 C 
ATOM     12  C   UNL     1       4.282   3.560  15.980  0.00  0.00    +0.000 C 
ENDBRANCH   6  11
ENDBRANCH   5   7
ENDBRANCH   1   5
BRANCH   3  13
ATOM     13  C   UNL     1       3.865   5.578  19.728  0.00  0.00    +0.000 C 
BRANCH  13  14
ATOM     14  C   UNL     1       2.750   4.558  19.776  0.00  0.00    +0.000 A 
ATOM     15  C   UNL     1       2.064   4.193  18.608  0.00  0.00    +0.000 A 
ATOM     16  C   UNL     1       1.012   3.274  18.647  0.00  0.00    +0.000 A 
ATOM     17  C   UNL     1       0.634   2.699  19.858  0.00  0.00    +0.000 A 
ATOM     18  C   UNL     1       1.323   3.043  21.017  0.00  0.00    +0.000 A 
ATOM     19  F   UNL     1       0.958   2.496  22.183  0.00  0.00    +0.000 F 
ATOM     20  C   UNL     1       2.376   3.951  20.986  0.00  0.00    +0.000 A 
ENDBRANCH  13  14
ENDBRANCH   3  13
TORSDOF 6
ENDMDL
MODEL 7
REMARK VINA RESULT:      -6.2      1.667      2.305
REMARK  Name = 
REMARK  9 active torsions:
REMARK  status: ('A' for Active; 'I' for Inactive)
REMARK    1  A    between atoms: C_1  and  C_2
REMARK    2  A    between atoms: C_2  and  N_3
REMARK    3  A    between atoms: N_3  and  C_4
REMARK    4  A    between atoms: C_4  and  C_5
REMARK    5  A    between atoms: C_6  and  C_8
REMARK    6  A    between atoms: C_8  and  N_9
REMARK    7  A    between atoms: N_9  and  C_10
REMARK    8  A    between atoms: C_11  and  C_13
REMARK    9  A    between atoms: C_13  and  C_14
REMARK                            x       y       z     vdW  Elec       q    Type
REMARK                         _______ _______ _______ _____ _____    ______ ____
ROOT
ATOM      1  N   UNL     1       4.513   4.624  17.133  0.00  0.00    +0.000 N 
ATOM      2  C   UNL     1       4.445   3.174  17.148  0.00  0.00    +0.000 C 
ATOM      3  C   UNL     1       5.622   5.325  16.672  0.00  0.00    +0.000 C 
ATOM      4  O   UNL     1       5.647   6.560  16.652  0.00  0.00    +0.000 OA
ENDROOT
BRANCH   1   5
ATOM      5  C   UNL     1       3.339   5.373  17.616  0.00  0.00    +0.000 C 
BRANCH   5   7
ATOM      6  N   UNL     1       1.928   4.415  19.485  0.00  0.00    +0.000 N 
ATOM      7  C   UNL     1       3.017   5.246  19.130  0.00  0.00    +0.000 C 
ATOM      8  O   UNL     1       3.687   5.837  19.981  0.00  0.00    +0.000 OA
BRANCH   6  10
ATOM      9  C   UNL     1       2.082   3.339  21.752  0.00  0.00    +0.000 C 
ATOM     10  C   UNL     1       1.485   4.440  20.888  0.00  0.00    +0.000 C 
ENDBRANCH   6  10
BRANCH   6  11
ATOM     11  C   UNL     1       1.153   3.691  18.464  0.00  0.00    +0.000 C 
ATOM     12  C   UNL     1       0.910   2.198  18.635  0.00  0.00    +0.000 C 
ENDBRANCH   6  11
ENDBRANCH   5   7
ENDBRANCH   1   5
BRANCH   3  13
ATOM     13  C   UNL     1       6.816   4.530  16.130  0.00  0.00    +0.000 C 
BRANCH  13  14
ATOM     14  C   UNL     1       6.879   4.508  14.619  0.00  0.00    +0.000 A 
ATOM     15  C   UNL     1       6.176   3.539  13.888  0.00  0.00    +0.000 A 
ATOM     16  C   UNL     1       6.253   3.492  12.494  0.00  0.00    +0.000 A 
ATOM     17  C   UNL     1       7.031   4.422  11.807  0.00  0.00    +0.000 A 
ATOM     18  C   UNL     1       7.716   5.396  12.526  0.00  0.00    +0.000 A 
ATOM     19  F   UNL     1       8.469   6.288  11.870  0.00  0.00    +0.000 F 
ATOM     20  C   UNL     1       7.639   5.455  13.913  0.00  0.00    +0.000 A 
ENDBRANCH  13  14
ENDBRANCH   3  13
TORSDOF 6
ENDMDL
MODEL 8
REMARK VINA RESULT:      -6.1      1.350      1.603
REMARK  Name = 
REMARK  9 active torsions:
REMARK  status: ('A' for Active; 'I' for Inactive)
REMARK    1  A    between atoms: C_1  and  C_2
REMARK    2  A    between atoms: C_2  and  N_3
REMARK    3  A    between atoms: N_3  and  C_4
REMARK    4  A    between atoms: C_4  and  C_5
REMARK    5  A    between atoms: C_6  and  C_8
REMARK    6  A    between atoms: C_8  and  N_9
REMARK    7  A    between atoms: N_9  and  C_10
REMARK    8  A    between atoms: C_11  and  C_13
REMARK    9  A    between atoms: C_13  and  C_14
REMARK                            x       y       z     vdW  Elec       q    Type
REMARK                         _______ _______ _______ _____ _____    ______ ____
ROOT
ATOM      1  N   UNL     1       4.750   4.428  17.633  0.00  0.00    +0.000 N 
ATOM      2  C   UNL     1       3.448   4.942  17.244  0.00  0.00    +0.000 C 
ATOM      3  C   UNL     1       5.920   4.736  16.949  0.00  0.00    +0.000 C 
ATOM      4  O   UNL     1       7.018   4.301  17.313  0.00  0.00    +0.000 OA
ENDROOT
BRANCH   1   5
ATOM      5  C   UNL     1       4.818   3.557  18.820  0.00  0.00    +0.000 C 
BRANCH   5   7
ATOM      6  N   UNL     1       2.614   3.327  20.042  0.00  0.00    +0.000 N 
ATOM      7  C   UNL     1       3.538   2.738  19.147  0.00  0.00    +0.000 C 
ATOM      8  O   UNL     1       3.338   1.631  18.641  0.00  0.00    +0.000 OA
BRANCH   6  10
ATOM      9  C   UNL     1       1.373   2.416  22.031  0.00  0.00    +0.000 C 
ATOM     10  C   UNL     1       1.502   2.488  20.516  0.00  0.00    +0.000 C 
ENDBRANCH   6  10
BRANCH   6  11
ATOM     11  C   UNL     1       2.849   4.661  20.618  0.00  0.00    +0.000 C 
ATOM     12  C   UNL     1       1.761   5.720  20.507  0.00  0.00    +0.000 C 
ENDBRANCH   6  11
ENDBRANCH   5   7
ENDBRANCH   1   5
BRANCH   3  13
ATOM     13  C   UNL     1       5.836   5.682  15.745  0.00  0.00    +0.000 C 
BRANCH  13  14
ATOM     14  C   UNL     1       6.273   5.036  14.450  0.00  0.00    +0.000 A 
ATOM     15  C   UNL     1       7.467   5.426  13.825  0.00  0.00    +0.000 A 
ATOM     16  C   UNL     1       7.864   4.858  12.612  0.00  0.00    +0.000 A 
ATOM     17  C   UNL     1       7.075   3.881  12.009  0.00  0.00    +0.000 A 
ATOM     18  C   UNL     1       5.899   3.477  12.634  0.00  0.00    +0.000 A 
ATOM     19  F   UNL     1       5.135   2.543  12.054  0.00  0.00    +0.000 F 
ATOM     20  C   UNL     1       5.501   4.033  13.844  0.00  0.00    +0.000 A 
ENDBRANCH  13  14
ENDBRANCH   3  13
TORSDOF 6
ENDMDL
MODEL 9
REMARK VINA RESULT:      -6.1      1.801      2.547
REMARK  Name = 
REMARK  9 active torsions:
REMARK  status: ('A' for Active; 'I' for Inactive)
REMARK    1  A    between atoms: C_1  and  C_2
REMARK    2  A    between atoms: C_2  and  N_3
REMARK    3  A    between atoms: N_3  and  C_4
REMARK    4  A    between atoms: C_4  and  C_5
REMARK    5  A    between atoms: C_6  and  C_8
REMARK    6  A    between atoms: C_8  and  N_9
REMARK    7  A    between atoms: N_9  and  C_10
REMARK    8  A    between atoms: C_11  and  C_13
REMARK    9  A    between atoms: C_13  and  C_14
REMARK                            x       y       z     vdW  Elec       q    Type
REMARK                         _______ _______ _______ _____ _____    ______ ____
ROOT
ATOM      1  N   UNL     1       4.284   5.541  17.169  0.00  0.00    +0.000 N 
ATOM      2  C   UNL     1       4.885   6.861  17.095  0.00  0.00    +0.000 C 
ATOM      3  C   UNL     1       4.976   4.376  16.859  0.00  0.00    +0.000 C 
ATOM      4  O   UNL     1       4.446   3.263  16.949  0.00  0.00    +0.000 OA
ENDROOT
BRANCH   1   5
ATOM      5  C   UNL     1       2.881   5.449  17.612  0.00  0.00    +0.000 C 
BRANCH   5   7
ATOM      6  N   UNL     1       2.123   4.125  19.630  0.00  0.00    +0.000 N 
ATOM      7  C   UNL     1       2.649   5.346  19.145  0.00  0.00    +0.000 C 
ATOM      8  O   UNL     1       2.920   6.283  19.900  0.00  0.00    +0.000 OA
BRANCH   6  10
ATOM      9  C   UNL     1       2.333   2.941  21.839  0.00  0.00    +0.000 C 
ATOM     10  C   UNL     1       1.711   4.079  21.042  0.00  0.00    +0.000 C 
ENDBRANCH   6  10
BRANCH   6  11
ATOM     11  C   UNL     1       1.830   3.003  18.724  0.00  0.00    +0.000 C 
ATOM     12  C   UNL     1       0.466   2.329  18.792  0.00  0.00    +0.000 C 
ENDBRANCH   6  11
ENDBRANCH   5   7
ENDBRANCH   1   5
BRANCH   3  13
ATOM     13  C   UNL     1       6.448   4.488  16.445  0.00  0.00    +0.000 C 
BRANCH  13  14
ATOM     14  C   UNL     1       6.647   4.471  14.947  0.00  0.00    +0.000 A 
ATOM     15  C   UNL     1       5.879   3.626  14.132  0.00  0.00    +0.000 A 
ATOM     16  C   UNL     1       6.077   3.581  12.751  0.00  0.00    +0.000 A 
ATOM     17  C   UNL     1       7.045   4.389  12.159  0.00  0.00    +0.000 A 
ATOM     18  C   UNL     1       7.798   5.243  12.959  0.00  0.00    +0.000 A 
ATOM     19  F   UNL     1       8.733   6.017  12.394  0.00  0.00    +0.000 F 
ATOM     20  C   UNL     1       7.602   5.299  14.334  0.00  0.00    +0.000 A 
ENDBRANCH  13  14
ENDBRANCH   3  13
TORSDOF 6
ENDMDL
