MODEL 1
REMARK VINA RESULT:      -7.8      0.000      0.000
REMARK  Name = 
REMARK  6 active torsions:
REMARK  status: ('A' for Active; 'I' for Inactive)
REMARK    1  A    between atoms: C_1  and  N_2
REMARK    2  A    between atoms: N_2  and  C_3
REMARK    3  A    between atoms: C_3  and  C_4
REMARK    4  A    between atoms: C_8  and  C_9
REMARK    5  A    between atoms: C_21  and  C_23
REMARK    6  A    between atoms: C_23  and  N_24
REMARK                            x       y       z     vdW  Elec       q    Type
REMARK                         _______ _______ _______ _____ _____    ______ ____
ROOT
ATOM      1  C   UNL     1       4.525   4.670  17.704  0.00  0.00    +0.000 A 
ATOM      2  C   UNL     1       3.620   3.646  17.404  0.00  0.00    +0.000 A 
ATOM      3  C   UNL     1       2.251   3.850  17.572  0.00  0.00    +0.000 A 
ATOM      4  C   UNL     1       1.775   5.080  18.028  0.00  0.00    +0.000 A 
ATOM      5  C   UNL     1       2.654   6.144  18.306  0.00  0.00    +0.000 A 
ATOM      6  C   UNL     1       4.031   5.906  18.146  0.00  0.00    +0.000 A 
ENDROOT
BRANCH   5   7
ATOM      7  C   UNL     1       2.160   7.467  18.723  0.00  0.00    +0.000 A 
ATOM      8  C   UNL     1       1.971   8.521  17.849  0.00  0.00    +0.000 A 
ATOM      9  N   UNL     1       1.450   9.716  18.188  0.00  0.00    +0.000 NA
ATOM     10  C   UNL     1       1.107   9.906  19.470  0.00  0.00    +0.000 A 
ATOM     11  N   UNL     1       0.578  11.099  19.829  0.00  0.00    +0.000 N 
ATOM     12  C   UNL     1       0.309  12.169  18.899  0.00  0.00    +0.000 C 
ATOM     13  C   UNL     1       0.408  13.403  19.786  0.00  0.00    +0.000 C 
ATOM     14  C   UNL     1      -0.116  12.921  21.135  0.00  0.00    +0.000 C 
ATOM     15  C   UNL     1       0.285  11.444  21.203  0.00  0.00    +0.000 C 
ATOM     16  N   UNL     1       1.276   8.962  20.405  0.00  0.00    +0.000 NA
ATOM     17  C   UNL     1       1.783   7.774  20.015  0.00  0.00    +0.000 A 
ENDBRANCH   5   7
BRANCH   1  18
ATOM     18  C   UNL     1       6.010   4.461  17.560  0.00  0.00    +0.000 C 
BRANCH  18  20
ATOM     19  C   UNL     1       7.452   6.514  17.115  0.00  0.00    +0.000 C 
ATOM     20  N   UNL     1       6.735   5.340  16.635  0.00  0.00    +0.000 N 
ATOM     21  C   UNL     1       7.009   4.943  15.324  0.00  0.00    +0.000 C 
ATOM     22  O   UNL     1       7.792   5.562  14.601  0.00  0.00    +0.000 OA
BRANCH  21  23
ATOM     23  C   UNL     1       6.329   3.674  14.784  0.00  0.00    +0.000 C 
BRANCH  23  24
ATOM     24  N   UNL     1       6.309   3.691  13.315  0.00  0.00    +0.000 NA
ATOM     25  H   UNL     1       6.200   4.663  13.014  0.00  0.00    +0.000 HD
ATOM     26  H   UNL     1       5.467   3.216  12.995  0.00  0.00    +0.000 HD
ENDBRANCH  23  24
ENDBRANCH  21  23
ENDBRANCH  18  20
ENDBRANCH   1  18
TORSDOF 5
ENDMDL
MODEL 2
REMARK VINA RESULT:      -7.7      1.648      2.741
REMARK  Name = 
REMARK  6 active torsions:
REMARK  status: ('A' for Active; 'I' for Inactive)
REMARK    1  A    between atoms: C_1  and  N_2
REMARK    2  A    between atoms: N_2  and  C_3
REMARK    3  A    between atoms: C_3  and  C_4
REMARK    4  A    between atoms: C_8  and  C_9
REMARK    5  A    between atoms: C_21  and  C_23
REMARK    6  A    between atoms: C_23  and  N_24
REMARK                            x       y       z     vdW  Elec       q    Type
REMARK                         _______ _______ _______ _____ _____    ______ ____
ROOT
ATOM      1  C   UNL     1       4.225   5.739  17.385  0.00  0.00    +0.000 A 
ATOM      2  C   UNL     1       3.681   4.450  17.377  0.00  0.00    +0.000 A 
ATOM      3  C   UNL     1       2.527   4.172  18.108  0.00  0.00    +0.000 A 
ATOM      4  C   UNL     1       1.902   5.180  18.843  0.00  0.00    +0.000 A 
ATOM      5  C   UNL     1       2.401   6.496  18.846  0.00  0.00    +0.000 A 
ATOM      6  C   UNL     1       3.575   6.746  18.115  0.00  0.00    +0.000 A 
ENDROOT
BRANCH   5   7
ATOM      7  C   UNL     1       1.712   7.583  19.563  0.00  0.00    +0.000 A 
ATOM      8  C   UNL     1       1.148   7.433  20.816  0.00  0.00    +0.000 A 
ATOM      9  N   UNL     1       0.580   8.427  21.526  0.00  0.00    +0.000 NA
ATOM     10  C   UNL     1       0.542   9.647  20.972  0.00  0.00    +0.000 A 
ATOM     11  N   UNL     1      -0.021  10.659  21.672  0.00  0.00    +0.000 N 
ATOM     12  C   UNL     1      -0.538  10.516  23.012  0.00  0.00    +0.000 C 
ATOM     13  C   UNL     1      -1.603  11.604  23.067  0.00  0.00    +0.000 C 
ATOM     14  C   UNL     1      -1.031  12.713  22.189  0.00  0.00    +0.000 C 
ATOM     15  C   UNL     1      -0.216  11.982  21.119  0.00  0.00    +0.000 C 
ATOM     16  N   UNL     1       1.034   9.895  19.751  0.00  0.00    +0.000 NA
ATOM     17  C   UNL     1       1.610   8.874  19.085  0.00  0.00    +0.000 A 
ENDBRANCH   5   7
BRANCH   1  18
ATOM     18  C   UNL     1       5.488   6.055  16.627  0.00  0.00    +0.000 C 
BRANCH  18  20
ATOM     19  C   UNL     1       6.808   4.301  15.332  0.00  0.00    +0.000 C 
ATOM     20  N   UNL     1       6.525   5.018  16.568  0.00  0.00    +0.000 N 
ATOM     21  C   UNL     1       7.464   4.876  17.592  0.00  0.00    +0.000 C 
ATOM     22  O   UNL     1       8.465   4.165  17.471  0.00  0.00    +0.000 OA
BRANCH  21  23
ATOM     23  C   UNL     1       7.251   5.660  18.898  0.00  0.00    +0.000 C 
BRANCH  23  24
ATOM     24  N   UNL     1       8.293   5.316  19.876  0.00  0.00    +0.000 NA
ATOM     25  H   UNL     1       8.338   4.295  19.940  0.00  0.00    +0.000 HD
ATOM     26  H   UNL     1       7.991   5.629  20.797  0.00  0.00    +0.000 HD
ENDBRANCH  23  24
ENDBRANCH  21  23
ENDBRANCH  18  20
ENDBRANCH   1  18
TORSDOF 5
ENDMDL
MODEL 3
REMARK VINA RESULT:      -7.7      2.812      3.942
REMARK  Name = 
REMARK  6 active torsions:
REMARK  status: ('A' for Active; 'I' for Inactive)
REMARK    1  A    between atoms: C_1  and  N_2
REMARK    2  A    between atoms: N_2  and  C_3
REMARK    3  A    between atoms: C_3  and  C_4
REMARK    4  A    between atoms: C_8  and  C_9
REMARK    5  A    between atoms: C_21  and  C_23
REMARK    6  A    between atoms: C_23  and  N_24
REMARK                            x       y       z     vdW  Elec       q    Type
REMARK                         _______ _______ _______ _____ _____    ______ ____
ROOT
ATOM      1  C   UNL     1       3.907   4.187  17.413  0.00  0.00    +0.000 A 
ATOM      2  C   UNL     1       4.935   4.555  16.539  0.00  0.00    +0.000 A 
ATOM      3  C   UNL     1       5.169   5.901  16.259  0.00  0.00    +0.000 A 
ATOM      4  C   UNL     1       4.387   6.889  16.859  0.00  0.00    +0.000 A 
ATOM      5  C   UNL     1       3.367   6.557  17.770  0.00  0.00    +0.000 A 
ATOM      6  C   UNL     1       3.140   5.193  18.021  0.00  0.00    +0.000 A 
ENDROOT
BRANCH   5   7
ATOM      7  C   UNL     1       2.579   7.593  18.461  0.00  0.00    +0.000 A 
ATOM      8  C   UNL     1       2.123   8.742  17.843  0.00  0.00    +0.000 A 
ATOM      9  N   UNL     1       1.338   9.668  18.427  0.00  0.00    +0.000 NA
ATOM     10  C   UNL     1       0.988   9.471  19.706  0.00  0.00    +0.000 A 
ATOM     11  N   UNL     1       0.197  10.389  20.309  0.00  0.00    +0.000 N 
ATOM     12  C   UNL     1      -0.342  11.547  19.638  0.00  0.00    +0.000 C 
ATOM     13  C   UNL     1      -0.524  12.533  20.786  0.00  0.00    +0.000 C 
ATOM     14  C   UNL     1      -0.885  11.644  21.971  0.00  0.00    +0.000 C 
ATOM     15  C   UNL     1      -0.140  10.331  21.715  0.00  0.00    +0.000 C 
ATOM     16  N   UNL     1       1.400   8.407  20.407  0.00  0.00    +0.000 NA
ATOM     17  C   UNL     1       2.169   7.497  19.774  0.00  0.00    +0.000 A 
ENDBRANCH   5   7
BRANCH   1  18
ATOM     18  C   UNL     1       3.617   2.738  17.706  0.00  0.00    +0.000 C 
BRANCH  18  20
ATOM     19  C   UNL     1       4.610   2.307  20.013  0.00  0.00    +0.000 C 
ATOM     20  N   UNL     1       3.466   2.344  19.111  0.00  0.00    +0.000 N 
ATOM     21  C   UNL     1       2.206   2.268  19.710  0.00  0.00    +0.000 C 
ATOM     22  O   UNL     1       2.065   2.151  20.929  0.00  0.00    +0.000 OA
BRANCH  21  23
ATOM     23  C   UNL     1       0.960   2.366  18.814  0.00  0.00    +0.000 C 
BRANCH  23  24
ATOM     24  N   UNL     1      -0.136   3.029  19.534  0.00  0.00    +0.000 NA
ATOM     25  H   UNL     1       0.268   3.518  20.338  0.00  0.00    +0.000 HD
ATOM     26  H   UNL     1      -0.744   2.315  19.932  0.00  0.00    +0.000 HD
ENDBRANCH  23  24
ENDBRANCH  21  23
ENDBRANCH  18  20
ENDBRANCH   1  18
TORSDOF 5
ENDMDL
MODEL 4
REMARK VINA RESULT:      -7.7      0.209      1.273
REMARK  Name = 
REMARK  6 active torsions:
REMARK  status: ('A' for Active; 'I' for Inactive)
REMARK    1  A    between atoms: C_1  and  N_2
REMARK    2  A    between atoms: N_2  and  C_3
REMARK    3  A    between atoms: C_3  and  C_4
REMARK    4  A    between atoms: C_8  and  C_9
REMARK    5  A    between atoms: C_21  and  C_23
REMARK    6  A    between atoms: C_23  and  N_24
REMARK                            x       y       z     vdW  Elec       q    Type
REMARK                         _______ _______ _______ _____ _____    ______ ____
ROOT
ATOM      1  C   UNL     1       4.510   4.733  17.768  0.00  0.00    +0.000 A 
ATOM      2  C   UNL     1       3.632   3.673  17.517  0.00  0.00    +0.000 A 
ATOM      3  C   UNL     1       2.259   3.848  17.679  0.00  0.00    +0.000 A 
ATOM      4  C   UNL     1       1.751   5.085  18.080  0.00  0.00    +0.000 A 
ATOM      5  C   UNL     1       2.601   6.183  18.306  0.00  0.00    +0.000 A 
ATOM      6  C   UNL     1       3.984   5.975  18.153  0.00  0.00    +0.000 A 
ENDROOT
BRANCH   5   7
ATOM      7  C   UNL     1       2.073   7.511  18.664  0.00  0.00    +0.000 A 
ATOM      8  C   UNL     1       1.687   7.858  19.945  0.00  0.00    +0.000 A 
ATOM      9  N   UNL     1       1.273   9.085  20.316  0.00  0.00    +0.000 NA
ATOM     10  C   UNL     1       1.212  10.034  19.372  0.00  0.00    +0.000 A 
ATOM     11  N   UNL     1       0.802  11.275  19.727  0.00  0.00    +0.000 N 
ATOM     12  C   UNL     1       0.475  11.654  21.081  0.00  0.00    +0.000 C 
ATOM     13  C   UNL     1      -0.520  12.788  20.869  0.00  0.00    +0.000 C 
ATOM     14  C   UNL     1      -0.029  13.465  19.593  0.00  0.00    +0.000 C 
ATOM     15  C   UNL     1       0.590  12.335  18.765  0.00  0.00    +0.000 C 
ATOM     16  N   UNL     1       1.535   9.797  18.094  0.00  0.00    +0.000 NA
ATOM     17  C   UNL     1       1.962   8.559  17.774  0.00  0.00    +0.000 A 
ENDBRANCH   5   7
BRANCH   1  18
ATOM     18  C   UNL     1       6.000   4.558  17.629  0.00  0.00    +0.000 C 
BRANCH  18  20
ATOM     19  C   UNL     1       7.420   6.613  17.124  0.00  0.00    +0.000 C 
ATOM     20  N   UNL     1       6.703   5.426  16.677  0.00  0.00    +0.000 N 
ATOM     21  C   UNL     1       6.957   5.009  15.368  0.00  0.00    +0.000 C 
ATOM     22  O   UNL     1       7.723   5.620  14.621  0.00  0.00    +0.000 OA
BRANCH  21  23
ATOM     23  C   UNL     1       6.277   3.726  14.862  0.00  0.00    +0.000 C 
BRANCH  23  24
ATOM     24  N   UNL     1       6.390   3.630  13.400  0.00  0.00    +0.000 NA
ATOM     25  H   UNL     1       5.688   2.958  13.075  0.00  0.00    +0.000 HD
ATOM     26  H   UNL     1       7.289   3.212  13.169  0.00  0.00    +0.000 HD
ENDBRANCH  23  24
ENDBRANCH  21  23
ENDBRANCH  18  20
ENDBRANCH   1  18
TORSDOF 5
ENDMDL
MODEL 5
REMARK VINA RESULT:      -7.7      1.669      2.566
REMARK  Name = 
REMARK  6 active torsions:
REMARK  status: ('A' for Active; 'I' for Inactive)
REMARK    1  A    between atoms: C_1  and  N_2
REMARK    2  A    between atoms: N_2  and  C_3
REMARK    3  A    between atoms: C_3  and  C_4
REMARK    4  A    between atoms: C_8  and  C_9
REMARK    5  A    between atoms: C_21  and  C_23
REMARK    6  A    between atoms: C_23  and  N_24
REMARK                            x       y       z     vdW  Elec       q    Type
REMARK                         _______ _______ _______ _____ _____    ______ ____
ROOT
ATOM      1  C   UNL     1       3.949   5.755  18.107  0.00  0.00    +0.000 A 
ATOM      2  C   UNL     1       3.628   4.484  18.594  0.00  0.00    +0.000 A 
ATOM      3  C   UNL     1       2.693   4.342  19.618  0.00  0.00    +0.000 A 
ATOM      4  C   UNL     1       2.064   5.466  20.156  0.00  0.00    +0.000 A 
ATOM      5  C   UNL     1       2.337   6.757  19.667  0.00  0.00    +0.000 A 
ATOM      6  C   UNL     1       3.296   6.874  18.645  0.00  0.00    +0.000 A 
ENDROOT
BRANCH   5   7
ATOM      7  C   UNL     1       1.631   7.944  20.179  0.00  0.00    +0.000 A 
ATOM      8  C   UNL     1       1.373   9.066  19.415  0.00  0.00    +0.000 A 
ATOM      9  N   UNL     1       0.664  10.133  19.832  0.00  0.00    +0.000 NA
ATOM     10  C   UNL     1       0.191  10.115  21.086  0.00  0.00    +0.000 A 
ATOM     11  N   UNL     1      -0.527  11.177  21.523  0.00  0.00    +0.000 N 
ATOM     12  C   UNL     1      -0.861  12.312  20.696  0.00  0.00    +0.000 C 
ATOM     13  C   UNL     1      -1.011  13.428  21.723  0.00  0.00    +0.000 C 
ATOM     14  C   UNL     1      -1.575  12.717  22.949  0.00  0.00    +0.000 C 
ATOM     15  C   UNL     1      -0.980  11.307  22.890  0.00  0.00    +0.000 C 
ATOM     16  N   UNL     1       0.409   9.090  21.920  0.00  0.00    +0.000 NA
ATOM     17  C   UNL     1       1.107   8.036  21.452  0.00  0.00    +0.000 A 
ENDBRANCH   5   7
BRANCH   1  18
ATOM     18  C   UNL     1       4.978   5.934  17.021  0.00  0.00    +0.000 C 
BRANCH  18  20
ATOM     19  C   UNL     1       5.866   3.872  15.816  0.00  0.00    +0.000 C 
ATOM     20  N   UNL     1       5.988   4.882  16.859  0.00  0.00    +0.000 N 
ATOM     21  C   UNL     1       7.230   4.967  17.492  0.00  0.00    +0.000 C 
ATOM     22  O   UNL     1       8.165   4.216  17.207  0.00  0.00    +0.000 OA
BRANCH  21  23
ATOM     23  C   UNL     1       7.437   6.056  18.558  0.00  0.00    +0.000 C 
BRANCH  23  24
ATOM     24  N   UNL     1       8.048   5.481  19.765  0.00  0.00    +0.000 NA
ATOM     25  H   UNL     1       8.530   4.620  19.491  0.00  0.00    +0.000 HD
ATOM     26  H   UNL     1       7.305   5.183  20.395  0.00  0.00    +0.000 HD
ENDBRANCH  23  24
ENDBRANCH  21  23
ENDBRANCH  18  20
ENDBRANCH   1  18
TORSDOF 5
ENDMDL
MODEL 6
REMARK VINA RESULT:      -7.7      2.821      4.143
REMARK  Name = 
REMARK  6 active torsions:
REMARK  status: ('A' for Active; 'I' for Inactive)
REMARK    1  A    between atoms: C_1  and  N_2
REMARK    2  A    between atoms: N_2  and  C_3
REMARK    3  A    between atoms: C_3  and  C_4
REMARK    4  A    between atoms: C_8  and  C_9
REMARK    5  A    between atoms: C_21  and  C_23
REMARK    6  A    between atoms: C_23  and  N_24
REMARK                            x       y       z     vdW  Elec       q    Type
REMARK                         _______ _______ _______ _____ _____    ______ ____
ROOT
ATOM      1  C   UNL     1       3.950   4.106  17.456  0.00  0.00    +0.000 A 
ATOM      2  C   UNL     1       5.006   4.453  16.607  0.00  0.00    +0.000 A 
ATOM      3  C   UNL     1       5.246   5.792  16.298  0.00  0.00    +0.000 A 
ATOM      4  C   UNL     1       4.441   6.793  16.844  0.00  0.00    +0.000 A 
ATOM      5  C   UNL     1       3.392   6.483  17.729  0.00  0.00    +0.000 A 
ATOM      6  C   UNL     1       3.160   5.125  18.010  0.00  0.00    +0.000 A 
ENDROOT
BRANCH   5   7
ATOM      7  C   UNL     1       2.579   7.534  18.364  0.00  0.00    +0.000 A 
ATOM      8  C   UNL     1       2.171   7.490  19.684  0.00  0.00    +0.000 A 
ATOM      9  N   UNL     1       1.493   8.470  20.311  0.00  0.00    +0.000 NA
ATOM     10  C   UNL     1       1.173   9.561  19.600  0.00  0.00    +0.000 A 
ATOM     11  N   UNL     1       0.495  10.558  20.215  0.00  0.00    +0.000 N 
ATOM     12  C   UNL     1       0.140  10.543  21.614  0.00  0.00    +0.000 C 
ATOM     13  C   UNL     1      -1.102  11.424  21.644  0.00  0.00    +0.000 C 
ATOM     14  C   UNL     1      -0.835  12.461  20.557  0.00  0.00    +0.000 C 
ATOM     15  C   UNL     1       0.001  11.721  19.509  0.00  0.00    +0.000 C 
ATOM     16  N   UNL     1       1.493   9.693  18.307  0.00  0.00    +0.000 NA
ATOM     17  C   UNL     1       2.188   8.694  17.726  0.00  0.00    +0.000 A 
ENDBRANCH   5   7
BRANCH   1  18
ATOM     18  C   UNL     1       3.654   2.664  17.779  0.00  0.00    +0.000 C 
BRANCH  18  20
ATOM     19  C   UNL     1       4.598   2.277  20.114  0.00  0.00    +0.000 C 
ATOM     20  N   UNL     1       3.472   2.305  19.190  0.00  0.00    +0.000 N 
ATOM     21  C   UNL     1       2.200   2.258  19.766  0.00  0.00    +0.000 C 
ATOM     22  O   UNL     1       2.035   2.172  20.985  0.00  0.00    +0.000 OA
BRANCH  21  23
ATOM     23  C   UNL     1       0.973   2.349  18.844  0.00  0.00    +0.000 C 
BRANCH  23  24
ATOM     24  N   UNL     1      -0.137   3.020  19.536  0.00  0.00    +0.000 NA
ATOM     25  H   UNL     1       0.041   4.028  19.508  0.00  0.00    +0.000 HD
ATOM     26  H   UNL     1      -0.106   2.769  20.522  0.00  0.00    +0.000 HD
ENDBRANCH  23  24
ENDBRANCH  21  23
ENDBRANCH  18  20
ENDBRANCH   1  18
TORSDOF 5
ENDMDL
MODEL 7
REMARK VINA RESULT:      -7.6      1.450      2.237
REMARK  Name = 
REMARK  6 active torsions:
REMARK  status: ('A' for Active; 'I' for Inactive)
REMARK    1  A    between atoms: C_1  and  N_2
REMARK    2  A    between atoms: N_2  and  C_3
REMARK    3  A    between atoms: C_3  and  C_4
REMARK    4  A    between atoms: C_8  and  C_9
REMARK    5  A    between atoms: C_21  and  C_23
REMARK    6  A    between atoms: C_23  and  N_24
REMARK                            x       y       z     vdW  Elec       q    Type
REMARK                         _______ _______ _______ _____ _____    ______ ____
ROOT
ATOM      1  C   UNL     1       4.031   6.316  17.600  0.00  0.00    +0.000 A 
ATOM      2  C   UNL     1       3.977   5.010  18.099  0.00  0.00    +0.000 A 
ATOM      3  C   UNL     1       3.186   4.716  19.208  0.00  0.00    +0.000 A 
ATOM      4  C   UNL     1       2.433   5.719  19.820  0.00  0.00    +0.000 A 
ATOM      5  C   UNL     1       2.435   7.037  19.323  0.00  0.00    +0.000 A 
ATOM      6  C   UNL     1       3.256   7.310  18.214  0.00  0.00    +0.000 A 
ENDROOT
BRANCH   5   7
ATOM      7  C   UNL     1       1.594   8.089  19.918  0.00  0.00    +0.000 A 
ATOM      8  C   UNL     1       1.084   8.024  21.201  0.00  0.00    +0.000 A 
ATOM      9  N   UNL     1       0.377   9.003  21.796  0.00  0.00    +0.000 NA
ATOM     10  C   UNL     1       0.133  10.115  21.089  0.00  0.00    +0.000 A 
ATOM     11  N   UNL     1      -0.573  11.112  21.673  0.00  0.00    +0.000 N 
ATOM     12  C   UNL     1      -1.036  11.072  23.039  0.00  0.00    +0.000 C 
ATOM     13  C   UNL     1      -2.261  11.978  22.993  0.00  0.00    +0.000 C 
ATOM     14  C   UNL     1      -1.891  13.033  21.956  0.00  0.00    +0.000 C 
ATOM     15  C   UNL     1      -0.989  12.300  20.959  0.00  0.00    +0.000 C 
ATOM     16  N   UNL     1       0.556  10.270  19.828  0.00  0.00    +0.000 NA
ATOM     17  C   UNL     1       1.276   9.271  19.280  0.00  0.00    +0.000 A 
ENDBRANCH   5   7
BRANCH   1  18
ATOM     18  C   UNL     1       4.903   6.662  16.421  0.00  0.00    +0.000 C 
BRANCH  18  20
ATOM     19  C   UNL     1       7.250   6.798  17.404  0.00  0.00    +0.000 C 
ATOM     20  N   UNL     1       6.303   6.224  16.457  0.00  0.00    +0.000 N 
ATOM     21  C   UNL     1       6.715   5.062  15.801  0.00  0.00    +0.000 C 
ATOM     22  O   UNL     1       7.825   4.559  15.990  0.00  0.00    +0.000 OA
BRANCH  21  23
ATOM     23  C   UNL     1       5.732   4.376  14.837  0.00  0.00    +0.000 C 
BRANCH  23  24
ATOM     24  N   UNL     1       6.465   3.586  13.837  0.00  0.00    +0.000 NA
ATOM     25  H   UNL     1       6.028   2.662  13.787  0.00  0.00    +0.000 HD
ATOM     26  H   UNL     1       7.409   3.419  14.182  0.00  0.00    +0.000 HD
ENDBRANCH  23  24
ENDBRANCH  21  23
ENDBRANCH  18  20
ENDBRANCH   1  18
TORSDOF 5
ENDMDL
MODEL 8
REMARK VINA RESULT:      -7.6      1.444      1.809
REMARK  Name = 
REMARK  6 active torsions:
REMARK  status: ('A' for Active; 'I' for Inactive)
REMARK    1  A    between atoms: C_1  and  N_2
REMARK    2  A    between atoms: N_2  and  C_3
REMARK    3  A    between atoms: C_3  and  C_4
REMARK    4  A    between atoms: C_8  and  C_9
REMARK    5  A    between atoms: C_21  and  C_23
REMARK    6  A    between atoms: C_23  and  N_24
REMARK                            x       y       z     vdW  Elec       q    Type
REMARK                         _______ _______ _______ _____ _____    ______ ____
ROOT
ATOM      1  C   UNL     1       3.922   6.036  17.793  0.00  0.00    +0.000 A 
ATOM      2  C   UNL     1       3.806   4.764  18.362  0.00  0.00    +0.000 A 
ATOM      3  C   UNL     1       3.028   4.576  19.504  0.00  0.00    +0.000 A 
ATOM      4  C   UNL     1       2.351   5.653  20.078  0.00  0.00    +0.000 A 
ATOM      5  C   UNL     1       2.417   6.940  19.511  0.00  0.00    +0.000 A 
ATOM      6  C   UNL     1       3.223   7.106  18.371  0.00  0.00    +0.000 A 
ENDROOT
BRANCH   5   7
ATOM      7  C   UNL     1       1.655   8.071  20.068  0.00  0.00    +0.000 A 
ATOM      8  C   UNL     1       1.309   9.192  19.336  0.00  0.00    +0.000 A 
ATOM      9  N   UNL     1       0.549  10.204  19.795  0.00  0.00    +0.000 NA
ATOM     10  C   UNL     1       0.111  10.131  21.060  0.00  0.00    +0.000 A 
ATOM     11  N   UNL     1      -0.658  11.137  21.538  0.00  0.00    +0.000 N 
ATOM     12  C   UNL     1      -1.082  12.267  20.747  0.00  0.00    +0.000 C 
ATOM     13  C   UNL     1      -1.272  13.350  21.801  0.00  0.00    +0.000 C 
ATOM     14  C   UNL     1      -1.759  12.581  23.025  0.00  0.00    +0.000 C 
ATOM     15  C   UNL     1      -1.082  11.211  22.919  0.00  0.00    +0.000 C 
ATOM     16  N   UNL     1       0.412   9.104  21.865  0.00  0.00    +0.000 NA
ATOM     17  C   UNL     1       1.160   8.104  21.355  0.00  0.00    +0.000 A 
ENDBRANCH   5   7
BRANCH   1  18
ATOM     18  C   UNL     1       4.782   6.268  16.577  0.00  0.00    +0.000 C 
BRANCH  18  20
ATOM     19  C   UNL     1       7.074   6.850  17.524  0.00  0.00    +0.000 C 
ATOM     20  N   UNL     1       6.220   6.005  16.699  0.00  0.00    +0.000 N 
ATOM     21  C   UNL     1       6.773   4.795  16.276  0.00  0.00    +0.000 C 
ATOM     22  O   UNL     1       7.927   4.466  16.559  0.00  0.00    +0.000 OA
BRANCH  21  23
ATOM     23  C   UNL     1       5.897   3.835  15.455  0.00  0.00    +0.000 C 
BRANCH  23  24
ATOM     24  N   UNL     1       6.439   3.681  14.097  0.00  0.00    +0.000 NA
ATOM     25  H   UNL     1       5.778   3.116  13.558  0.00  0.00    +0.000 HD
ATOM     26  H   UNL     1       7.290   3.124  14.148  0.00  0.00    +0.000 HD
ENDBRANCH  23  24
ENDBRANCH  21  23
ENDBRANCH  18  20
ENDBRANCH   1  18
TORSDOF 5
ENDMDL
MODEL 9
REMARK VINA RESULT:      -7.6      2.961      3.943
REMARK  Name = 
REMARK  6 active torsions:
REMARK  status: ('A' for Active; 'I' for Inactive)
REMARK    1  A    between atoms: C_1  and  N_2
REMARK    2  A    between atoms: N_2  and  C_3
REMARK    3  A    between atoms: C_3  and  C_4
REMARK    4  A    between atoms: C_8  and  C_9
REMARK    5  A    between atoms: C_21  and  C_23
REMARK    6  A    between atoms: C_23  and  N_24
REMARK                            x       y       z     vdW  Elec       q    Type
REMARK                         _______ _______ _______ _____ _____    ______ ____
ROOT
ATOM      1  C   UNL     1       3.318   4.668  17.534  0.00  0.00    +0.000 A 
ATOM      2  C   UNL     1       4.453   5.034  16.803  0.00  0.00    +0.000 A 
ATOM      3  C   UNL     1       4.812   6.376  16.691  0.00  0.00    +0.000 A 
ATOM      4  C   UNL     1       4.048   7.361  17.319  0.00  0.00    +0.000 A 
ATOM      5  C   UNL     1       2.921   7.027  18.092  0.00  0.00    +0.000 A 
ATOM      6  C   UNL     1       2.570   5.668  18.173  0.00  0.00    +0.000 A 
ENDROOT
BRANCH   5   7
ATOM      7  C   UNL     1       2.146   8.051  18.814  0.00  0.00    +0.000 A 
ATOM      8  C   UNL     1       1.585   9.156  18.201  0.00  0.00    +0.000 A 
ATOM      9  N   UNL     1       0.810  10.066  18.821  0.00  0.00    +0.000 NA
ATOM     10  C   UNL     1       0.578   9.900  20.130  0.00  0.00    +0.000 A 
ATOM     11  N   UNL     1      -0.202  10.802  20.770  0.00  0.00    +0.000 N 
ATOM     12  C   UNL     1      -0.850  11.911  20.110  0.00  0.00    +0.000 C 
ATOM     13  C   UNL     1      -0.981  12.928  21.237  0.00  0.00    +0.000 C 
ATOM     14  C   UNL     1      -1.199  12.067  22.477  0.00  0.00    +0.000 C 
ATOM     15  C   UNL     1      -0.417  10.780  22.200  0.00  0.00    +0.000 C 
ATOM     16  N   UNL     1       1.097   8.880  20.827  0.00  0.00    +0.000 NA
ATOM     17  C   UNL     1       1.852   7.984  20.160  0.00  0.00    +0.000 A 
ENDBRANCH   5   7
BRANCH   1  18
ATOM     18  C   UNL     1       2.895   3.226  17.642  0.00  0.00    +0.000 C 
BRANCH  18  20
ATOM     19  C   UNL     1       0.713   2.467  18.718  0.00  0.00    +0.000 C 
ATOM     20  N   UNL     1       2.120   2.830  18.824  0.00  0.00    +0.000 N 
ATOM     21  C   UNL     1       2.750   2.509  20.028  0.00  0.00    +0.000 C 
ATOM     22  O   UNL     1       2.149   1.972  20.961  0.00  0.00    +0.000 OA
BRANCH  21  23
ATOM     23  C   UNL     1       4.251   2.811  20.175  0.00  0.00    +0.000 C 
BRANCH  23  24
ATOM     24  N   UNL     1       5.041   1.589  19.963  0.00  0.00    +0.000 NA
ATOM     25  H   UNL     1       5.567   1.704  19.092  0.00  0.00    +0.000 HD
ATOM     26  H   UNL     1       4.403   0.815  19.790  0.00  0.00    +0.000 HD
ENDBRANCH  23  24
ENDBRANCH  21  23
ENDBRANCH  18  20
ENDBRANCH   1  18
TORSDOF 5
ENDMDL
