MODEL 1
REMARK VINA RESULT:      -7.0      0.000      0.000
REMARK  Name = 
REMARK  9 active torsions:
REMARK  status: ('A' for Active; 'I' for Inactive)
REMARK    1  A    between atoms: C_1  and  C_2
REMARK    2  A    between atoms: C_2  and  N_3
REMARK    3  A    between atoms: C_2  and  C_10
REMARK    4  A    between atoms: N_3  and  C_4
REMARK    5  A    between atoms: C_4  and  C_5
REMARK    6  A    between atoms: C_13  and  O_14
REMARK    7  A    between atoms: O_14  and  C_15
REMARK    8  A    between atoms: C_15  and  C_16
REMARK    9  A    between atoms: N_20  and  C_21
REMARK                            x       y       z     vdW  Elec       q    Type
REMARK                         _______ _______ _______ _____ _____    ______ ____
ROOT
ATOM      1  C   UNL     1       6.237   5.626  17.450  0.00  0.00    +0.000 A 
ATOM      2  C   UNL     1       7.209   5.382  18.441  0.00  0.00    +0.000 A 
ATOM      3  C   UNL     1       8.067   6.401  18.873  0.00  0.00    +0.000 A 
ATOM      4  C   UNL     1       7.976   7.679  18.320  0.00  0.00    +0.000 A 
ATOM      5  C   UNL     1       6.984   7.947  17.382  0.00  0.00    +0.000 A 
ATOM      6  C   UNL     1       6.140   6.929  16.947  0.00  0.00    +0.000 A 
ENDROOT
BRANCH   1   8
ATOM      7  C   UNL     1       5.989   3.827  15.687  0.00  0.00    +0.000 C 
ATOM      8  C   UNL     1       5.348   4.501  16.921  0.00  0.00    +0.000 C 
BRANCH   8   9
ATOM      9  N   UNL     1       5.064   3.463  17.932  0.00  0.00    +0.000 NA
ATOM     10  H   UNL     1       5.118   3.866  18.865  0.00  0.00    +0.000 HD
BRANCH   9  11
ATOM     11  C   UNL     1       3.751   2.837  17.764  0.00  0.00    +0.000 C 
BRANCH  11  12
ATOM     12  C   UNL     1       2.928   3.051  19.002  0.00  0.00    +0.000 A 
ATOM     13  C   UNL     1       1.655   3.703  19.022  0.00  0.00    +0.000 A 
ATOM     14  C   UNL     1       1.114   3.801  20.285  0.00  0.00    +0.000 A 
ATOM     15  S   UNL     1       2.151   3.142  21.469  0.00  0.00    +0.000 S 
ATOM     16  C   UNL     1       3.313   2.702  20.291  0.00  0.00    +0.000 A 
ENDBRANCH  11  12
ENDBRANCH   9  11
ENDBRANCH   8   9
ENDBRANCH   1   8
BRANCH   4  17
ATOM     17  O   UNL     1       8.894   8.598  18.758  0.00  0.00    +0.000 OA
BRANCH  17  18
ATOM     18  C   UNL     1       8.720   9.914  18.210  0.00  0.00    +0.000 C 
BRANCH  18  19
ATOM     19  C   UNL     1       9.250  10.893  19.198  0.00  0.00    +0.000 A 
ATOM     20  N   UNL     1       9.420  10.679  20.494  0.00  0.00    +0.000 NA
ATOM     21  C   UNL     1       9.987  11.811  20.998  0.00  0.00    +0.000 A 
ATOM     22  C   UNL     1      10.176  12.743  20.005  0.00  0.00    +0.000 A 
ATOM     23  N   UNL     1       9.704  12.147  18.868  0.00  0.00    +0.000 N 
ATOM     24  C   UNL     1       9.711  12.729  17.546  0.00  0.00    +0.000 C 
ENDBRANCH  18  19
ENDBRANCH  17  18
ENDBRANCH   4  17
TORSDOF 7
ENDMDL
MODEL 2
REMARK VINA RESULT:      -6.9      5.736      7.070
REMARK  Name = 
REMARK  9 active torsions:
REMARK  status: ('A' for Active; 'I' for Inactive)
REMARK    1  A    between atoms: C_1  and  C_2
REMARK    2  A    between atoms: C_2  and  N_3
REMARK    3  A    between atoms: C_2  and  C_10
REMARK    4  A    between atoms: N_3  and  C_4
REMARK    5  A    between atoms: C_4  and  C_5
REMARK    6  A    between atoms: C_13  and  O_14
REMARK    7  A    between atoms: O_14  and  C_15
REMARK    8  A    between atoms: C_15  and  C_16
REMARK    9  A    between atoms: N_20  and  C_21
REMARK                            x       y       z     vdW  Elec       q    Type
REMARK                         _______ _______ _______ _____ _____    ______ ____
ROOT
ATOM      1  C   UNL     1       2.977   7.184  18.309  0.00  0.00    +0.000 A 
ATOM      2  C   UNL     1       2.588   8.317  17.567  0.00  0.00    +0.000 A 
ATOM      3  C   UNL     1       1.720   9.271  18.114  0.00  0.00    +0.000 A 
ATOM      4  C   UNL     1       1.221   9.108  19.406  0.00  0.00    +0.000 A 
ATOM      5  C   UNL     1       1.643   8.024  20.169  0.00  0.00    +0.000 A 
ATOM      6  C   UNL     1       2.497   7.072  19.619  0.00  0.00    +0.000 A 
ENDROOT
BRANCH   1   8
ATOM      7  C   UNL     1       4.882   6.722  16.706  0.00  0.00    +0.000 C 
ATOM      8  C   UNL     1       3.864   6.103  17.691  0.00  0.00    +0.000 C 
BRANCH   8   9
ATOM      9  N   UNL     1       4.601   5.312  18.698  0.00  0.00    +0.000 NA
ATOM     10  H   UNL     1       4.284   5.563  19.632  0.00  0.00    +0.000 HD
BRANCH   9  11
ATOM     11  C   UNL     1       4.450   3.867  18.520  0.00  0.00    +0.000 C 
BRANCH  11  12
ATOM     12  C   UNL     1       3.158   3.414  19.139  0.00  0.00    +0.000 A 
ATOM     13  C   UNL     1       2.006   3.010  18.394  0.00  0.00    +0.000 A 
ATOM     14  C   UNL     1       0.937   2.667  19.193  0.00  0.00    +0.000 A 
ATOM     15  S   UNL     1       1.296   2.863  20.850  0.00  0.00    +0.000 S 
ATOM     16  C   UNL     1       2.890   3.384  20.502  0.00  0.00    +0.000 A 
ENDBRANCH  11  12
ENDBRANCH   9  11
ENDBRANCH   8   9
ENDBRANCH   1   8
BRANCH   4  17
ATOM     17  O   UNL     1       0.332  10.057  19.839  0.00  0.00    +0.000 OA
BRANCH  17  18
ATOM     18  C   UNL     1       0.874  10.985  20.791  0.00  0.00    +0.000 C 
BRANCH  18  19
ATOM     19  C   UNL     1      -0.251  11.502  21.617  0.00  0.00    +0.000 A 
ATOM     20  N   UNL     1      -0.952  12.601  21.379  0.00  0.00    +0.000 NA
ATOM     21  C   UNL     1      -1.918  12.654  22.339  0.00  0.00    +0.000 A 
ATOM     22  C   UNL     1      -1.823  11.574  23.185  0.00  0.00    +0.000 A 
ATOM     23  N   UNL     1      -0.761  10.852  22.714  0.00  0.00    +0.000 N 
ATOM     24  C   UNL     1      -0.280   9.605  23.263  0.00  0.00    +0.000 C 
ENDBRANCH  18  19
ENDBRANCH  17  18
ENDBRANCH   4  17
TORSDOF 7
ENDMDL
MODEL 3
REMARK VINA RESULT:      -6.8      4.560      6.190
REMARK  Name = 
REMARK  9 active torsions:
REMARK  status: ('A' for Active; 'I' for Inactive)
REMARK    1  A    between atoms: C_1  and  C_2
REMARK    2  A    between atoms: C_2  and  N_3
REMARK    3  A    between atoms: C_2  and  C_10
REMARK    4  A    between atoms: N_3  and  C_4
REMARK    5  A    between atoms: C_4  and  C_5
REMARK    6  A    between atoms: C_13  and  O_14
REMARK    7  A    between atoms: O_14  and  C_15
REMARK    8  A    between atoms: C_15  and  C_16
REMARK    9  A    between atoms: N_20  and  C_21
REMARK                            x       y       z     vdW  Elec       q    Type
REMARK                         _______ _______ _______ _____ _____    ______ ____
ROOT
ATOM      1  C   UNL     1       3.077   6.237  19.467  0.00  0.00    +0.000 A 
ATOM      2  C   UNL     1       2.855   7.065  18.348  0.00  0.00    +0.000 A 
ATOM      3  C   UNL     1       3.833   7.210  17.357  0.00  0.00    +0.000 A 
ATOM      4  C   UNL     1       5.051   6.539  17.465  0.00  0.00    +0.000 A 
ATOM      5  C   UNL     1       5.259   5.675  18.536  0.00  0.00    +0.000 A 
ATOM      6  C   UNL     1       4.290   5.541  19.526  0.00  0.00    +0.000 A 
ENDROOT
BRANCH   1   8
ATOM      7  C   UNL     1       1.424   7.515  20.897  0.00  0.00    +0.000 C 
ATOM      8  C   UNL     1       2.045   6.133  20.590  0.00  0.00    +0.000 C 
BRANCH   8   9
ATOM      9  N   UNL     1       0.956   5.181  20.290  0.00  0.00    +0.000 NA
ATOM     10  H   UNL     1       0.803   5.138  19.285  0.00  0.00    +0.000 HD
BRANCH   9  11
ATOM     11  C   UNL     1       1.217   3.829  20.787  0.00  0.00    +0.000 C 
BRANCH  11  12
ATOM     12  C   UNL     1       1.960   3.043  19.744  0.00  0.00    +0.000 A 
ATOM     13  C   UNL     1       1.578   2.967  18.368  0.00  0.00    +0.000 A 
ATOM     14  C   UNL     1       2.404   2.158  17.619  0.00  0.00    +0.000 A 
ATOM     15  S   UNL     1       3.629   1.450  18.573  0.00  0.00    +0.000 S 
ATOM     16  C   UNL     1       3.071   2.243  19.984  0.00  0.00    +0.000 A 
ENDBRANCH  11  12
ENDBRANCH   9  11
ENDBRANCH   8   9
ENDBRANCH   1   8
BRANCH   4  17
ATOM     17  O   UNL     1       5.971   6.786  16.481  0.00  0.00    +0.000 OA
BRANCH  17  18
ATOM     18  C   UNL     1       7.017   5.806  16.390  0.00  0.00    +0.000 C 
BRANCH  18  19
ATOM     19  C   UNL     1       6.933   5.171  15.047  0.00  0.00    +0.000 A 
ATOM     20  N   UNL     1       7.657   5.493  13.986  0.00  0.00    +0.000 NA
ATOM     21  C   UNL     1       7.304   4.618  13.002  0.00  0.00    +0.000 A 
ATOM     22  C   UNL     1       6.352   3.736  13.455  0.00  0.00    +0.000 A 
ATOM     23  N   UNL     1       6.126   4.098  14.754  0.00  0.00    +0.000 N 
ATOM     24  C   UNL     1       5.216   3.445  15.666  0.00  0.00    +0.000 C 
ENDBRANCH  18  19
ENDBRANCH  17  18
ENDBRANCH   4  17
TORSDOF 7
ENDMDL
MODEL 4
REMARK VINA RESULT:      -6.8      5.288      7.130
REMARK  Name = 
REMARK  9 active torsions:
REMARK  status: ('A' for Active; 'I' for Inactive)
REMARK    1  A    between atoms: C_1  and  C_2
REMARK    2  A    between atoms: C_2  and  N_3
REMARK    3  A    between atoms: C_2  and  C_10
REMARK    4  A    between atoms: N_3  and  C_4
REMARK    5  A    between atoms: C_4  and  C_5
REMARK    6  A    between atoms: C_13  and  O_14
REMARK    7  A    between atoms: O_14  and  C_15
REMARK    8  A    between atoms: C_15  and  C_16
REMARK    9  A    between atoms: N_20  and  C_21
REMARK                            x       y       z     vdW  Elec       q    Type
REMARK                         _______ _______ _______ _____ _____    ______ ____
ROOT
ATOM      1  C   UNL     1       3.167   5.041  19.146  0.00  0.00    +0.000 A 
ATOM      2  C   UNL     1       4.519   5.121  19.535  0.00  0.00    +0.000 A 
ATOM      3  C   UNL     1       5.547   4.902  18.609  0.00  0.00    +0.000 A 
ATOM      4  C   UNL     1       5.246   4.593  17.283  0.00  0.00    +0.000 A 
ATOM      5  C   UNL     1       3.916   4.568  16.874  0.00  0.00    +0.000 A 
ATOM      6  C   UNL     1       2.896   4.774  17.799  0.00  0.00    +0.000 A 
ENDROOT
BRANCH   1   8
ATOM      7  C   UNL     1       2.084   4.075  21.221  0.00  0.00    +0.000 C 
ATOM      8  C   UNL     1       2.041   5.205  20.167  0.00  0.00    +0.000 C 
BRANCH   8   9
ATOM      9  N   UNL     1       2.077   6.505  20.866  0.00  0.00    +0.000 NA
ATOM     10  H   UNL     1       2.949   6.594  21.384  0.00  0.00    +0.000 HD
BRANCH   9  11
ATOM     11  C   UNL     1       1.944   7.651  19.964  0.00  0.00    +0.000 C 
BRANCH  11  12
ATOM     12  C   UNL     1       1.150   8.733  20.638  0.00  0.00    +0.000 A 
ATOM     13  C   UNL     1       0.987   8.852  22.054  0.00  0.00    +0.000 A 
ATOM     14  C   UNL     1       0.189   9.913  22.422  0.00  0.00    +0.000 A 
ATOM     15  S   UNL     1      -0.405  10.758  21.063  0.00  0.00    +0.000 S 
ATOM     16  C   UNL     1       0.424   9.721  19.982  0.00  0.00    +0.000 A 
ENDBRANCH  11  12
ENDBRANCH   9  11
ENDBRANCH   8   9
ENDBRANCH   1   8
BRANCH   4  17
ATOM     17  O   UNL     1       6.311   4.335  16.461  0.00  0.00    +0.000 OA
BRANCH  17  18
ATOM     18  C   UNL     1       5.963   3.695  15.224  0.00  0.00    +0.000 C 
BRANCH  18  19
ATOM     19  C   UNL     1       6.720   4.366  14.132  0.00  0.00    +0.000 A 
ATOM     20  N   UNL     1       7.652   5.295  14.286  0.00  0.00    +0.000 NA
ATOM     21  C   UNL     1       8.123   5.575  13.038  0.00  0.00    +0.000 A 
ATOM     22  C   UNL     1       7.481   4.810  12.093  0.00  0.00    +0.000 A 
ATOM     23  N   UNL     1       6.594   4.047  12.802  0.00  0.00    +0.000 N 
ATOM     24  C   UNL     1       5.700   3.058  12.245  0.00  0.00    +0.000 C 
ENDBRANCH  18  19
ENDBRANCH  17  18
ENDBRANCH   4  17
TORSDOF 7
ENDMDL
MODEL 5
REMARK VINA RESULT:      -6.8      5.519      7.091
REMARK  Name = 
REMARK  9 active torsions:
REMARK  status: ('A' for Active; 'I' for Inactive)
REMARK    1  A    between atoms: C_1  and  C_2
REMARK    2  A    between atoms: C_2  and  N_3
REMARK    3  A    between atoms: C_2  and  C_10
REMARK    4  A    between atoms: N_3  and  C_4
REMARK    5  A    between atoms: C_4  and  C_5
REMARK    6  A    between atoms: C_13  and  O_14
REMARK    7  A    between atoms: O_14  and  C_15
REMARK    8  A    between atoms: C_15  and  C_16
REMARK    9  A    between atoms: N_20  and  C_21
REMARK                            x       y       z     vdW  Elec       q    Type
REMARK                         _______ _______ _______ _____ _____    ______ ____
ROOT
ATOM      1  C   UNL     1       3.397   6.701  18.253  0.00  0.00    +0.000 A 
ATOM      2  C   UNL     1       2.802   6.616  19.527  0.00  0.00    +0.000 A 
ATOM      3  C   UNL     1       1.910   7.601  19.970  0.00  0.00    +0.000 A 
ATOM      4  C   UNL     1       1.602   8.690  19.155  0.00  0.00    +0.000 A 
ATOM      5  C   UNL     1       2.139   8.754  17.873  0.00  0.00    +0.000 A 
ATOM      6  C   UNL     1       3.034   7.781  17.439  0.00  0.00    +0.000 A 
ENDROOT
BRANCH   1   8
ATOM      7  C   UNL     1       5.422   5.340  18.929  0.00  0.00    +0.000 C 
ATOM      8  C   UNL     1       4.428   5.670  17.792  0.00  0.00    +0.000 C 
BRANCH   8   9
ATOM      9  N   UNL     1       3.818   4.412  17.317  0.00  0.00    +0.000 NA
ATOM     10  H   UNL     1       4.154   4.199  16.380  0.00  0.00    +0.000 HD
BRANCH   9  11
ATOM     11  C   UNL     1       4.095   3.270  18.190  0.00  0.00    +0.000 C 
BRANCH  11  12
ATOM     12  C   UNL     1       2.955   3.082  19.150  0.00  0.00    +0.000 A 
ATOM     13  C   UNL     1       1.574   3.199  18.796  0.00  0.00    +0.000 A 
ATOM     14  C   UNL     1       0.722   3.010  19.862  0.00  0.00    +0.000 A 
ATOM     15  S   UNL     1       1.577   2.725  21.312  0.00  0.00    +0.000 S 
ATOM     16  C   UNL     1       3.087   2.831  20.511  0.00  0.00    +0.000 A 
ENDBRANCH  11  12
ENDBRANCH   9  11
ENDBRANCH   8   9
ENDBRANCH   1   8
BRANCH   4  17
ATOM     17  O   UNL     1       0.768   9.635  19.692  0.00  0.00    +0.000 OA
BRANCH  17  18
ATOM     18  C   UNL     1       0.572  10.791  18.863  0.00  0.00    +0.000 C 
BRANCH  18  19
ATOM     19  C   UNL     1      -0.838  10.780  18.388  0.00  0.00    +0.000 A 
ATOM     20  N   UNL     1      -1.360   9.933  17.513  0.00  0.00    +0.000 NA
ATOM     21  C   UNL     1      -2.684  10.241  17.425  0.00  0.00    +0.000 A 
ATOM     22  C   UNL     1      -2.996  11.291  18.256  0.00  0.00    +0.000 A 
ATOM     23  N   UNL     1      -1.815  11.622  18.862  0.00  0.00    +0.000 N 
ATOM     24  C   UNL     1      -1.635  12.662  19.849  0.00  0.00    +0.000 C 
ENDBRANCH  18  19
ENDBRANCH  17  18
ENDBRANCH   4  17
TORSDOF 7
ENDMDL
MODEL 6
REMARK VINA RESULT:      -6.7      6.297      9.414
REMARK  Name = 
REMARK  9 active torsions:
REMARK  status: ('A' for Active; 'I' for Inactive)
REMARK    1  A    between atoms: C_1  and  C_2
REMARK    2  A    between atoms: C_2  and  N_3
REMARK    3  A    between atoms: C_2  and  C_10
REMARK    4  A    between atoms: N_3  and  C_4
REMARK    5  A    between atoms: C_4  and  C_5
REMARK    6  A    between atoms: C_13  and  O_14
REMARK    7  A    between atoms: O_14  and  C_15
REMARK    8  A    between atoms: C_15  and  C_16
REMARK    9  A    between atoms: N_20  and  C_21
REMARK                            x       y       z     vdW  Elec       q    Type
REMARK                         _______ _______ _______ _____ _____    ______ ____
ROOT
ATOM      1  C   UNL     1       1.091   9.510  19.190  0.00  0.00    +0.000 A 
ATOM      2  C   UNL     1       1.690   9.277  17.936  0.00  0.00    +0.000 A 
ATOM      3  C   UNL     1       2.498   8.153  17.723  0.00  0.00    +0.000 A 
ATOM      4  C   UNL     1       2.727   7.245  18.756  0.00  0.00    +0.000 A 
ATOM      5  C   UNL     1       2.095   7.433  19.981  0.00  0.00    +0.000 A 
ATOM      6  C   UNL     1       1.302   8.557  20.195  0.00  0.00    +0.000 A 
ENDROOT
BRANCH   1   8
ATOM      7  C   UNL     1       0.878  11.593  20.613  0.00  0.00    +0.000 C 
ATOM      8  C   UNL     1       0.271  10.773  19.452  0.00  0.00    +0.000 C 
BRANCH   8   9
ATOM      9  N   UNL     1       0.155  11.645  18.266  0.00  0.00    +0.000 NA
ATOM     10  H   UNL     1       0.097  11.076  17.424  0.00  0.00    +0.000 HD
BRANCH   9  11
ATOM     11  C   UNL     1      -1.006  12.536  18.316  0.00  0.00    +0.000 C 
BRANCH  11  12
ATOM     12  C   UNL     1      -2.242  11.776  17.928  0.00  0.00    +0.000 A 
ATOM     13  C   UNL     1      -2.369  10.998  16.735  0.00  0.00    +0.000 A 
ATOM     14  C   UNL     1      -3.612  10.421  16.592  0.00  0.00    +0.000 A 
ATOM     15  S   UNL     1      -4.655  10.841  17.877  0.00  0.00    +0.000 S 
ATOM     16  C   UNL     1      -3.437  11.774  18.637  0.00  0.00    +0.000 A 
ENDBRANCH  11  12
ENDBRANCH   9  11
ENDBRANCH   8   9
ENDBRANCH   1   8
BRANCH   4  17
ATOM     17  O   UNL     1       3.577   6.207  18.477  0.00  0.00    +0.000 OA
BRANCH  17  18
ATOM     18  C   UNL     1       3.593   5.171  19.471  0.00  0.00    +0.000 C 
BRANCH  18  19
ATOM     19  C   UNL     1       2.930   3.970  18.892  0.00  0.00    +0.000 A 
ATOM     20  N   UNL     1       3.340   3.290  17.832  0.00  0.00    +0.000 NA
ATOM     21  C   UNL     1       2.484   2.237  17.700  0.00  0.00    +0.000 A 
ATOM     22  C   UNL     1       1.531   2.258  18.690  0.00  0.00    +0.000 A 
ATOM     23  N   UNL     1       1.827   3.363  19.440  0.00  0.00    +0.000 N 
ATOM     24  C   UNL     1       1.115   3.797  20.620  0.00  0.00    +0.000 C 
ENDBRANCH  18  19
ENDBRANCH  17  18
ENDBRANCH   4  17
TORSDOF 7
ENDMDL
MODEL 7
REMARK VINA RESULT:      -6.7      5.879      8.053
REMARK  Name = 
REMARK  9 active torsions:
REMARK  status: ('A' for Active; 'I' for Inactive)
REMARK    1  A    between atoms: C_1  and  C_2
REMARK    2  A    between atoms: C_2  and  N_3
REMARK    3  A    between atoms: C_2  and  C_10
REMARK    4  A    between atoms: N_3  and  C_4
REMARK    5  A    between atoms: C_4  and  C_5
REMARK    6  A    between atoms: C_13  and  O_14
REMARK    7  A    between atoms: O_14  and  C_15
REMARK    8  A    between atoms: C_15  and  C_16
REMARK    9  A    between atoms: N_20  and  C_21
REMARK                            x       y       z     vdW  Elec       q    Type
REMARK                         _______ _______ _______ _____ _____    ______ ____
ROOT
ATOM      1  C   UNL     1       1.727   8.824  18.865  0.00  0.00    +0.000 A 
ATOM      2  C   UNL     1       2.462   8.219  17.825  0.00  0.00    +0.000 A 
ATOM      3  C   UNL     1       3.079   6.976  18.012  0.00  0.00    +0.000 A 
ATOM      4  C   UNL     1       2.980   6.317  19.237  0.00  0.00    +0.000 A 
ATOM      5  C   UNL     1       2.210   6.877  20.251  0.00  0.00    +0.000 A 
ATOM      6  C   UNL     1       1.607   8.119  20.068  0.00  0.00    +0.000 A 
ENDROOT
BRANCH   1   8
ATOM      7  C   UNL     1       2.172  11.224  18.190  0.00  0.00    +0.000 C 
ATOM      8  C   UNL     1       1.114  10.214  18.693  0.00  0.00    +0.000 C 
BRANCH   8   9
ATOM      9  N   UNL     1      -0.034  10.231  17.766  0.00  0.00    +0.000 NA
ATOM     10  H   UNL     1      -0.056   9.367  17.227  0.00  0.00    +0.000 HD
BRANCH   9  11
ATOM     11  C   UNL     1      -1.321  10.398  18.443  0.00  0.00    +0.000 C 
BRANCH  11  12
ATOM     12  C   UNL     1      -2.402  10.628  17.424  0.00  0.00    +0.000 A 
ATOM     13  C   UNL     1      -3.631  11.307  17.692  0.00  0.00    +0.000 A 
ATOM     14  C   UNL     1      -4.470  11.363  16.601  0.00  0.00    +0.000 A 
ATOM     15  S   UNL     1      -3.801  10.564  15.248  0.00  0.00    +0.000 S 
ATOM     16  C   UNL     1      -2.379  10.164  16.114  0.00  0.00    +0.000 A 
ENDBRANCH  11  12
ENDBRANCH   9  11
ENDBRANCH   8   9
ENDBRANCH   1   8
BRANCH   4  17
ATOM     17  O   UNL     1       3.664   5.135  19.350  0.00  0.00    +0.000 OA
BRANCH  17  18
ATOM     18  C   UNL     1       3.973   4.509  18.095  0.00  0.00    +0.000 C 
BRANCH  18  19
ATOM     19  C   UNL     1       5.442   4.615  17.880  0.00  0.00    +0.000 A 
ATOM     20  N   UNL     1       6.359   4.766  18.824  0.00  0.00    +0.000 NA
ATOM     21  C   UNL     1       7.566   4.747  18.191  0.00  0.00    +0.000 A 
ATOM     22  C   UNL     1       7.403   4.578  16.837  0.00  0.00    +0.000 A 
ATOM     23  N   UNL     1       6.050   4.495  16.654  0.00  0.00    +0.000 N 
ATOM     24  C   UNL     1       5.380   4.289  15.390  0.00  0.00    +0.000 C 
ENDBRANCH  18  19
ENDBRANCH  17  18
ENDBRANCH   4  17
TORSDOF 7
ENDMDL
MODEL 8
REMARK VINA RESULT:      -6.7      6.369      9.333
REMARK  Name = 
REMARK  9 active torsions:
REMARK  status: ('A' for Active; 'I' for Inactive)
REMARK    1  A    between atoms: C_1  and  C_2
REMARK    2  A    between atoms: C_2  and  N_3
REMARK    3  A    between atoms: C_2  and  C_10
REMARK    4  A    between atoms: N_3  and  C_4
REMARK    5  A    between atoms: C_4  and  C_5
REMARK    6  A    between atoms: C_13  and  O_14
REMARK    7  A    between atoms: O_14  and  C_15
REMARK    8  A    between atoms: C_15  and  C_16
REMARK    9  A    between atoms: N_20  and  C_21
REMARK                            x       y       z     vdW  Elec       q    Type
REMARK                         _______ _______ _______ _____ _____    ______ ____
ROOT
ATOM      1  C   UNL     1       0.969   9.517  19.255  0.00  0.00    +0.000 A 
ATOM      2  C   UNL     1       1.268   8.668  20.339  0.00  0.00    +0.000 A 
ATOM      3  C   UNL     1       2.030   7.507  20.153  0.00  0.00    +0.000 A 
ATOM      4  C   UNL     1       2.501   7.171  18.884  0.00  0.00    +0.000 A 
ATOM      5  C   UNL     1       2.261   8.031  17.817  0.00  0.00    +0.000 A 
ATOM      6  C   UNL     1       1.494   9.177  18.002  0.00  0.00    +0.000 A 
ENDROOT
BRANCH   1   8
ATOM      7  C   UNL     1       0.408  11.478  20.756  0.00  0.00    +0.000 C 
ATOM      8  C   UNL     1       0.075  10.744  19.436  0.00  0.00    +0.000 C 
BRANCH   8   9
ATOM      9  N   UNL     1       0.178  11.707  18.321  0.00  0.00    +0.000 NA
ATOM     10  H   UNL     1       0.275  11.206  17.441  0.00  0.00    +0.000 HD
BRANCH   9  11
ATOM     11  C   UNL     1      -0.971  12.609  18.228  0.00  0.00    +0.000 C 
BRANCH  11  12
ATOM     12  C   UNL     1      -2.201  11.823  17.871  0.00  0.00    +0.000 A 
ATOM     13  C   UNL     1      -2.325  11.007  16.703  0.00  0.00    +0.000 A 
ATOM     14  C   UNL     1      -3.562  10.412  16.585  0.00  0.00    +0.000 A 
ATOM     15  S   UNL     1      -4.603  10.859  17.863  0.00  0.00    +0.000 S 
ATOM     16  C   UNL     1      -3.392  11.830  18.587  0.00  0.00    +0.000 A 
ENDBRANCH  11  12
ENDBRANCH   9  11
ENDBRANCH   8   9
ENDBRANCH   1   8
BRANCH   4  17
ATOM     17  O   UNL     1       3.187   5.988  18.784  0.00  0.00    +0.000 OA
BRANCH  17  18
ATOM     18  C   UNL     1       2.367   4.854  18.463  0.00  0.00    +0.000 C 
BRANCH  18  19
ATOM     19  C   UNL     1       2.218   4.034  19.696  0.00  0.00    +0.000 A 
ATOM     20  N   UNL     1       1.147   3.983  20.473  0.00  0.00    +0.000 NA
ATOM     21  C   UNL     1       1.419   3.061  21.440  0.00  0.00    +0.000 A 
ATOM     22  C   UNL     1       2.673   2.526  21.262  0.00  0.00    +0.000 A 
ATOM     23  N   UNL     1       3.168   3.153  20.152  0.00  0.00    +0.000 N 
ATOM     24  C   UNL     1       4.458   2.907  19.549  0.00  0.00    +0.000 C 
ENDBRANCH  18  19
ENDBRANCH  17  18
ENDBRANCH   4  17
TORSDOF 7
ENDMDL
MODEL 9
REMARK VINA RESULT:      -6.6      5.686      8.009
REMARK  Name = 
REMARK  9 active torsions:
REMARK  status: ('A' for Active; 'I' for Inactive)
REMARK    1  A    between atoms: C_1  and  C_2
REMARK    2  A    between atoms: C_2  and  N_3
REMARK    3  A    between atoms: C_2  and  C_10
REMARK    4  A    between atoms: N_3  and  C_4
REMARK    5  A    between atoms: C_4  and  C_5
REMARK    6  A    between atoms: C_13  and  O_14
REMARK    7  A    between atoms: O_14  and  C_15
REMARK    8  A    between atoms: C_15  and  C_16
REMARK    9  A    between atoms: N_20  and  C_21
REMARK                            x       y       z     vdW  Elec       q    Type
REMARK                         _______ _______ _______ _____ _____    ______ ____
ROOT
ATOM      1  C   UNL     1       1.713   8.411  19.352  0.00  0.00    +0.000 A 
ATOM      2  C   UNL     1       2.367   8.013  18.169  0.00  0.00    +0.000 A 
ATOM      3  C   UNL     1       2.955   6.746  18.065  0.00  0.00    +0.000 A 
ATOM      4  C   UNL     1       2.907   5.858  19.140  0.00  0.00    +0.000 A 
ATOM      5  C   UNL     1       2.215   6.218  20.292  0.00  0.00    +0.000 A 
ATOM      6  C   UNL     1       1.642   7.482  20.397  0.00  0.00    +0.000 A 
ENDROOT
BRANCH   1   8
ATOM      7  C   UNL     1       1.646  10.745  18.371  0.00  0.00    +0.000 C 
ATOM      8  C   UNL     1       1.135   9.819  19.499  0.00  0.00    +0.000 C 
BRANCH   8   9
ATOM      9  N   UNL     1      -0.341   9.843  19.497  0.00  0.00    +0.000 NA
ATOM     10  H   UNL     1      -0.691   9.623  20.427  0.00  0.00    +0.000 HD
BRANCH   9  11
ATOM     11  C   UNL     1      -0.898  11.129  19.075  0.00  0.00    +0.000 C 
BRANCH  11  12
ATOM     12  C   UNL     1      -1.971  10.903  18.049  0.00  0.00    +0.000 A 
ATOM     13  C   UNL     1      -1.880   9.954  16.982  0.00  0.00    +0.000 A 
ATOM     14  C   UNL     1      -2.983   9.956  16.157  0.00  0.00    +0.000 A 
ATOM     15  S   UNL     1      -4.128  11.128  16.636  0.00  0.00    +0.000 S 
ATOM     16  C   UNL     1      -3.160  11.617  17.961  0.00  0.00    +0.000 A 
ENDBRANCH  11  12
ENDBRANCH   9  11
ENDBRANCH   8   9
ENDBRANCH   1   8
BRANCH   4  17
ATOM     17  O   UNL     1       3.559   4.664  18.972  0.00  0.00    +0.000 OA
BRANCH  17  18
ATOM     18  C   UNL     1       3.919   4.373  17.613  0.00  0.00    +0.000 C 
BRANCH  18  19
ATOM     19  C   UNL     1       5.396   4.513  17.490  0.00  0.00    +0.000 A 
ATOM     20  N   UNL     1       6.260   4.558  18.492  0.00  0.00    +0.000 NA
ATOM     21  C   UNL     1       7.499   4.621  17.926  0.00  0.00    +0.000 A 
ATOM     22  C   UNL     1       7.407   4.611  16.554  0.00  0.00    +0.000 A 
ATOM     23  N   UNL     1       6.067   4.541  16.292  0.00  0.00    +0.000 N 
ATOM     24  C   UNL     1       5.467   4.481  14.978  0.00  0.00    +0.000 C 
ENDBRANCH  18  19
ENDBRANCH  17  18
ENDBRANCH   4  17
TORSDOF 7
ENDMDL
