MODEL 1
REMARK VINA RESULT:      -7.4      0.000      0.000
REMARK  Name = 
REMARK  8 active torsions:
REMARK  status: ('A' for Active; 'I' for Inactive)
REMARK    1  A    between atoms: C_6  and  N_7
REMARK    2  A    between atoms: N_10  and  C_11
REMARK    3  A    between atoms: C_11  and  C_12
REMARK    4  A    between atoms: C_12  and  C_13
REMARK    5  A    between atoms: C_13  and  C_14
REMARK    6  A    between atoms: C_14  and  O_15
REMARK    7  A    between atoms: O_15  and  C_16
REMARK    8  A    between atoms: C_19  and  C_20
REMARK                            x       y       z     vdW  Elec       q    Type
REMARK                         _______ _______ _______ _____ _____    ______ ____
ROOT
ATOM      1  C   UNL     1       0.674  13.704  19.120  0.00  0.00    +0.000 C 
ENDROOT
BRANCH   1   2
ATOM      2  C   UNL     1       2.041  13.890  18.474  0.00  0.00    +0.000 C 
BRANCH   2   3
ATOM      3  C   UNL     1       3.131  14.129  19.515  0.00  0.00    +0.000 C 
BRANCH   3   7
ATOM      4  N   UNL     1       6.563  15.052  18.749  0.00  0.00    +0.000 N 
ATOM      5  C   UNL     1       6.112  14.854  20.137  0.00  0.00    +0.000 C 
ATOM      6  C   UNL     1       4.800  15.637  20.423  0.00  0.00    +0.000 C 
ATOM      7  N   UNL     1       3.717  15.477  19.419  0.00  0.00    +0.000 NA
ATOM      8  C   UNL     1       4.304  15.773  18.090  0.00  0.00    +0.000 C 
ATOM      9  C   UNL     1       5.512  14.884  17.730  0.00  0.00    +0.000 C 
BRANCH   4  15
ATOM     10 CL   UNL     1      11.278  13.347  17.126  0.00  0.00    +0.000 Cl
ATOM     11  C   UNL     1      10.124  14.537  17.634  0.00  0.00    +0.000 A 
ATOM     12  C   UNL     1      10.588  15.851  17.722  0.00  0.00    +0.000 A 
ATOM     13  C   UNL     1       9.733  16.857  18.134  0.00  0.00    +0.000 A 
ATOM     14  C   UNL     1       8.419  16.543  18.471  0.00  0.00    +0.000 A 
ATOM     15  C   UNL     1       7.888  15.234  18.381  0.00  0.00    +0.000 A 
ATOM     16  C   UNL     1       8.783  14.222  17.941  0.00  0.00    +0.000 A 
ATOM     17 CL   UNL     1       8.246  12.587  17.658  0.00  0.00    +0.000 Cl
ENDBRANCH   4  15
ENDBRANCH   3   7
ENDBRANCH   2   3
ENDBRANCH   1   2
BRANCH   1  18
ATOM     18  C   UNL     1       0.809  12.747  20.296  0.00  0.00    +0.000 C 
BRANCH  18  19
ATOM     19  O   UNL     1      -0.026  11.614  20.075  0.00  0.00    +0.000 OA
BRANCH  19  20
ATOM     20  C   UNL     1       0.648  10.491  19.677  0.00  0.00    +0.000 A 
ATOM     21  C   UNL     1       1.067  10.482  18.349  0.00  0.00    +0.000 A 
ATOM     22  C   UNL     1       1.769   9.386  17.838  0.00  0.00    +0.000 A 
ATOM     23  C   UNL     1       2.075   8.291  18.655  0.00  0.00    +0.000 A 
ATOM     24  C   UNL     1       1.660   8.316  19.992  0.00  0.00    +0.000 A 
ATOM     25  C   UNL     1       0.955   9.408  20.501  0.00  0.00    +0.000 A 
BRANCH  23  26
ATOM     26  C   UNL     1       2.794   7.130  18.164  0.00  0.00    +0.000 A 
ATOM     27  C   UNL     1       3.987   7.135  17.476  0.00  0.00    +0.000 A 
ATOM     28  N   UNL     1       4.254   5.823  17.189  0.00  0.00    +0.000 N 
ATOM     29  C   UNL     1       5.319   5.271  16.484  0.00  0.00    +0.000 A 
ATOM     30  C   UNL     1       5.368   3.939  16.308  0.00  0.00    +0.000 A 
ATOM     31  C   UNL     1       4.307   3.117  16.873  0.00  0.00    +0.000 A 
ATOM     32  C   UNL     1       3.280   3.660  17.559  0.00  0.00    +0.000 A 
ATOM     33  C   UNL     1       3.219   5.071  17.737  0.00  0.00    +0.000 A 
ATOM     34  N   UNL     1       2.335   5.838  18.331  0.00  0.00    +0.000 NA
ENDBRANCH  23  26
ENDBRANCH  19  20
ENDBRANCH  18  19
ENDBRANCH   1  18
TORSDOF 8
ENDMDL
MODEL 2
REMARK VINA RESULT:      -7.3      3.987      9.826
REMARK  Name = 
REMARK  8 active torsions:
REMARK  status: ('A' for Active; 'I' for Inactive)
REMARK    1  A    between atoms: C_6  and  N_7
REMARK    2  A    between atoms: N_10  and  C_11
REMARK    3  A    between atoms: C_11  and  C_12
REMARK    4  A    between atoms: C_12  and  C_13
REMARK    5  A    between atoms: C_13  and  C_14
REMARK    6  A    between atoms: C_14  and  O_15
REMARK    7  A    between atoms: O_15  and  C_16
REMARK    8  A    between atoms: C_19  and  C_20
REMARK                            x       y       z     vdW  Elec       q    Type
REMARK                         _______ _______ _______ _____ _____    ______ ____
ROOT
ATOM      1  C   UNL     1       1.861   4.889  21.122  0.00  0.00    +0.000 C 
ENDROOT
BRANCH   1   2
ATOM      2  C   UNL     1       0.912   4.032  20.292  0.00  0.00    +0.000 C 
BRANCH   2   3
ATOM      3  C   UNL     1       1.368   2.576  20.235  0.00  0.00    +0.000 C 
BRANCH   3   7
ATOM      4  N   UNL     1       3.875   3.815  17.913  0.00  0.00    +0.000 N 
ATOM      5  C   UNL     1       2.512   4.371  17.941  0.00  0.00    +0.000 C 
ATOM      6  C   UNL     1       1.441   3.245  17.906  0.00  0.00    +0.000 C 
ATOM      7  N   UNL     1       1.644   2.126  18.860  0.00  0.00    +0.000 NA
ATOM      8  C   UNL     1       3.028   1.631  18.667  0.00  0.00    +0.000 C 
ATOM      9  C   UNL     1       4.111   2.713  18.862  0.00  0.00    +0.000 C 
BRANCH   4  15
ATOM     10 CL   UNL     1       7.893   7.147  17.182  0.00  0.00    +0.000 Cl
ATOM     11  C   UNL     1       6.804   5.871  16.738  0.00  0.00    +0.000 A 
ATOM     12  C   UNL     1       6.969   5.334  15.461  0.00  0.00    +0.000 A 
ATOM     13  C   UNL     1       6.131   4.322  15.025  0.00  0.00    +0.000 A 
ATOM     14  C   UNL     1       5.121   3.863  15.866  0.00  0.00    +0.000 A 
ATOM     15  C   UNL     1       4.920   4.356  17.178  0.00  0.00    +0.000 A 
ATOM     16  C   UNL     1       5.803   5.382  17.605  0.00  0.00    +0.000 A 
ATOM     17 CL   UNL     1       5.765   6.002  19.235  0.00  0.00    +0.000 Cl
ENDBRANCH   4  15
ENDBRANCH   3   7
ENDBRANCH   2   3
ENDBRANCH   1   2
BRANCH   1  18
ATOM     18  C   UNL     1       1.841   6.312  20.585  0.00  0.00    +0.000 C 
BRANCH  18  19
ATOM     19  O   UNL     1       0.941   7.094  21.365  0.00  0.00    +0.000 OA
BRANCH  19  20
ATOM     20  C   UNL     1       0.911   8.420  21.026  0.00  0.00    +0.000 A 
ATOM     21  C   UNL     1       1.319   8.715  19.727  0.00  0.00    +0.000 A 
ATOM     22  C   UNL     1       1.321  10.037  19.272  0.00  0.00    +0.000 A 
ATOM     23  C   UNL     1       0.900  11.080  20.108  0.00  0.00    +0.000 A 
ATOM     24  C   UNL     1       0.480  10.769  21.407  0.00  0.00    +0.000 A 
ATOM     25  C   UNL     1       0.482   9.450  21.863  0.00  0.00    +0.000 A 
BRANCH  23  26
ATOM     26  C   UNL     1       0.895  12.466  19.680  0.00  0.00    +0.000 A 
ATOM     27  C   UNL     1       1.951  13.158  19.129  0.00  0.00    +0.000 A 
ATOM     28  N   UNL     1       1.492  14.432  18.924  0.00  0.00    +0.000 N 
ATOM     29  C   UNL     1       2.161  15.542  18.418  0.00  0.00    +0.000 A 
ATOM     30  C   UNL     1       1.506  16.713  18.320  0.00  0.00    +0.000 A 
ATOM     31  C   UNL     1       0.113  16.774  18.739  0.00  0.00    +0.000 A 
ATOM     32  C   UNL     1      -0.530  15.692  19.224  0.00  0.00    +0.000 A 
ATOM     33  C   UNL     1       0.164  14.455  19.340  0.00  0.00    +0.000 A 
ATOM     34  N   UNL     1      -0.213  13.282  19.792  0.00  0.00    +0.000 NA
ENDBRANCH  23  26
ENDBRANCH  19  20
ENDBRANCH  18  19
ENDBRANCH   1  18
TORSDOF 8
ENDMDL
MODEL 3
REMARK VINA RESULT:      -7.2      5.497      8.656
REMARK  Name = 
REMARK  8 active torsions:
REMARK  status: ('A' for Active; 'I' for Inactive)
REMARK    1  A    between atoms: C_6  and  N_7
REMARK    2  A    between atoms: N_10  and  C_11
REMARK    3  A    between atoms: C_11  and  C_12
REMARK    4  A    between atoms: C_12  and  C_13
REMARK    5  A    between atoms: C_13  and  C_14
REMARK    6  A    between atoms: C_14  and  O_15
REMARK    7  A    between atoms: O_15  and  C_16
REMARK    8  A    between atoms: C_19  and  C_20
REMARK                            x       y       z     vdW  Elec       q    Type
REMARK                         _______ _______ _______ _____ _____    ______ ____
ROOT
ATOM      1  C   UNL     1       1.837  13.162  20.075  0.00  0.00    +0.000 C 
ENDROOT
BRANCH   1   2
ATOM      2  C   UNL     1       0.677  14.037  20.535  0.00  0.00    +0.000 C 
BRANCH   2   3
ATOM      3  C   UNL     1       0.329  13.791  22.001  0.00  0.00    +0.000 C 
BRANCH   3   7
ATOM      4  N   UNL     1      -3.200  13.167  21.396  0.00  0.00    +0.000 N 
ATOM      5  C   UNL     1      -2.401  14.006  20.486  0.00  0.00    +0.000 C 
ATOM      6  C   UNL     1      -1.592  15.077  21.270  0.00  0.00    +0.000 C 
ATOM      7  N   UNL     1      -0.830  14.584  22.445  0.00  0.00    +0.000 NA
ATOM      8  C   UNL     1      -1.777  13.822  23.294  0.00  0.00    +0.000 C 
ATOM      9  C   UNL     1      -2.465  12.649  22.563  0.00  0.00    +0.000 C 
BRANCH   4  15
ATOM     10 CL   UNL     1      -6.957  11.124  18.315  0.00  0.00    +0.000 Cl
ATOM     11  C   UNL     1      -6.319  11.817  19.771  0.00  0.00    +0.000 A 
ATOM     12  C   UNL     1      -7.229  12.020  20.810  0.00  0.00    +0.000 A 
ATOM     13  C   UNL     1      -6.803  12.581  22.000  0.00  0.00    +0.000 A 
ATOM     14  C   UNL     1      -5.468  12.952  22.141  0.00  0.00    +0.000 A 
ATOM     15  C   UNL     1      -4.497  12.751  21.131  0.00  0.00    +0.000 A 
ATOM     16  C   UNL     1      -4.959  12.159  19.925  0.00  0.00    +0.000 A 
ATOM     17 CL   UNL     1      -3.861  11.731  18.638  0.00  0.00    +0.000 Cl
ENDBRANCH   4  15
ENDBRANCH   3   7
ENDBRANCH   2   3
ENDBRANCH   1   2
BRANCH   1  18
ATOM     18  C   UNL     1       1.585  12.718  18.642  0.00  0.00    +0.000 C 
BRANCH  18  19
ATOM     19  O   UNL     1       0.541  11.748  18.630  0.00  0.00    +0.000 OA
BRANCH  19  20
ATOM     20  C   UNL     1       0.944  10.487  18.979  0.00  0.00    +0.000 A 
ATOM     21  C   UNL     1       1.590   9.766  17.978  0.00  0.00    +0.000 A 
ATOM     22  C   UNL     1       2.049   8.469  18.226  0.00  0.00    +0.000 A 
ATOM     23  C   UNL     1       1.881   7.882  19.488  0.00  0.00    +0.000 A 
ATOM     24  C   UNL     1       1.242   8.621  20.490  0.00  0.00    +0.000 A 
ATOM     25  C   UNL     1       0.779   9.914  20.241  0.00  0.00    +0.000 A 
BRANCH  23  26
ATOM     26  C   UNL     1       2.334   6.536  19.786  0.00  0.00    +0.000 A 
ATOM     27  C   UNL     1       3.393   5.878  19.200  0.00  0.00    +0.000 A 
ATOM     28  N   UNL     1       3.414   4.633  19.767  0.00  0.00    +0.000 N 
ATOM     29  C   UNL     1       4.262   3.559  19.513  0.00  0.00    +0.000 A 
ATOM     30  C   UNL     1       4.085   2.410  20.188  0.00  0.00    +0.000 A 
ATOM     31  C   UNL     1       3.015   2.333  21.172  0.00  0.00    +0.000 A 
ATOM     32  C   UNL     1       2.200   3.380  21.417  0.00  0.00    +0.000 A 
ATOM     33  C   UNL     1       2.378   4.593  20.695  0.00  0.00    +0.000 A 
ATOM     34  N   UNL     1       1.721   5.729  20.724  0.00  0.00    +0.000 NA
ENDBRANCH  23  26
ENDBRANCH  19  20
ENDBRANCH  18  19
ENDBRANCH   1  18
TORSDOF 8
ENDMDL
MODEL 4
REMARK VINA RESULT:      -7.2      4.238      9.231
REMARK  Name = 
REMARK  8 active torsions:
REMARK  status: ('A' for Active; 'I' for Inactive)
REMARK    1  A    between atoms: C_6  and  N_7
REMARK    2  A    between atoms: N_10  and  C_11
REMARK    3  A    between atoms: C_11  and  C_12
REMARK    4  A    between atoms: C_12  and  C_13
REMARK    5  A    between atoms: C_13  and  C_14
REMARK    6  A    between atoms: C_14  and  O_15
REMARK    7  A    between atoms: O_15  and  C_16
REMARK    8  A    between atoms: C_19  and  C_20
REMARK                            x       y       z     vdW  Elec       q    Type
REMARK                         _______ _______ _______ _____ _____    ______ ____
ROOT
ATOM      1  C   UNL     1       4.211   4.200  18.381  0.00  0.00    +0.000 C 
ENDROOT
BRANCH   1   2
ATOM      2  C   UNL     1       2.741   4.188  17.978  0.00  0.00    +0.000 C 
BRANCH   2   3
ATOM      3  C   UNL     1       2.116   5.578  18.077  0.00  0.00    +0.000 C 
BRANCH   3   7
ATOM      4  N   UNL     1       1.383   8.872  19.429  0.00  0.00    +0.000 N 
ATOM      5  C   UNL     1       1.684   8.676  18.000  0.00  0.00    +0.000 C 
ATOM      6  C   UNL     1       2.973   7.830  17.804  0.00  0.00    +0.000 C 
ATOM      7  N   UNL     1       3.057   6.582  18.604  0.00  0.00    +0.000 NA
ATOM      8  C   UNL     1       2.801   6.948  20.017  0.00  0.00    +0.000 C 
ATOM      9  C   UNL     1       1.443   7.646  20.245  0.00  0.00    +0.000 C 
BRANCH   4  15
ATOM     10 CL   UNL     1      -1.400  11.722  22.880  0.00  0.00    +0.000 Cl
ATOM     11  C   UNL     1      -0.340  11.482  21.529  0.00  0.00    +0.000 A 
ATOM     12  C   UNL     1       0.093  12.633  20.870  0.00  0.00    +0.000 A 
ATOM     13  C   UNL     1       0.930  12.527  19.773  0.00  0.00    +0.000 A 
ATOM     14  C   UNL     1       1.319  11.265  19.331  0.00  0.00    +0.000 A 
ATOM     15  C   UNL     1       0.929  10.065  19.972  0.00  0.00    +0.000 A 
ATOM     16  C   UNL     1       0.082  10.204  21.104  0.00  0.00    +0.000 A 
ATOM     17 CL   UNL     1      -0.380   8.830  22.074  0.00  0.00    +0.000 Cl
ENDBRANCH   4  15
ENDBRANCH   3   7
ENDBRANCH   2   3
ENDBRANCH   1   2
BRANCH   1  18
ATOM     18  C   UNL     1       5.068   4.236  17.125  0.00  0.00    +0.000 C 
BRANCH  18  19
ATOM     19  O   UNL     1       6.440   4.319  17.498  0.00  0.00    +0.000 OA
BRANCH  19  20
ATOM     20  C   UNL     1       6.901   5.597  17.663  0.00  0.00    +0.000 A 
ATOM     21  C   UNL     1       7.851   5.767  18.668  0.00  0.00    +0.000 A 
ATOM     22  C   UNL     1       8.395   7.030  18.918  0.00  0.00    +0.000 A 
ATOM     23  C   UNL     1       8.005   8.139  18.155  0.00  0.00    +0.000 A 
ATOM     24  C   UNL     1       7.060   7.954  17.139  0.00  0.00    +0.000 A 
ATOM     25  C   UNL     1       6.514   6.693  16.892  0.00  0.00    +0.000 A 
BRANCH  23  26
ATOM     26  C   UNL     1       8.537   9.469  18.387  0.00  0.00    +0.000 A 
ATOM     27  C   UNL     1       9.311   9.868  19.454  0.00  0.00    +0.000 A 
ATOM     28  N   UNL     1       9.538  11.205  19.267  0.00  0.00    +0.000 N 
ATOM     29  C   UNL     1      10.237  12.104  20.067  0.00  0.00    +0.000 A 
ATOM     30  C   UNL     1      10.318  13.391  19.688  0.00  0.00    +0.000 A 
ATOM     31  C   UNL     1       9.679  13.799  18.445  0.00  0.00    +0.000 A 
ATOM     32  C   UNL     1       9.008  12.920  17.672  0.00  0.00    +0.000 A 
ATOM     33  C   UNL     1       8.910  11.559  18.077  0.00  0.00    +0.000 A 
ATOM     34  N   UNL     1       8.308  10.528  17.532  0.00  0.00    +0.000 NA
ENDBRANCH  23  26
ENDBRANCH  19  20
ENDBRANCH  18  19
ENDBRANCH   1  18
TORSDOF 8
ENDMDL
MODEL 5
REMARK VINA RESULT:      -7.2      1.180      1.787
REMARK  Name = 
REMARK  8 active torsions:
REMARK  status: ('A' for Active; 'I' for Inactive)
REMARK    1  A    between atoms: C_6  and  N_7
REMARK    2  A    between atoms: N_10  and  C_11
REMARK    3  A    between atoms: C_11  and  C_12
REMARK    4  A    between atoms: C_12  and  C_13
REMARK    5  A    between atoms: C_13  and  C_14
REMARK    6  A    between atoms: C_14  and  O_15
REMARK    7  A    between atoms: O_15  and  C_16
REMARK    8  A    between atoms: C_19  and  C_20
REMARK                            x       y       z     vdW  Elec       q    Type
REMARK                         _______ _______ _______ _____ _____    ______ ____
ROOT
ATOM      1  C   UNL     1       2.050  13.104  20.825  0.00  0.00    +0.000 C 
ENDROOT
BRANCH   1   2
ATOM      2  C   UNL     1       1.644  14.469  20.285  0.00  0.00    +0.000 C 
BRANCH   2   3
ATOM      3  C   UNL     1       2.465  14.860  19.059  0.00  0.00    +0.000 C 
BRANCH   3   7
ATOM      4  N   UNL     1       6.080  15.211  18.913  0.00  0.00    +0.000 N 
ATOM      5  C   UNL     1       5.389  14.886  20.173  0.00  0.00    +0.000 C 
ATOM      6  C   UNL     1       4.200  15.853  20.431  0.00  0.00    +0.000 C 
ATOM      7  N   UNL     1       3.278  16.067  19.287  0.00  0.00    +0.000 NA
ATOM      8  C   UNL     1       4.108  16.450  18.120  0.00  0.00    +0.000 C 
ATOM      9  C   UNL     1       5.190  15.412  17.756  0.00  0.00    +0.000 C 
BRANCH   4  15
ATOM     10 CL   UNL     1      10.596  13.071  17.235  0.00  0.00    +0.000 Cl
ATOM     11  C   UNL     1       9.616  14.269  18.019  0.00  0.00    +0.000 A 
ATOM     12  C   UNL     1      10.297  15.339  18.602  0.00  0.00    +0.000 A 
ATOM     13  C   UNL     1       9.589  16.329  19.260  0.00  0.00    +0.000 A 
ATOM     14  C   UNL     1       8.203  16.237  19.344  0.00  0.00    +0.000 A 
ATOM     15  C   UNL     1       7.459  15.187  18.754  0.00  0.00    +0.000 A 
ATOM     16  C   UNL     1       8.208  14.192  18.073  0.00  0.00    +0.000 A 
ATOM     17 CL   UNL     1       7.429  12.906  17.188  0.00  0.00    +0.000 Cl
ENDBRANCH   4  15
ENDBRANCH   3   7
ENDBRANCH   2   3
ENDBRANCH   1   2
BRANCH   1  18
ATOM     18  C   UNL     1       0.850  12.171  20.765  0.00  0.00    +0.000 C 
BRANCH  18  19
ATOM     19  O   UNL     1       0.712  11.671  19.438  0.00  0.00    +0.000 OA
BRANCH  19  20
ATOM     20  C   UNL     1       1.139  10.380  19.278  0.00  0.00    +0.000 A 
ATOM     21  C   UNL     1       1.005   9.562  20.397  0.00  0.00    +0.000 A 
ATOM     22  C   UNL     1       1.402   8.222  20.344  0.00  0.00    +0.000 A 
ATOM     23  C   UNL     1       1.926   7.680  19.162  0.00  0.00    +0.000 A 
ATOM     24  C   UNL     1       2.043   8.509  18.040  0.00  0.00    +0.000 A 
ATOM     25  C   UNL     1       1.651   9.847  18.095  0.00  0.00    +0.000 A 
BRANCH  23  26
ATOM     26  C   UNL     1       2.359   6.299  19.066  0.00  0.00    +0.000 A 
ATOM     27  C   UNL     1       2.589   5.436  20.114  0.00  0.00    +0.000 A 
ATOM     28  N   UNL     1       3.016   4.267  19.545  0.00  0.00    +0.000 N 
ATOM     29  C   UNL     1       3.412   3.079  20.153  0.00  0.00    +0.000 A 
ATOM     30  C   UNL     1       3.813   2.052  19.384  0.00  0.00    +0.000 A 
ATOM     31  C   UNL     1       3.811   2.215  17.938  0.00  0.00    +0.000 A 
ATOM     32  C   UNL     1       3.420   3.368  17.355  0.00  0.00    +0.000 A 
ATOM     33  C   UNL     1       3.006   4.461  18.167  0.00  0.00    +0.000 A 
ATOM     34  N   UNL     1       2.610   5.674  17.860  0.00  0.00    +0.000 NA
ENDBRANCH  23  26
ENDBRANCH  19  20
ENDBRANCH  18  19
ENDBRANCH   1  18
TORSDOF 8
ENDMDL
MODEL 6
REMARK VINA RESULT:      -7.2      3.586      8.936
REMARK  Name = 
REMARK  8 active torsions:
REMARK  status: ('A' for Active; 'I' for Inactive)
REMARK    1  A    between atoms: C_6  and  N_7
REMARK    2  A    between atoms: N_10  and  C_11
REMARK    3  A    between atoms: C_11  and  C_12
REMARK    4  A    between atoms: C_12  and  C_13
REMARK    5  A    between atoms: C_13  and  C_14
REMARK    6  A    between atoms: C_14  and  O_15
REMARK    7  A    between atoms: O_15  and  C_16
REMARK    8  A    between atoms: C_19  and  C_20
REMARK                            x       y       z     vdW  Elec       q    Type
REMARK                         _______ _______ _______ _____ _____    ______ ____
ROOT
ATOM      1  C   UNL     1       4.272   5.002  18.420  0.00  0.00    +0.000 C 
ENDROOT
BRANCH   1   2
ATOM      2  C   UNL     1       2.799   4.818  18.074  0.00  0.00    +0.000 C 
BRANCH   2   3
ATOM      3  C   UNL     1       1.965   6.027  18.489  0.00  0.00    +0.000 C 
BRANCH   3   7
ATOM      4  N   UNL     1       1.001   9.506  18.915  0.00  0.00    +0.000 N 
ATOM      5  C   UNL     1       1.551   9.011  17.642  0.00  0.00    +0.000 C 
ATOM      6  C   UNL     1       2.854   8.196  17.867  0.00  0.00    +0.000 C 
ATOM      7  N   UNL     1       2.796   7.160  18.930  0.00  0.00    +0.000 NA
ATOM      8  C   UNL     1       2.292   7.820  20.158  0.00  0.00    +0.000 C 
ATOM      9  C   UNL     1       0.916   8.495  19.984  0.00  0.00    +0.000 C 
BRANCH   4  15
ATOM     10 CL   UNL     1       1.185  14.773  18.795  0.00  0.00    +0.000 Cl
ATOM     11  C   UNL     1       0.445  13.229  19.073  0.00  0.00    +0.000 A 
ATOM     12  C   UNL     1      -0.859  13.248  19.569  0.00  0.00    +0.000 A 
ATOM     13  C   UNL     1      -1.515  12.059  19.832  0.00  0.00    +0.000 A 
ATOM     14  C   UNL     1      -0.857  10.852  19.610  0.00  0.00    +0.000 A 
ATOM     15  C   UNL     1       0.457  10.771  19.088  0.00  0.00    +0.000 A 
ATOM     16  C   UNL     1       1.101  12.006  18.813  0.00  0.00    +0.000 A 
ATOM     17 CL   UNL     1       2.669  12.070  18.051  0.00  0.00    +0.000 Cl
ENDBRANCH   4  15
ENDBRANCH   3   7
ENDBRANCH   2   3
ENDBRANCH   1   2
BRANCH   1  18
ATOM     18  C   UNL     1       5.105   4.792  17.165  0.00  0.00    +0.000 C 
BRANCH  18  19
ATOM     19  O   UNL     1       6.478   4.678  17.529  0.00  0.00    +0.000 OA
BRANCH  19  20
ATOM     20  C   UNL     1       7.077   5.869  17.837  0.00  0.00    +0.000 A 
ATOM     21  C   UNL     1       6.778   6.929  16.983  0.00  0.00    +0.000 A 
ATOM     22  C   UNL     1       7.330   8.194  17.208  0.00  0.00    +0.000 A 
ATOM     23  C   UNL     1       8.178   8.418  18.300  0.00  0.00    +0.000 A 
ATOM     24  C   UNL     1       8.461   7.349  19.159  0.00  0.00    +0.000 A 
ATOM     25  C   UNL     1       7.913   6.085  18.932  0.00  0.00    +0.000 A 
BRANCH  23  26
ATOM     26  C   UNL     1       8.779   9.712  18.565  0.00  0.00    +0.000 A 
ATOM     27  C   UNL     1       8.717  10.826  17.758  0.00  0.00    +0.000 A 
ATOM     28  N   UNL     1       9.458  11.785  18.394  0.00  0.00    +0.000 N 
ATOM     29  C   UNL     1       9.748  13.087  17.997  0.00  0.00    +0.000 A 
ATOM     30  C   UNL     1      10.520  13.856  18.785  0.00  0.00    +0.000 A 
ATOM     31  C   UNL     1      11.019  13.301  20.035  0.00  0.00    +0.000 A 
ATOM     32  C   UNL     1      10.730  12.039  20.415  0.00  0.00    +0.000 A 
ATOM     33  C   UNL     1       9.922  11.219  19.578  0.00  0.00    +0.000 A 
ATOM     34  N   UNL     1       9.521   9.976  19.700  0.00  0.00    +0.000 NA
ENDBRANCH  23  26
ENDBRANCH  19  20
ENDBRANCH  18  19
ENDBRANCH   1  18
TORSDOF 8
ENDMDL
MODEL 7
REMARK VINA RESULT:      -7.2      5.517      8.627
REMARK  Name = 
REMARK  8 active torsions:
REMARK  status: ('A' for Active; 'I' for Inactive)
REMARK    1  A    between atoms: C_6  and  N_7
REMARK    2  A    between atoms: N_10  and  C_11
REMARK    3  A    between atoms: C_11  and  C_12
REMARK    4  A    between atoms: C_12  and  C_13
REMARK    5  A    between atoms: C_13  and  C_14
REMARK    6  A    between atoms: C_14  and  O_15
REMARK    7  A    between atoms: O_15  and  C_16
REMARK    8  A    between atoms: C_19  and  C_20
REMARK                            x       y       z     vdW  Elec       q    Type
REMARK                         _______ _______ _______ _____ _____    ______ ____
ROOT
ATOM      1  C   UNL     1       2.201  13.671  19.650  0.00  0.00    +0.000 C 
ENDROOT
BRANCH   1   2
ATOM      2  C   UNL     1       1.599  13.226  20.978  0.00  0.00    +0.000 C 
BRANCH   2   3
ATOM      3  C   UNL     1       0.738  14.320  21.603  0.00  0.00    +0.000 C 
BRANCH   3   7
ATOM      4  N   UNL     1      -2.854  13.865  21.939  0.00  0.00    +0.000 N 
ATOM      5  C   UNL     1      -2.201  15.132  22.311  0.00  0.00    +0.000 C 
ATOM      6  C   UNL     1      -0.971  14.887  23.228  0.00  0.00    +0.000 C 
ATOM      7  N   UNL     1      -0.019  13.841  22.772  0.00  0.00    +0.000 NA
ATOM      8  C   UNL     1      -0.810  12.616  22.504  0.00  0.00    +0.000 C 
ATOM      9  C   UNL     1      -1.935  12.815  21.466  0.00  0.00    +0.000 C 
BRANCH   4  15
ATOM     10 CL   UNL     1      -7.474  12.182  23.835  0.00  0.00    +0.000 Cl
ATOM     11  C   UNL     1      -6.429  12.933  22.673  0.00  0.00    +0.000 A 
ATOM     12  C   UNL     1      -7.034  13.393  21.503  0.00  0.00    +0.000 A 
ATOM     13  C   UNL     1      -6.267  13.992  20.519  0.00  0.00    +0.000 A 
ATOM     14  C   UNL     1      -4.893  14.115  20.705  0.00  0.00    +0.000 A 
ATOM     15  C   UNL     1      -4.228  13.687  21.879  0.00  0.00    +0.000 A 
ATOM     16  C   UNL     1      -5.041  13.090  22.879  0.00  0.00    +0.000 A 
ATOM     17 CL   UNL     1      -4.391  12.628  24.430  0.00  0.00    +0.000 Cl
ENDBRANCH   4  15
ENDBRANCH   3   7
ENDBRANCH   2   3
ENDBRANCH   1   2
BRANCH   1  18
ATOM     18  C   UNL     1       2.012  12.562  18.625  0.00  0.00    +0.000 C 
BRANCH  18  19
ATOM     19  O   UNL     1       0.958  11.705  19.054  0.00  0.00    +0.000 OA
BRANCH  19  20
ATOM     20  C   UNL     1       1.295  10.379  19.097  0.00  0.00    +0.000 A 
ATOM     21  C   UNL     1       1.943   9.888  17.965  0.00  0.00    +0.000 A 
ATOM     22  C   UNL     1       2.340   8.549  17.903  0.00  0.00    +0.000 A 
ATOM     23  C   UNL     1       2.105   7.686  18.981  0.00  0.00    +0.000 A 
ATOM     24  C   UNL     1       1.465   8.192  20.119  0.00  0.00    +0.000 A 
ATOM     25  C   UNL     1       1.065   9.528  20.178  0.00  0.00    +0.000 A 
BRANCH  23  26
ATOM     26  C   UNL     1       2.491   6.287  18.956  0.00  0.00    +0.000 A 
ATOM     27  C   UNL     1       2.941   5.580  17.863  0.00  0.00    +0.000 A 
ATOM     28  N   UNL     1       3.142   4.301  18.307  0.00  0.00    +0.000 N 
ATOM     29  C   UNL     1       3.564   3.176  17.604  0.00  0.00    +0.000 A 
ATOM     30  C   UNL     1       3.675   2.003  18.250  0.00  0.00    +0.000 A 
ATOM     31  C   UNL     1       3.359   1.952  19.671  0.00  0.00    +0.000 A 
ATOM     32  C   UNL     1       2.956   3.048  20.347  0.00  0.00    +0.000 A 
ATOM     33  C   UNL     1       2.826   4.289  19.662  0.00  0.00    +0.000 A 
ATOM     34  N   UNL     1       2.437   5.474  20.071  0.00  0.00    +0.000 NA
ENDBRANCH  23  26
ENDBRANCH  19  20
ENDBRANCH  18  19
ENDBRANCH   1  18
TORSDOF 8
ENDMDL
MODEL 8
REMARK VINA RESULT:      -7.1      1.960      2.777
REMARK  Name = 
REMARK  8 active torsions:
REMARK  status: ('A' for Active; 'I' for Inactive)
REMARK    1  A    between atoms: C_6  and  N_7
REMARK    2  A    between atoms: N_10  and  C_11
REMARK    3  A    between atoms: C_11  and  C_12
REMARK    4  A    between atoms: C_12  and  C_13
REMARK    5  A    between atoms: C_13  and  C_14
REMARK    6  A    between atoms: C_14  and  O_15
REMARK    7  A    between atoms: O_15  and  C_16
REMARK    8  A    between atoms: C_19  and  C_20
REMARK                            x       y       z     vdW  Elec       q    Type
REMARK                         _______ _______ _______ _____ _____    ______ ____
ROOT
ATOM      1  C   UNL     1       0.017  13.928  20.321  0.00  0.00    +0.000 C 
ENDROOT
BRANCH   1   2
ATOM      2  C   UNL     1       0.146  14.642  18.981  0.00  0.00    +0.000 C 
BRANCH   2   3
ATOM      3  C   UNL     1       1.342  15.591  18.959  0.00  0.00    +0.000 C 
BRANCH   3   7
ATOM      4  N   UNL     1       4.888  15.308  19.708  0.00  0.00    +0.000 N 
ATOM      5  C   UNL     1       4.325  16.526  19.099  0.00  0.00    +0.000 C 
ATOM      6  C   UNL     1       3.429  16.184  17.876  0.00  0.00    +0.000 C 
ATOM      7  N   UNL     1       2.427  15.109  18.087  0.00  0.00    +0.000 NA
ATOM      8  C   UNL     1       3.149  13.936  18.635  0.00  0.00    +0.000 C 
ATOM      9  C   UNL     1       3.912  14.230  19.944  0.00  0.00    +0.000 C 
BRANCH   4  15
ATOM     10 CL   UNL     1      10.075  14.608  19.087  0.00  0.00    +0.000 Cl
ATOM     11  C   UNL     1       8.619  14.880  19.991  0.00  0.00    +0.000 A 
ATOM     12  C   UNL     1       8.760  14.973  21.376  0.00  0.00    +0.000 A 
ATOM     13  C   UNL     1       7.646  15.175  22.170  0.00  0.00    +0.000 A 
ATOM     14  C   UNL     1       6.390  15.268  21.575  0.00  0.00    +0.000 A 
ATOM     15  C   UNL     1       6.190  15.203  20.175  0.00  0.00    +0.000 A 
ATOM     16  C   UNL     1       7.353  15.011  19.382  0.00  0.00    +0.000 A 
ATOM     17 CL   UNL     1       7.285  15.036  17.639  0.00  0.00    +0.000 Cl
ENDBRANCH   4  15
ENDBRANCH   3   7
ENDBRANCH   2   3
ENDBRANCH   1   2
BRANCH   1  18
ATOM     18  C   UNL     1      -0.342  12.470  20.073  0.00  0.00    +0.000 C 
BRANCH  18  19
ATOM     19  O   UNL     1       0.406  11.987  18.961  0.00  0.00    +0.000 OA
BRANCH  19  20
ATOM     20  C   UNL     1       0.876  10.711  19.113  0.00  0.00    +0.000 A 
ATOM     21  C   UNL     1       0.654  10.135  20.362  0.00  0.00    +0.000 A 
ATOM     22  C   UNL     1       1.086   8.832  20.626  0.00  0.00    +0.000 A 
ATOM     23  C   UNL     1       1.735   8.082  19.636  0.00  0.00    +0.000 A 
ATOM     24  C   UNL     1       1.941   8.666  18.381  0.00  0.00    +0.000 A 
ATOM     25  C   UNL     1       1.514   9.968  18.119  0.00  0.00    +0.000 A 
BRANCH  23  26
ATOM     26  C   UNL     1       2.208   6.730  19.869  0.00  0.00    +0.000 A 
ATOM     27  C   UNL     1       3.240   6.098  19.212  0.00  0.00    +0.000 A 
ATOM     28  N   UNL     1       3.294   4.835  19.738  0.00  0.00    +0.000 N 
ATOM     29  C   UNL     1       4.134   3.775  19.409  0.00  0.00    +0.000 A 
ATOM     30  C   UNL     1       3.995   2.604  20.055  0.00  0.00    +0.000 A 
ATOM     31  C   UNL     1       2.974   2.489  21.086  0.00  0.00    +0.000 A 
ATOM     32  C   UNL     1       2.166   3.522  21.402  0.00  0.00    +0.000 A 
ATOM     33  C   UNL     1       2.304   4.759  20.713  0.00  0.00    +0.000 A 
ATOM     34  N   UNL     1       1.644   5.890  20.809  0.00  0.00    +0.000 NA
ENDBRANCH  23  26
ENDBRANCH  19  20
ENDBRANCH  18  19
ENDBRANCH   1  18
TORSDOF 8
ENDMDL
MODEL 9
REMARK VINA RESULT:      -7.1      5.192      8.015
REMARK  Name = 
REMARK  8 active torsions:
REMARK  status: ('A' for Active; 'I' for Inactive)
REMARK    1  A    between atoms: C_6  and  N_7
REMARK    2  A    between atoms: N_10  and  C_11
REMARK    3  A    between atoms: C_11  and  C_12
REMARK    4  A    between atoms: C_12  and  C_13
REMARK    5  A    between atoms: C_13  and  C_14
REMARK    6  A    between atoms: C_14  and  O_15
REMARK    7  A    between atoms: O_15  and  C_16
REMARK    8  A    between atoms: C_19  and  C_20
REMARK                            x       y       z     vdW  Elec       q    Type
REMARK                         _______ _______ _______ _____ _____    ______ ____
ROOT
ATOM      1  C   UNL     1       2.266  13.733  18.363  0.00  0.00    +0.000 C 
ENDROOT
BRANCH   1   2
ATOM      2  C   UNL     1       2.143  15.152  18.904  0.00  0.00    +0.000 C 
BRANCH   2   3
ATOM      3  C   UNL     1       1.481  15.178  20.279  0.00  0.00    +0.000 C 
BRANCH   3   7
ATOM      4  N   UNL     1      -1.684  14.445  21.912  0.00  0.00    +0.000 N 
ATOM      5  C   UNL     1      -1.426  14.043  20.519  0.00  0.00    +0.000 C 
ATOM      6  C   UNL     1      -0.869  15.228  19.682  0.00  0.00    +0.000 C 
ATOM      7  N   UNL     1       0.250  15.987  20.296  0.00  0.00    +0.000 NA
ATOM      8  C   UNL     1      -0.182  16.378  21.659  0.00  0.00    +0.000 C 
ATOM      9  C   UNL     1      -0.583  15.186  22.553  0.00  0.00    +0.000 C 
BRANCH   4  15
ATOM     10 CL   UNL     1      -6.497  15.160  23.938  0.00  0.00    +0.000 Cl
ATOM     11  C   UNL     1      -5.029  14.287  23.637  0.00  0.00    +0.000 A 
ATOM     12  C   UNL     1      -4.924  13.029  24.233  0.00  0.00    +0.000 A 
ATOM     13  C   UNL     1      -3.778  12.275  24.053  0.00  0.00    +0.000 A 
ATOM     14  C   UNL     1      -2.734  12.789  23.289  0.00  0.00    +0.000 A 
ATOM     15  C   UNL     1      -2.794  14.047  22.644  0.00  0.00    +0.000 A 
ATOM     16  C   UNL     1      -3.986  14.794  22.832  0.00  0.00    +0.000 A 
ATOM     17 CL   UNL     1      -4.261  16.303  22.001  0.00  0.00    +0.000 Cl
ENDBRANCH   4  15
ENDBRANCH   3   7
ENDBRANCH   2   3
ENDBRANCH   1   2
BRANCH   1  18
ATOM     18  C   UNL     1       1.913  12.750  19.470  0.00  0.00    +0.000 C 
BRANCH  18  19
ATOM     19  O   UNL     1       0.890  11.873  19.006  0.00  0.00    +0.000 OA
BRANCH  19  20
ATOM     20  C   UNL     1       1.227  10.547  19.049  0.00  0.00    +0.000 A 
ATOM     21  C   UNL     1       1.842  10.047  17.903  0.00  0.00    +0.000 A 
ATOM     22  C   UNL     1       2.234   8.707  17.840  0.00  0.00    +0.000 A 
ATOM     23  C   UNL     1       2.028   7.852  18.930  0.00  0.00    +0.000 A 
ATOM     24  C   UNL     1       1.421   8.367  20.081  0.00  0.00    +0.000 A 
ATOM     25  C   UNL     1       1.025   9.705  20.143  0.00  0.00    +0.000 A 
BRANCH  23  26
ATOM     26  C   UNL     1       2.411   6.452  18.904  0.00  0.00    +0.000 A 
ATOM     27  C   UNL     1       2.701   5.661  19.993  0.00  0.00    +0.000 A 
ATOM     28  N   UNL     1       3.044   4.438  19.482  0.00  0.00    +0.000 N 
ATOM     29  C   UNL     1       3.454   3.285  20.145  0.00  0.00    +0.000 A 
ATOM     30  C   UNL     1       3.760   2.191  19.427  0.00  0.00    +0.000 A 
ATOM     31  C   UNL     1       3.643   2.248  17.977  0.00  0.00    +0.000 A 
ATOM     32  C   UNL     1       3.241   3.368  17.342  0.00  0.00    +0.000 A 
ATOM     33  C   UNL     1       2.927   4.531  18.098  0.00  0.00    +0.000 A 
ATOM     34  N   UNL     1       2.543   5.732  17.733  0.00  0.00    +0.000 NA
ENDBRANCH  23  26
ENDBRANCH  19  20
ENDBRANCH  18  19
ENDBRANCH   1  18
TORSDOF 8
ENDMDL
