MODEL 1
REMARK VINA RESULT:      -7.8      0.000      0.000
REMARK  Name = 
REMARK  7 active torsions:
REMARK  status: ('A' for Active; 'I' for Inactive)
REMARK    1  A    between atoms: C_1  and  C_2
REMARK    2  A    between atoms: C_6  and  C_7
REMARK    3  A    between atoms: C_11  and  N_12
REMARK    4  A    between atoms: N_12  and  C_13
REMARK    5  A    between atoms: C_13  and  C_14
REMARK    6  A    between atoms: C_13  and  C_24
REMARK    7  A    between atoms: C_17  and  C_18
REMARK                            x       y       z     vdW  Elec       q    Type
REMARK                         _______ _______ _______ _____ _____    ______ ____
ROOT
ATOM      1  C   UNL     1       3.180   6.080  19.116  0.00  0.00    +0.000 C 
ENDROOT
BRANCH   1   2
ATOM      2  C   UNL     1       2.380   7.379  19.130  0.00  0.00    +0.000 A 
ATOM      3  C   UNL     1       1.758   7.848  20.295  0.00  0.00    +0.000 A 
ATOM      4  C   UNL     1       0.972   9.004  20.269  0.00  0.00    +0.000 A 
ATOM      5  C   UNL     1       0.781   9.712  19.074  0.00  0.00    +0.000 A 
ATOM      6  C   UNL     1       1.399   9.246  17.905  0.00  0.00    +0.000 A 
ATOM      7  C   UNL     1       2.193   8.096  17.934  0.00  0.00    +0.000 A 
BRANCH   5   8
ATOM      8  C   UNL     1      -0.077  10.953  19.031  0.00  0.00    +0.000 C 
ATOM      9  F   UNL     1      -0.606  11.293  20.240  0.00  0.00    +0.000 F 
ATOM     10  F   UNL     1       0.609  12.049  18.601  0.00  0.00    +0.000 F 
ATOM     11  F   UNL     1      -1.138  10.822  18.186  0.00  0.00    +0.000 F 
ENDBRANCH   5   8
ENDBRANCH   1   2
BRANCH   1  12
ATOM     12  C   UNL     1       2.395   4.892  19.653  0.00  0.00    +0.000 A 
ATOM     13  C   UNL     1       1.554   4.090  18.876  0.00  0.00    +0.000 A 
ATOM     14  C   UNL     1       0.893   3.008  19.457  0.00  0.00    +0.000 A 
ATOM     15  C   UNL     1       1.087   2.763  20.804  0.00  0.00    +0.000 A 
ATOM     16  N   UNL     1       1.878   3.519  21.597  0.00  0.00    +0.000 NA
ATOM     17  C   UNL     1       2.504   4.561  21.005  0.00  0.00    +0.000 A 
ENDBRANCH   1  12
BRANCH   1  18
ATOM     18  N   UNL     1       3.802   5.798  17.796  0.00  0.00    +0.000 NA
ATOM     19  H   UNL     1       3.573   4.832  17.554  0.00  0.00    +0.000 HD
BRANCH  18  24
ATOM     20  C   UNL     1       6.184   4.044  15.440  0.00  0.00    +0.000 C 
ATOM     21  O   UNL     1       5.596   2.996  15.707  0.00  0.00    +0.000 OA
ATOM     22  N   UNL     1       6.406   5.004  16.415  0.00  0.00    +0.000 N 
ATOM     23  C   UNL     1       6.087   4.785  17.830  0.00  0.00    +0.000 C 
ATOM     24  C   UNL     1       5.259   6.077  17.816  0.00  0.00    +0.000 C 
ATOM     25  C   UNL     1       5.760   6.331  16.389  0.00  0.00    +0.000 C 
BRANCH  20  31
ATOM     26  C   UNL     1       5.221   3.023  12.481  0.00  0.00    +0.000 C 
ATOM     27  C   UNL     1       6.331   3.940  12.856  0.00  0.00    +0.000 A 
ATOM     28  N   UNL     1       7.062   4.500  11.813  0.00  0.00    +0.000 NA
ATOM     29  C   UNL     1       7.950   5.340  12.291  0.00  0.00    +0.000 A 
ATOM     30  S   UNL     1       8.002   5.492  13.991  0.00  0.00    +0.000 S 
ATOM     31  C   UNL     1       6.714   4.355  14.124  0.00  0.00    +0.000 A 
ENDBRANCH  20  31
ENDBRANCH  18  24
ENDBRANCH   1  18
TORSDOF 6
ENDMDL
MODEL 2
REMARK VINA RESULT:      -7.7      0.784      1.030
REMARK  Name = 
REMARK  7 active torsions:
REMARK  status: ('A' for Active; 'I' for Inactive)
REMARK    1  A    between atoms: C_1  and  C_2
REMARK    2  A    between atoms: C_6  and  C_7
REMARK    3  A    between atoms: C_11  and  N_12
REMARK    4  A    between atoms: N_12  and  C_13
REMARK    5  A    between atoms: C_13  and  C_14
REMARK    6  A    between atoms: C_13  and  C_24
REMARK    7  A    between atoms: C_17  and  C_18
REMARK                            x       y       z     vdW  Elec       q    Type
REMARK                         _______ _______ _______ _____ _____    ______ ____
ROOT
ATOM      1  C   UNL     1       3.020   6.256  18.817  0.00  0.00    +0.000 C 
ENDROOT
BRANCH   1   2
ATOM      2  C   UNL     1       2.237   7.545  19.049  0.00  0.00    +0.000 A 
ATOM      3  C   UNL     1       1.732   7.882  20.311  0.00  0.00    +0.000 A 
ATOM      4  C   UNL     1       0.958   9.033  20.486  0.00  0.00    +0.000 A 
ATOM      5  C   UNL     1       0.663   9.869  19.399  0.00  0.00    +0.000 A 
ATOM      6  C   UNL     1       1.165   9.535  18.133  0.00  0.00    +0.000 A 
ATOM      7  C   UNL     1       1.946   8.389  17.962  0.00  0.00    +0.000 A 
BRANCH   5   8
ATOM      8  C   UNL     1      -0.184  11.107  19.573  0.00  0.00    +0.000 C 
ATOM      9  F   UNL     1      -1.033  11.042  20.637  0.00  0.00    +0.000 F 
ATOM     10  F   UNL     1       0.564  12.230  19.760  0.00  0.00    +0.000 F 
ATOM     11  F   UNL     1      -0.968  11.357  18.487  0.00  0.00    +0.000 F 
ENDBRANCH   5   8
ENDBRANCH   1   2
BRANCH   1  12
ATOM     12  C   UNL     1       2.223   5.007  19.164  0.00  0.00    +0.000 A 
ATOM     13  C   UNL     1       1.911   4.610  20.468  0.00  0.00    +0.000 A 
ATOM     14  C   UNL     1       1.156   3.458  20.681  0.00  0.00    +0.000 A 
ATOM     15  C   UNL     1       0.738   2.729  19.583  0.00  0.00    +0.000 A 
ATOM     16  N   UNL     1       1.028   3.066  18.307  0.00  0.00    +0.000 NA
ATOM     17  C   UNL     1       1.763   4.187  18.132  0.00  0.00    +0.000 A 
ENDBRANCH   1  12
BRANCH   1  18
ATOM     18  N   UNL     1       3.627   6.184  17.463  0.00  0.00    +0.000 NA
ATOM     19  H   UNL     1       3.412   5.260  17.084  0.00  0.00    +0.000 HD
BRANCH  18  24
ATOM     20  C   UNL     1       6.114   4.235  15.385  0.00  0.00    +0.000 C 
ATOM     21  O   UNL     1       5.529   3.212  15.735  0.00  0.00    +0.000 OA
ATOM     22  N   UNL     1       6.289   5.293  16.264  0.00  0.00    +0.000 N 
ATOM     23  C   UNL     1       5.921   5.214  17.681  0.00  0.00    +0.000 C 
ATOM     24  C   UNL     1       5.079   6.484  17.507  0.00  0.00    +0.000 C 
ATOM     25  C   UNL     1       5.631   6.601  16.079  0.00  0.00    +0.000 C 
BRANCH  20  31
ATOM     26  C   UNL     1       5.172   3.036  12.486  0.00  0.00    +0.000 C 
ATOM     27  C   UNL     1       6.317   3.927  12.820  0.00  0.00    +0.000 A 
ATOM     28  N   UNL     1       7.098   4.371  11.758  0.00  0.00    +0.000 NA
ATOM     29  C   UNL     1       8.014   5.203  12.195  0.00  0.00    +0.000 A 
ATOM     30  S   UNL     1       8.034   5.483  13.879  0.00  0.00    +0.000 S 
ATOM     31  C   UNL     1       6.690   4.420  14.062  0.00  0.00    +0.000 A 
ENDBRANCH  20  31
ENDBRANCH  18  24
ENDBRANCH   1  18
TORSDOF 6
ENDMDL
MODEL 3
REMARK VINA RESULT:      -7.6      0.275      1.171
REMARK  Name = 
REMARK  7 active torsions:
REMARK  status: ('A' for Active; 'I' for Inactive)
REMARK    1  A    between atoms: C_1  and  C_2
REMARK    2  A    between atoms: C_6  and  C_7
REMARK    3  A    between atoms: C_11  and  N_12
REMARK    4  A    between atoms: N_12  and  C_13
REMARK    5  A    between atoms: C_13  and  C_14
REMARK    6  A    between atoms: C_13  and  C_24
REMARK    7  A    between atoms: C_17  and  C_18
REMARK                            x       y       z     vdW  Elec       q    Type
REMARK                         _______ _______ _______ _____ _____    ______ ____
ROOT
ATOM      1  C   UNL     1       3.089   6.191  19.004  0.00  0.00    +0.000 C 
ENDROOT
BRANCH   1   2
ATOM      2  C   UNL     1       2.242   7.460  19.030  0.00  0.00    +0.000 A 
ATOM      3  C   UNL     1       2.052   8.242  17.884  0.00  0.00    +0.000 A 
ATOM      4  C   UNL     1       1.330   9.438  17.947  0.00  0.00    +0.000 A 
ATOM      5  C   UNL     1       0.791   9.885  19.161  0.00  0.00    +0.000 A 
ATOM      6  C   UNL     1       0.980   9.107  20.312  0.00  0.00    +0.000 A 
ATOM      7  C   UNL     1       1.693   7.907  20.246  0.00  0.00    +0.000 A 
BRANCH   5   8
ATOM      8  C   UNL     1       0.022  11.181  19.244  0.00  0.00    +0.000 C 
ATOM      9  F   UNL     1      -0.915  11.323  18.265  0.00  0.00    +0.000 F 
ATOM     10  F   UNL     1      -0.645  11.319  20.423  0.00  0.00    +0.000 F 
ATOM     11  F   UNL     1       0.832  12.272  19.143  0.00  0.00    +0.000 F 
ENDBRANCH   5   8
ENDBRANCH   1   2
BRANCH   1  12
ATOM     12  C   UNL     1       2.372   4.986  19.593  0.00  0.00    +0.000 A 
ATOM     13  C   UNL     1       1.519   4.147  18.868  0.00  0.00    +0.000 A 
ATOM     14  C   UNL     1       0.925   3.052  19.493  0.00  0.00    +0.000 A 
ATOM     15  C   UNL     1       1.196   2.828  20.830  0.00  0.00    +0.000 A 
ATOM     16  N   UNL     1       2.000   3.619  21.574  0.00  0.00    +0.000 NA
ATOM     17  C   UNL     1       2.561   4.674  20.941  0.00  0.00    +0.000 A 
ENDBRANCH   1  12
BRANCH   1  18
ATOM     18  N   UNL     1       3.666   5.909  17.664  0.00  0.00    +0.000 NA
ATOM     19  H   UNL     1       3.527   4.914  17.478  0.00  0.00    +0.000 HD
BRANCH  18  24
ATOM     20  C   UNL     1       6.147   4.137  15.426  0.00  0.00    +0.000 C 
ATOM     21  O   UNL     1       5.683   3.074  15.839  0.00  0.00    +0.000 OA
ATOM     22  N   UNL     1       6.295   5.226  16.271  0.00  0.00    +0.000 N 
ATOM     23  C   UNL     1       6.046   5.148  17.715  0.00  0.00    +0.000 C 
ATOM     24  C   UNL     1       5.085   6.336  17.587  0.00  0.00    +0.000 C 
ATOM     25  C   UNL     1       5.511   6.467  16.118  0.00  0.00    +0.000 C 
BRANCH  20  31
ATOM     26  C   UNL     1       4.881   3.063  12.603  0.00  0.00    +0.000 C 
ATOM     27  C   UNL     1       6.088   3.899  12.847  0.00  0.00    +0.000 A 
ATOM     28  N   UNL     1       6.780   4.345  11.726  0.00  0.00    +0.000 NA
ATOM     29  C   UNL     1       7.767   5.128  12.094  0.00  0.00    +0.000 A 
ATOM     30  S   UNL     1       7.961   5.356  13.775  0.00  0.00    +0.000 S 
ATOM     31  C   UNL     1       6.599   4.340  14.060  0.00  0.00    +0.000 A 
ENDBRANCH  20  31
ENDBRANCH  18  24
ENDBRANCH   1  18
TORSDOF 6
ENDMDL
MODEL 4
REMARK VINA RESULT:      -7.5      0.875      1.553
REMARK  Name = 
REMARK  7 active torsions:
REMARK  status: ('A' for Active; 'I' for Inactive)
REMARK    1  A    between atoms: C_1  and  C_2
REMARK    2  A    between atoms: C_6  and  C_7
REMARK    3  A    between atoms: C_11  and  N_12
REMARK    4  A    between atoms: N_12  and  C_13
REMARK    5  A    between atoms: C_13  and  C_14
REMARK    6  A    between atoms: C_13  and  C_24
REMARK    7  A    between atoms: C_17  and  C_18
REMARK                            x       y       z     vdW  Elec       q    Type
REMARK                         _______ _______ _______ _____ _____    ______ ____
ROOT
ATOM      1  C   UNL     1       2.936   6.188  18.825  0.00  0.00    +0.000 C 
ENDROOT
BRANCH   1   2
ATOM      2  C   UNL     1       2.148   7.463  19.112  0.00  0.00    +0.000 A 
ATOM      3  C   UNL     1       1.901   8.415  18.114  0.00  0.00    +0.000 A 
ATOM      4  C   UNL     1       1.238   9.608  18.415  0.00  0.00    +0.000 A 
ATOM      5  C   UNL     1       0.815   9.881  19.724  0.00  0.00    +0.000 A 
ATOM      6  C   UNL     1       1.062   8.933  20.726  0.00  0.00    +0.000 A 
ATOM      7  C   UNL     1       1.717   7.736  20.422  0.00  0.00    +0.000 A 
BRANCH   5   8
ATOM      8  C   UNL     1       0.111  11.173  20.063  0.00  0.00    +0.000 C 
ATOM      9  F   UNL     1      -1.157  11.248  19.571  0.00  0.00    +0.000 F 
ATOM     10  F   UNL     1       0.003  11.373  21.406  0.00  0.00    +0.000 F 
ATOM     11  F   UNL     1       0.764  12.264  19.575  0.00  0.00    +0.000 F 
ENDBRANCH   5   8
ENDBRANCH   1   2
BRANCH   1  12
ATOM     12  C   UNL     1       2.156   4.922  19.145  0.00  0.00    +0.000 A 
ATOM     13  C   UNL     1       1.841   4.499  20.440  0.00  0.00    +0.000 A 
ATOM     14  C   UNL     1       1.101   3.333  20.630  0.00  0.00    +0.000 A 
ATOM     15  C   UNL     1       0.700   2.617  19.517  0.00  0.00    +0.000 A 
ATOM     16  N   UNL     1       0.993   2.979  18.248  0.00  0.00    +0.000 NA
ATOM     17  C   UNL     1       1.713   4.113  18.097  0.00  0.00    +0.000 A 
ENDBRANCH   1  12
BRANCH   1  18
ATOM     18  N   UNL     1       3.520   6.164  17.458  0.00  0.00    +0.000 NA
ATOM     19  H   UNL     1       3.351   5.232  17.074  0.00  0.00    +0.000 HD
BRANCH  18  24
ATOM     20  C   UNL     1       6.104   4.270  15.450  0.00  0.00    +0.000 C 
ATOM     21  O   UNL     1       5.580   3.231  15.850  0.00  0.00    +0.000 OA
ATOM     22  N   UNL     1       6.222   5.374  16.279  0.00  0.00    +0.000 N 
ATOM     23  C   UNL     1       5.866   5.338  17.702  0.00  0.00    +0.000 C 
ATOM     24  C   UNL     1       4.952   6.549  17.477  0.00  0.00    +0.000 C 
ATOM     25  C   UNL     1       5.488   6.633  16.042  0.00  0.00    +0.000 C 
BRANCH  20  31
ATOM     26  C   UNL     1       5.098   3.043  12.584  0.00  0.00    +0.000 C 
ATOM     27  C   UNL     1       6.261   3.922  12.887  0.00  0.00    +0.000 A 
ATOM     28  N   UNL     1       7.031   4.339  11.806  0.00  0.00    +0.000 NA
ATOM     29  C   UNL     1       7.965   5.164  12.217  0.00  0.00    +0.000 A 
ATOM     30  S   UNL     1       8.017   5.467  13.896  0.00  0.00    +0.000 S 
ATOM     31  C   UNL     1       6.660   4.427  14.116  0.00  0.00    +0.000 A 
ENDBRANCH  20  31
ENDBRANCH  18  24
ENDBRANCH   1  18
TORSDOF 6
ENDMDL
MODEL 5
REMARK VINA RESULT:      -7.5      6.346      9.452
REMARK  Name = 
REMARK  7 active torsions:
REMARK  status: ('A' for Active; 'I' for Inactive)
REMARK    1  A    between atoms: C_1  and  C_2
REMARK    2  A    between atoms: C_6  and  C_7
REMARK    3  A    between atoms: C_11  and  N_12
REMARK    4  A    between atoms: N_12  and  C_13
REMARK    5  A    between atoms: C_13  and  C_14
REMARK    6  A    between atoms: C_13  and  C_24
REMARK    7  A    between atoms: C_17  and  C_18
REMARK                            x       y       z     vdW  Elec       q    Type
REMARK                         _______ _______ _______ _____ _____    ______ ____
ROOT
ATOM      1  C   UNL     1       0.522  11.034  18.506  0.00  0.00    +0.000 C 
ENDROOT
BRANCH   1   2
ATOM      2  C   UNL     1       1.189   9.697  18.818  0.00  0.00    +0.000 A 
ATOM      3  C   UNL     1       1.885   8.976  17.839  0.00  0.00    +0.000 A 
ATOM      4  C   UNL     1       2.428   7.721  18.129  0.00  0.00    +0.000 A 
ATOM      5  C   UNL     1       2.279   7.153  19.402  0.00  0.00    +0.000 A 
ATOM      6  C   UNL     1       1.581   7.870  20.384  0.00  0.00    +0.000 A 
ATOM      7  C   UNL     1       1.047   9.129  20.097  0.00  0.00    +0.000 A 
BRANCH   5   8
ATOM      8  C   UNL     1       2.849   5.792  19.722  0.00  0.00    +0.000 C 
ATOM      9  F   UNL     1       2.412   5.283  20.908  0.00  0.00    +0.000 F 
ATOM     10  F   UNL     1       2.539   4.860  18.778  0.00  0.00    +0.000 F 
ATOM     11  F   UNL     1       4.208   5.804  19.802  0.00  0.00    +0.000 F 
ENDBRANCH   5   8
ENDBRANCH   1   2
BRANCH   1  12
ATOM     12  C   UNL     1      -0.978  10.912  18.282  0.00  0.00    +0.000 A 
ATOM     13  C   UNL     1      -1.573   9.965  17.442  0.00  0.00    +0.000 A 
ATOM     14  C   UNL     1      -2.961   9.920  17.320  0.00  0.00    +0.000 A 
ATOM     15  C   UNL     1      -3.717  10.828  18.038  0.00  0.00    +0.000 A 
ATOM     16  N   UNL     1      -3.186  11.769  18.850  0.00  0.00    +0.000 NA
ATOM     17  C   UNL     1      -1.837  11.789  18.946  0.00  0.00    +0.000 A 
ENDBRANCH   1  12
BRANCH   1  18
ATOM     18  N   UNL     1       0.865  12.094  19.489  0.00  0.00    +0.000 NA
ATOM     19  H   UNL     1       0.048  12.225  20.090  0.00  0.00    +0.000 HD
BRANCH  18  24
ATOM     20  C   UNL     1       2.933  14.701  21.286  0.00  0.00    +0.000 C 
ATOM     21  O   UNL     1       2.168  14.576  22.241  0.00  0.00    +0.000 OA
ATOM     22  N   UNL     1       2.461  14.649  19.983  0.00  0.00    +0.000 N 
ATOM     23  C   UNL     1       1.031  14.582  19.661  0.00  0.00    +0.000 C 
ATOM     24  C   UNL     1       1.308  13.336  18.810  0.00  0.00    +0.000 C 
ATOM     25  C   UNL     1       2.807  13.557  19.052  0.00  0.00    +0.000 C 
BRANCH  20  31
ATOM     26  C   UNL     1       4.819  17.045  19.990  0.00  0.00    +0.000 C 
ATOM     27  C   UNL     1       5.186  15.917  20.889  0.00  0.00    +0.000 A 
ATOM     28  N   UNL     1       6.515  15.844  21.294  0.00  0.00    +0.000 NA
ATOM     29  C   UNL     1       6.670  14.852  22.138  0.00  0.00    +0.000 A 
ATOM     30  S   UNL     1       5.276  13.925  22.476  0.00  0.00    +0.000 S 
ATOM     31  C   UNL     1       4.361  14.938  21.424  0.00  0.00    +0.000 A 
ENDBRANCH  20  31
ENDBRANCH  18  24
ENDBRANCH   1  18
TORSDOF 6
ENDMDL
MODEL 6
REMARK VINA RESULT:      -7.5      6.368      9.337
REMARK  Name = 
REMARK  7 active torsions:
REMARK  status: ('A' for Active; 'I' for Inactive)
REMARK    1  A    between atoms: C_1  and  C_2
REMARK    2  A    between atoms: C_6  and  C_7
REMARK    3  A    between atoms: C_11  and  N_12
REMARK    4  A    between atoms: N_12  and  C_13
REMARK    5  A    between atoms: C_13  and  C_14
REMARK    6  A    between atoms: C_13  and  C_24
REMARK    7  A    between atoms: C_17  and  C_18
REMARK                            x       y       z     vdW  Elec       q    Type
REMARK                         _______ _______ _______ _____ _____    ______ ____
ROOT
ATOM      1  C   UNL     1       0.624  11.054  18.564  0.00  0.00    +0.000 C 
ENDROOT
BRANCH   1   2
ATOM      2  C   UNL     1       1.257   9.699  18.869  0.00  0.00    +0.000 A 
ATOM      3  C   UNL     1       1.949   8.973  17.891  0.00  0.00    +0.000 A 
ATOM      4  C   UNL     1       2.461   7.703  18.173  0.00  0.00    +0.000 A 
ATOM      5  C   UNL     1       2.283   7.125  19.439  0.00  0.00    +0.000 A 
ATOM      6  C   UNL     1       1.589   7.847  20.420  0.00  0.00    +0.000 A 
ATOM      7  C   UNL     1       1.086   9.120  20.140  0.00  0.00    +0.000 A 
BRANCH   5   8
ATOM      8  C   UNL     1       2.818   5.749  19.750  0.00  0.00    +0.000 C 
ATOM      9  F   UNL     1       2.379   5.248  20.939  0.00  0.00    +0.000 F 
ATOM     10  F   UNL     1       2.474   4.828  18.808  0.00  0.00    +0.000 F 
ATOM     11  F   UNL     1       4.178   5.723  19.817  0.00  0.00    +0.000 F 
ENDBRANCH   5   8
ENDBRANCH   1   2
BRANCH   1  12
ATOM     12  C   UNL     1      -0.882  10.975  18.366  0.00  0.00    +0.000 A 
ATOM     13  C   UNL     1      -1.519  10.041  17.542  0.00  0.00    +0.000 A 
ATOM     14  C   UNL     1      -2.909  10.036  17.443  0.00  0.00    +0.000 A 
ATOM     15  C   UNL     1      -3.626  10.970  18.167  0.00  0.00    +0.000 A 
ATOM     16  N   UNL     1      -3.054  11.900  18.964  0.00  0.00    +0.000 NA
ATOM     17  C   UNL     1      -1.704  11.881  19.038  0.00  0.00    +0.000 A 
ENDBRANCH   1  12
BRANCH   1  18
ATOM     18  N   UNL     1       1.014  12.106  19.538  0.00  0.00    +0.000 NA
ATOM     19  H   UNL     1       0.250  12.193  20.212  0.00  0.00    +0.000 HD
BRANCH  18  24
ATOM     20  C   UNL     1       3.143  14.751  21.203  0.00  0.00    +0.000 C 
ATOM     21  O   UNL     1       2.474  14.577  22.221  0.00  0.00    +0.000 OA
ATOM     22  N   UNL     1       2.556  14.709  19.948  0.00  0.00    +0.000 N 
ATOM     23  C   UNL     1       1.106  14.595  19.756  0.00  0.00    +0.000 C 
ATOM     24  C   UNL     1       1.347  13.379  18.853  0.00  0.00    +0.000 C 
ATOM     25  C   UNL     1       2.854  13.651  18.963  0.00  0.00    +0.000 C 
BRANCH  20  31
ATOM     26  C   UNL     1       5.578  13.285  22.831  0.00  0.00    +0.000 C 
ATOM     27  C   UNL     1       5.621  14.441  21.893  0.00  0.00    +0.000 A 
ATOM     28  N   UNL     1       6.875  14.974  21.611  0.00  0.00    +0.000 NA
ATOM     29  C   UNL     1       6.762  15.928  20.718  0.00  0.00    +0.000 A 
ATOM     30  S   UNL     1       5.177  16.279  20.187  0.00  0.00    +0.000 S 
ATOM     31  C   UNL     1       4.568  15.039  21.217  0.00  0.00    +0.000 A 
ENDBRANCH  20  31
ENDBRANCH  18  24
ENDBRANCH   1  18
TORSDOF 6
ENDMDL
MODEL 7
REMARK VINA RESULT:      -7.5      5.303      8.034
REMARK  Name = 
REMARK  7 active torsions:
REMARK  status: ('A' for Active; 'I' for Inactive)
REMARK    1  A    between atoms: C_1  and  C_2
REMARK    2  A    between atoms: C_6  and  C_7
REMARK    3  A    between atoms: C_11  and  N_12
REMARK    4  A    between atoms: N_12  and  C_13
REMARK    5  A    between atoms: C_13  and  C_14
REMARK    6  A    between atoms: C_13  and  C_24
REMARK    7  A    between atoms: C_17  and  C_18
REMARK                            x       y       z     vdW  Elec       q    Type
REMARK                         _______ _______ _______ _____ _____    ______ ____
ROOT
ATOM      1  C   UNL     1       2.204   6.258  19.739  0.00  0.00    +0.000 C 
ENDROOT
BRANCH   1   2
ATOM      2  C   UNL     1       3.504   6.216  18.942  0.00  0.00    +0.000 A 
ATOM      3  C   UNL     1       3.645   6.897  17.726  0.00  0.00    +0.000 A 
ATOM      4  C   UNL     1       4.821   6.788  16.978  0.00  0.00    +0.000 A 
ATOM      5  C   UNL     1       5.881   5.985  17.425  0.00  0.00    +0.000 A 
ATOM      6  C   UNL     1       5.744   5.299  18.639  0.00  0.00    +0.000 A 
ATOM      7  C   UNL     1       4.572   5.417  19.391  0.00  0.00    +0.000 A 
BRANCH   5   8
ATOM      8  C   UNL     1       7.149   5.848  16.618  0.00  0.00    +0.000 C 
ATOM      9  F   UNL     1       7.954   4.831  17.036  0.00  0.00    +0.000 F 
ATOM     10  F   UNL     1       6.908   5.615  15.298  0.00  0.00    +0.000 F 
ATOM     11  F   UNL     1       7.918   6.972  16.664  0.00  0.00    +0.000 F 
ENDBRANCH   5   8
ENDBRANCH   1   2
BRANCH   1  12
ATOM     12  C   UNL     1       1.831   4.911  20.341  0.00  0.00    +0.000 A 
ATOM     13  C   UNL     1       0.932   4.012  19.759  0.00  0.00    +0.000 A 
ATOM     14  C   UNL     1       0.673   2.790  20.379  0.00  0.00    +0.000 A 
ATOM     15  C   UNL     1       1.316   2.504  21.569  0.00  0.00    +0.000 A 
ATOM     16  N   UNL     1       2.180   3.348  22.175  0.00  0.00    +0.000 NA
ATOM     17  C   UNL     1       2.411   4.525  21.551  0.00  0.00    +0.000 A 
ENDBRANCH   1  12
BRANCH   1  18
ATOM     18  N   UNL     1       2.176   7.355  20.741  0.00  0.00    +0.000 NA
ATOM     19  H   UNL     1       2.771   7.068  21.521  0.00  0.00    +0.000 HD
BRANCH  18  24
ATOM     20  C   UNL     1       0.951  10.929  20.905  0.00  0.00    +0.000 C 
ATOM     21  O   UNL     1       2.004  11.211  21.474  0.00  0.00    +0.000 OA
ATOM     22  N   UNL     1       0.303   9.729  21.157  0.00  0.00    +0.000 N 
ATOM     23  C   UNL     1       0.744   8.795  22.198  0.00  0.00    +0.000 C 
ATOM     24  C   UNL     1       0.786   7.681  21.145  0.00  0.00    +0.000 C 
ATOM     25  C   UNL     1       0.170   8.666  20.142  0.00  0.00    +0.000 C 
BRANCH  20  31
ATOM     26  C   UNL     1       2.145  12.533  18.311  0.00  0.00    +0.000 C 
ATOM     27  C   UNL     1       0.760  12.505  18.858  0.00  0.00    +0.000 A 
ATOM     28  N   UNL     1      -0.205  13.224  18.159  0.00  0.00    +0.000 NA
ATOM     29  C   UNL     1      -1.381  13.044  18.712  0.00  0.00    +0.000 A 
ATOM     30  S   UNL     1      -1.416  12.053  20.102  0.00  0.00    +0.000 S 
ATOM     31  C   UNL     1       0.285  11.812  19.962  0.00  0.00    +0.000 A 
ENDBRANCH  20  31
ENDBRANCH  18  24
ENDBRANCH   1  18
TORSDOF 6
ENDMDL
MODEL 8
REMARK VINA RESULT:      -7.5      5.156      8.109
REMARK  Name = 
REMARK  7 active torsions:
REMARK  status: ('A' for Active; 'I' for Inactive)
REMARK    1  A    between atoms: C_1  and  C_2
REMARK    2  A    between atoms: C_6  and  C_7
REMARK    3  A    between atoms: C_11  and  N_12
REMARK    4  A    between atoms: N_12  and  C_13
REMARK    5  A    between atoms: C_13  and  C_14
REMARK    6  A    between atoms: C_13  and  C_24
REMARK    7  A    between atoms: C_17  and  C_18
REMARK                            x       y       z     vdW  Elec       q    Type
REMARK                         _______ _______ _______ _____ _____    ______ ____
ROOT
ATOM      1  C   UNL     1       2.050   6.059  19.299  0.00  0.00    +0.000 C 
ENDROOT
BRANCH   1   2
ATOM      2  C   UNL     1       3.097   5.809  18.218  0.00  0.00    +0.000 A 
ATOM      3  C   UNL     1       3.377   4.518  17.749  0.00  0.00    +0.000 A 
ATOM      4  C   UNL     1       4.389   4.304  16.809  0.00  0.00    +0.000 A 
ATOM      5  C   UNL     1       5.152   5.376  16.323  0.00  0.00    +0.000 A 
ATOM      6  C   UNL     1       4.878   6.668  16.791  0.00  0.00    +0.000 A 
ATOM      7  C   UNL     1       3.859   6.883  17.723  0.00  0.00    +0.000 A 
BRANCH   5   8
ATOM      8  C   UNL     1       6.257   5.154  15.319  0.00  0.00    +0.000 C 
ATOM      9  F   UNL     1       7.440   5.733  15.672  0.00  0.00    +0.000 F 
ATOM     10  F   UNL     1       6.531   3.834  15.124  0.00  0.00    +0.000 F 
ATOM     11  F   UNL     1       5.951   5.657  14.090  0.00  0.00    +0.000 F 
ENDBRANCH   5   8
ENDBRANCH   1   2
BRANCH   1  12
ATOM     12  C   UNL     1       1.790   4.839  20.169  0.00  0.00    +0.000 A 
ATOM     13  C   UNL     1       0.777   3.904  19.931  0.00  0.00    +0.000 A 
ATOM     14  C   UNL     1       0.633   2.805  20.776  0.00  0.00    +0.000 A 
ATOM     15  C   UNL     1       1.504   2.673  21.842  0.00  0.00    +0.000 A 
ATOM     16  N   UNL     1       2.487   3.558  22.120  0.00  0.00    +0.000 NA
ATOM     17  C   UNL     1       2.601   4.614  21.284  0.00  0.00    +0.000 A 
ENDBRANCH   1  12
BRANCH   1  18
ATOM     18  N   UNL     1       2.327   7.279  20.101  0.00  0.00    +0.000 NA
ATOM     19  H   UNL     1       3.275   7.188  20.472  0.00  0.00    +0.000 HD
BRANCH  18  24
ATOM     20  C   UNL     1       0.515  10.577  20.480  0.00  0.00    +0.000 C 
ATOM     21  O   UNL     1       1.605  11.133  20.354  0.00  0.00    +0.000 OA
ATOM     22  N   UNL     1       0.398   9.385  21.179  0.00  0.00    +0.000 N 
ATOM     23  C   UNL     1       1.516   8.790  21.920  0.00  0.00    +0.000 C 
ATOM     24  C   UNL     1       1.296   7.482  21.148  0.00  0.00    +0.000 C 
ATOM     25  C   UNL     1       0.040   8.110  20.528  0.00  0.00    +0.000 C 
BRANCH  20  31
ATOM     26  C   UNL     1      -1.003   9.971  17.641  0.00  0.00    +0.000 C 
ATOM     27  C   UNL     1      -1.394  10.879  18.754  0.00  0.00    +0.000 A 
ATOM     28  N   UNL     1      -2.603  11.554  18.618  0.00  0.00    +0.000 NA
ATOM     29  C   UNL     1      -2.849  12.250  19.703  0.00  0.00    +0.000 A 
ATOM     30  S   UNL     1      -1.659  12.184  20.926  0.00  0.00    +0.000 S 
ATOM     31  C   UNL     1      -0.727  11.113  19.948  0.00  0.00    +0.000 A 
ENDBRANCH  20  31
ENDBRANCH  18  24
ENDBRANCH   1  18
TORSDOF 6
ENDMDL
MODEL 9
REMARK VINA RESULT:      -7.4      1.074      1.535
REMARK  Name = 
REMARK  7 active torsions:
REMARK  status: ('A' for Active; 'I' for Inactive)
REMARK    1  A    between atoms: C_1  and  C_2
REMARK    2  A    between atoms: C_6  and  C_7
REMARK    3  A    between atoms: C_11  and  N_12
REMARK    4  A    between atoms: N_12  and  C_13
REMARK    5  A    between atoms: C_13  and  C_14
REMARK    6  A    between atoms: C_13  and  C_24
REMARK    7  A    between atoms: C_17  and  C_18
REMARK                            x       y       z     vdW  Elec       q    Type
REMARK                         _______ _______ _______ _____ _____    ______ ____
ROOT
ATOM      1  C   UNL     1       3.051   6.381  18.867  0.00  0.00    +0.000 C 
ENDROOT
BRANCH   1   2
ATOM      2  C   UNL     1       2.227   7.648  19.080  0.00  0.00    +0.000 A 
ATOM      3  C   UNL     1       1.712   7.988  20.337  0.00  0.00    +0.000 A 
ATOM      4  C   UNL     1       0.901   9.116  20.495  0.00  0.00    +0.000 A 
ATOM      5  C   UNL     1       0.578   9.924  19.395  0.00  0.00    +0.000 A 
ATOM      6  C   UNL     1       1.089   9.587  18.134  0.00  0.00    +0.000 A 
ATOM      7  C   UNL     1       1.908   8.464  17.980  0.00  0.00    +0.000 A 
BRANCH   5   8
ATOM      8  C   UNL     1      -0.308  11.136  19.551  0.00  0.00    +0.000 C 
ATOM      9  F   UNL     1      -0.658  11.394  20.843  0.00  0.00    +0.000 F 
ATOM     10  F   UNL     1       0.277  12.275  19.087  0.00  0.00    +0.000 F 
ATOM     11  F   UNL     1      -1.480  11.014  18.867  0.00  0.00    +0.000 F 
ENDBRANCH   5   8
ENDBRANCH   1   2
BRANCH   1  12
ATOM     12  C   UNL     1       2.402   5.142  19.465  0.00  0.00    +0.000 A 
ATOM     13  C   UNL     1       2.462   4.800  20.820  0.00  0.00    +0.000 A 
ATOM     14  C   UNL     1       1.814   3.652  21.276  0.00  0.00    +0.000 A 
ATOM     15  C   UNL     1       1.129   2.874  20.361  0.00  0.00    +0.000 A 
ATOM     16  N   UNL     1       1.057   3.157  19.042  0.00  0.00    +0.000 NA
ATOM     17  C   UNL     1       1.696   4.275  18.630  0.00  0.00    +0.000 A 
ENDBRANCH   1  12
BRANCH   1  18
ATOM     18  N   UNL     1       3.452   6.183  17.450  0.00  0.00    +0.000 NA
ATOM     19  H   UNL     1       3.358   5.186  17.245  0.00  0.00    +0.000 HD
BRANCH  18  24
ATOM     20  C   UNL     1       5.987   4.247  15.419  0.00  0.00    +0.000 C 
ATOM     21  O   UNL     1       5.659   3.247  16.056  0.00  0.00    +0.000 OA
ATOM     22  N   UNL     1       6.064   5.489  16.030  0.00  0.00    +0.000 N 
ATOM     23  C   UNL     1       5.898   5.670  17.476  0.00  0.00    +0.000 C 
ATOM     24  C   UNL     1       4.813   6.717  17.194  0.00  0.00    +0.000 C 
ATOM     25  C   UNL     1       5.147   6.598  15.701  0.00  0.00    +0.000 C 
BRANCH  20  31
ATOM     26  C   UNL     1       8.458   5.708  13.842  0.00  0.00    +0.000 C 
ATOM     27  C   UNL     1       7.380   4.827  13.313  0.00  0.00    +0.000 A 
ATOM     28  N   UNL     1       7.427   4.525  11.956  0.00  0.00    +0.000 NA
ATOM     29  C   UNL     1       6.465   3.684  11.654  0.00  0.00    +0.000 A 
ATOM     30  S   UNL     1       5.431   3.231  12.935  0.00  0.00    +0.000 S 
ATOM     31  C   UNL     1       6.345   4.221  14.010  0.00  0.00    +0.000 A 
ENDBRANCH  20  31
ENDBRANCH  18  24
ENDBRANCH   1  18
TORSDOF 6
ENDMDL
