MODEL 1
REMARK VINA RESULT:      -6.7      0.000      0.000
REMARK  Name = 
REMARK  6 active torsions:
REMARK  status: ('A' for Active; 'I' for Inactive)
REMARK    1  A    between atoms: C_1  and  O_2
REMARK    2  A    between atoms: O_2  and  C_3
REMARK    3  A    between atoms: C_6  and  O_7
REMARK    4  A    between atoms: O_7  and  C_8
REMARK    5  A    between atoms: C_9  and  N_10
REMARK    6  A    between atoms: N_13  and  C_14
REMARK                            x       y       z     vdW  Elec       q    Type
REMARK                         _______ _______ _______ _____ _____    ______ ____
ROOT
ATOM      1  N   UNL     1       6.583   7.669  16.998  0.00  0.00    +0.000 N 
ATOM      2  C   UNL     1       7.671   8.109  17.732  0.00  0.00    +0.000 C 
ATOM      3  O   UNL     1       8.419   7.405  18.401  0.00  0.00    +0.000 OA
ATOM      4  N   UNL     1       7.846   9.485  17.591  0.00  0.00    +0.000 N 
ATOM      5  H   UNL     1       6.407   8.221  16.174  0.00  0.00    +0.000 HD
ATOM      6  H   UNL     1       6.992  10.006  17.450  0.00  0.00    +0.000 HD
ENDROOT
BRANCH   4   7
ATOM      7  C   UNL     1       8.890  10.162  18.268  0.00  0.00    +0.000 A 
ATOM      8  C   UNL     1       8.962  10.190  19.667  0.00  0.00    +0.000 A 
ATOM      9  C   UNL     1       9.977  10.905  20.311  0.00  0.00    +0.000 A 
ATOM     10  C   UNL     1      10.911  11.606  19.556  0.00  0.00    +0.000 A 
ATOM     11 CL   UNL     1      12.148  12.506  20.344  0.00  0.00    +0.000 Cl
ATOM     12  C   UNL     1      10.852  11.581  18.164  0.00  0.00    +0.000 A 
ATOM     13  C   UNL     1       9.856  10.838  17.518  0.00  0.00    +0.000 A 
ENDBRANCH   4   7
BRANCH   1  18
ATOM     14  C   UNL     1       4.343   4.956  18.158  0.00  0.00    +0.000 A 
ATOM     15  C   UNL     1       4.687   3.898  17.328  0.00  0.00    +0.000 A 
ATOM     16  C   UNL     1       5.688   4.050  16.370  0.00  0.00    +0.000 A 
ATOM     17  C   UNL     1       6.374   5.265  16.233  0.00  0.00    +0.000 A 
ATOM     18  C   UNL     1       5.992   6.371  17.027  0.00  0.00    +0.000 A 
ATOM     19  C   UNL     1       4.988   6.186  18.005  0.00  0.00    +0.000 A 
BRANCH  14  21
ATOM     20  C   UNL     1       2.796   5.730  19.797  0.00  0.00    +0.000 C 
ATOM     21  O   UNL     1       3.376   4.653  19.072  0.00  0.00    +0.000 OA
ENDBRANCH  14  21
BRANCH  17  22
ATOM     22  O   UNL     1       7.434   5.397  15.378  0.00  0.00    +0.000 OA
ATOM     23  C   UNL     1       7.252   4.976  14.030  0.00  0.00    +0.000 C 
ENDBRANCH  17  22
ENDBRANCH   1  18
TORSDOF 4
ENDMDL
MODEL 2
REMARK VINA RESULT:      -6.6      1.435      3.348
REMARK  Name = 
REMARK  6 active torsions:
REMARK  status: ('A' for Active; 'I' for Inactive)
REMARK    1  A    between atoms: C_1  and  O_2
REMARK    2  A    between atoms: O_2  and  C_3
REMARK    3  A    between atoms: C_6  and  O_7
REMARK    4  A    between atoms: O_7  and  C_8
REMARK    5  A    between atoms: C_9  and  N_10
REMARK    6  A    between atoms: N_13  and  C_14
REMARK                            x       y       z     vdW  Elec       q    Type
REMARK                         _______ _______ _______ _____ _____    ______ ____
ROOT
ATOM      1  N   UNL     1       7.748   6.749  18.338  0.00  0.00    +0.000 N 
ATOM      2  C   UNL     1       7.891   8.119  18.213  0.00  0.00    +0.000 C 
ATOM      3  O   UNL     1       7.204   8.852  17.510  0.00  0.00    +0.000 OA
ATOM      4  N   UNL     1       8.918   8.593  19.029  0.00  0.00    +0.000 N 
ATOM      5  H   UNL     1       8.008   6.401  19.248  0.00  0.00    +0.000 HD
ATOM      6  H   UNL     1       9.676   7.940  19.172  0.00  0.00    +0.000 HD
ENDROOT
BRANCH   4   7
ATOM      7  C   UNL     1       9.259   9.967  19.051  0.00  0.00    +0.000 A 
ATOM      8  C   UNL     1       9.585  10.663  17.880  0.00  0.00    +0.000 A 
ATOM      9  C   UNL     1       9.964  12.008  17.936  0.00  0.00    +0.000 A 
ATOM     10  C   UNL     1      10.033  12.654  19.166  0.00  0.00    +0.000 A 
ATOM     11 CL   UNL     1      10.520  14.302  19.243  0.00  0.00    +0.000 Cl
ATOM     12  C   UNL     1       9.706  11.972  20.337  0.00  0.00    +0.000 A 
ATOM     13  C   UNL     1       9.294  10.635  20.278  0.00  0.00    +0.000 A 
ENDBRANCH   4   7
BRANCH   1  18
ATOM     14  C   UNL     1       6.656   4.888  15.327  0.00  0.00    +0.000 A 
ATOM     15  C   UNL     1       5.485   4.275  15.753  0.00  0.00    +0.000 A 
ATOM     16  C   UNL     1       5.014   4.478  17.048  0.00  0.00    +0.000 A 
ATOM     17  C   UNL     1       5.703   5.312  17.942  0.00  0.00    +0.000 A 
ATOM     18  C   UNL     1       6.929   5.891  17.545  0.00  0.00    +0.000 A 
ATOM     19  C   UNL     1       7.375   5.686  16.219  0.00  0.00    +0.000 A 
BRANCH  14  21
ATOM     20  C   UNL     1       6.130   3.742  13.305  0.00  0.00    +0.000 C 
ATOM     21  O   UNL     1       6.975   4.631  14.025  0.00  0.00    +0.000 OA
ENDBRANCH  14  21
BRANCH  17  22
ATOM     22  O   UNL     1       5.196   5.612  19.177  0.00  0.00    +0.000 OA
ATOM     23  C   UNL     1       3.948   5.030  19.538  0.00  0.00    +0.000 C 
ENDBRANCH  17  22
ENDBRANCH   1  18
TORSDOF 4
ENDMDL
MODEL 3
REMARK VINA RESULT:      -6.6      1.509      3.220
REMARK  Name = 
REMARK  6 active torsions:
REMARK  status: ('A' for Active; 'I' for Inactive)
REMARK    1  A    between atoms: C_1  and  O_2
REMARK    2  A    between atoms: O_2  and  C_3
REMARK    3  A    between atoms: C_6  and  O_7
REMARK    4  A    between atoms: O_7  and  C_8
REMARK    5  A    between atoms: C_9  and  N_10
REMARK    6  A    between atoms: N_13  and  C_14
REMARK                            x       y       z     vdW  Elec       q    Type
REMARK                         _______ _______ _______ _____ _____    ______ ____
ROOT
ATOM      1  N   UNL     1       7.828   6.771  18.399  0.00  0.00    +0.000 N 
ATOM      2  C   UNL     1       7.951   8.143  18.268  0.00  0.00    +0.000 C 
ATOM      3  O   UNL     1       7.251   8.862  17.563  0.00  0.00    +0.000 OA
ATOM      4  N   UNL     1       8.972   8.635  19.080  0.00  0.00    +0.000 N 
ATOM      5  H   UNL     1       8.095   6.431  19.310  0.00  0.00    +0.000 HD
ATOM      6  H   UNL     1       9.740   7.994  19.224  0.00  0.00    +0.000 HD
ENDROOT
BRANCH   4   7
ATOM      7  C   UNL     1       9.293  10.015  19.096  0.00  0.00    +0.000 A 
ATOM      8  C   UNL     1       9.269  10.761  20.281  0.00  0.00    +0.000 A 
ATOM      9  C   UNL     1       9.545  12.132  20.261  0.00  0.00    +0.000 A 
ATOM     10  C   UNL     1       9.828  12.760  19.053  0.00  0.00    +0.000 A 
ATOM     11 CL   UNL     1      10.146  14.451  19.020  0.00  0.00    +0.000 Cl
ATOM     12  C   UNL     1       9.859  12.026  17.869  0.00  0.00    +0.000 A 
ATOM     13  C   UNL     1       9.617  10.648  17.892  0.00  0.00    +0.000 A 
ENDBRANCH   4   7
BRANCH   1  18
ATOM     14  C   UNL     1       6.686   4.977  15.366  0.00  0.00    +0.000 A 
ATOM     15  C   UNL     1       5.582   4.271  15.825  0.00  0.00    +0.000 A 
ATOM     16  C   UNL     1       5.173   4.386  17.152  0.00  0.00    +0.000 A 
ATOM     17  C   UNL     1       5.858   5.222  18.046  0.00  0.00    +0.000 A 
ATOM     18  C   UNL     1       7.021   5.897  17.611  0.00  0.00    +0.000 A 
ATOM     19  C   UNL     1       7.404   5.780  16.255  0.00  0.00    +0.000 A 
BRANCH  14  21
ATOM     20  C   UNL     1       6.218   3.785  13.357  0.00  0.00    +0.000 C 
ATOM     21  O   UNL     1       6.946   4.799  14.039  0.00  0.00    +0.000 OA
ENDBRANCH  14  21
BRANCH  17  22
ATOM     22  O   UNL     1       5.404   5.434  19.319  0.00  0.00    +0.000 OA
ATOM     23  C   UNL     1       4.004   5.323  19.548  0.00  0.00    +0.000 C 
ENDBRANCH  17  22
ENDBRANCH   1  18
TORSDOF 4
ENDMDL
MODEL 4
REMARK VINA RESULT:      -6.5      4.425      7.212
REMARK  Name = 
REMARK  6 active torsions:
REMARK  status: ('A' for Active; 'I' for Inactive)
REMARK    1  A    between atoms: C_1  and  O_2
REMARK    2  A    between atoms: O_2  and  C_3
REMARK    3  A    between atoms: C_6  and  O_7
REMARK    4  A    between atoms: O_7  and  C_8
REMARK    5  A    between atoms: C_9  and  N_10
REMARK    6  A    between atoms: N_13  and  C_14
REMARK                            x       y       z     vdW  Elec       q    Type
REMARK                         _______ _______ _______ _____ _____    ______ ____
ROOT
ATOM      1  N   UNL     1       3.334   5.958  19.187  0.00  0.00    +0.000 N 
ATOM      2  C   UNL     1       2.521   7.078  19.183  0.00  0.00    +0.000 C 
ATOM      3  O   UNL     1       2.249   7.765  18.205  0.00  0.00    +0.000 OA
ATOM      4  N   UNL     1       2.003   7.326  20.454  0.00  0.00    +0.000 N 
ATOM      5  H   UNL     1       3.067   5.273  19.877  0.00  0.00    +0.000 HD
ATOM      6  H   UNL     1       2.607   7.049  21.215  0.00  0.00    +0.000 HD
ENDROOT
BRANCH   4   7
ATOM      7  C   UNL     1       1.157   8.436  20.695  0.00  0.00    +0.000 A 
ATOM      8  C   UNL     1       0.980   9.446  19.740  0.00  0.00    +0.000 A 
ATOM      9  C   UNL     1       0.175  10.554  20.022  0.00  0.00    +0.000 A 
ATOM     10  C   UNL     1      -0.440  10.661  21.265  0.00  0.00    +0.000 A 
ATOM     11 CL   UNL     1      -1.412  12.034  21.625  0.00  0.00    +0.000 Cl
ATOM     12  C   UNL     1      -0.274   9.660  22.220  0.00  0.00    +0.000 A 
ATOM     13  C   UNL     1       0.504   8.533  21.927  0.00  0.00    +0.000 A 
ENDBRANCH   4   7
BRANCH   1  18
ATOM     14  C   UNL     1       6.253   5.905  16.908  0.00  0.00    +0.000 A 
ATOM     15  C   UNL     1       5.979   4.822  16.083  0.00  0.00    +0.000 A 
ATOM     16  C   UNL     1       4.805   4.090  16.248  0.00  0.00    +0.000 A 
ATOM     17  C   UNL     1       3.874   4.436  17.239  0.00  0.00    +0.000 A 
ATOM     18  C   UNL     1       4.169   5.495  18.127  0.00  0.00    +0.000 A 
ATOM     19  C   UNL     1       5.357   6.235  17.926  0.00  0.00    +0.000 A 
BRANCH  14  21
ATOM     20  C   UNL     1       7.781   7.661  17.418  0.00  0.00    +0.000 C 
ATOM     21  O   UNL     1       7.417   6.551  16.607  0.00  0.00    +0.000 OA
ENDBRANCH  14  21
BRANCH  17  22
ATOM     22  O   UNL     1       2.667   3.800  17.341  0.00  0.00    +0.000 OA
ATOM     23  C   UNL     1       2.667   2.455  17.807  0.00  0.00    +0.000 C 
ENDBRANCH  17  22
ENDBRANCH   1  18
TORSDOF 4
ENDMDL
MODEL 5
REMARK VINA RESULT:      -6.5      4.844      7.393
REMARK  Name = 
REMARK  6 active torsions:
REMARK  status: ('A' for Active; 'I' for Inactive)
REMARK    1  A    between atoms: C_1  and  O_2
REMARK    2  A    between atoms: O_2  and  C_3
REMARK    3  A    between atoms: C_6  and  O_7
REMARK    4  A    between atoms: O_7  and  C_8
REMARK    5  A    between atoms: C_9  and  N_10
REMARK    6  A    between atoms: N_13  and  C_14
REMARK                            x       y       z     vdW  Elec       q    Type
REMARK                         _______ _______ _______ _____ _____    ______ ____
ROOT
ATOM      1  N   UNL     1       2.847   5.919  20.070  0.00  0.00    +0.000 N 
ATOM      2  C   UNL     1       2.168   7.120  19.973  0.00  0.00    +0.000 C 
ATOM      3  O   UNL     1       1.965   7.749  18.940  0.00  0.00    +0.000 OA
ATOM      4  N   UNL     1       1.696   7.532  21.218  0.00  0.00    +0.000 N 
ATOM      5  H   UNL     1       2.512   5.329  20.816  0.00  0.00    +0.000 HD
ATOM      6  H   UNL     1       2.273   7.252  21.999  0.00  0.00    +0.000 HD
ENDROOT
BRANCH   4   7
ATOM      7  C   UNL     1       0.985   8.748  21.366  0.00  0.00    +0.000 A 
ATOM      8  C   UNL     1       1.078   9.774  20.416  0.00  0.00    +0.000 A 
ATOM      9  C   UNL     1       0.402  10.982  20.609  0.00  0.00    +0.000 A 
ATOM     10  C   UNL     1      -0.355  11.172  21.761  0.00  0.00    +0.000 A 
ATOM     11 CL   UNL     1      -1.170  12.666  22.014  0.00  0.00    +0.000 Cl
ATOM     12  C   UNL     1      -0.458  10.157  22.710  0.00  0.00    +0.000 A 
ATOM     13  C   UNL     1       0.191   8.934  22.501  0.00  0.00    +0.000 A 
ENDBRANCH   4   7
BRANCH   1  18
ATOM     14  C   UNL     1       5.862   4.992  18.128  0.00  0.00    +0.000 A 
ATOM     15  C   UNL     1       5.348   4.164  17.139  0.00  0.00    +0.000 A 
ATOM     16  C   UNL     1       3.980   3.906  17.077  0.00  0.00    +0.000 A 
ATOM     17  C   UNL     1       3.096   4.482  18.001  0.00  0.00    +0.000 A 
ATOM     18  C   UNL     1       3.611   5.275  19.052  0.00  0.00    +0.000 A 
ATOM     19  C   UNL     1       5.000   5.539  19.081  0.00  0.00    +0.000 A 
BRANCH  14  21
ATOM     20  C   UNL     1       7.854   5.817  19.144  0.00  0.00    +0.000 C 
ATOM     21  O   UNL     1       7.210   5.186  18.043  0.00  0.00    +0.000 OA
ENDBRANCH  14  21
BRANCH  17  22
ATOM     22  O   UNL     1       1.741   4.331  17.887  0.00  0.00    +0.000 OA
ATOM     23  C   UNL     1       1.165   3.133  18.397  0.00  0.00    +0.000 C 
ENDBRANCH  17  22
ENDBRANCH   1  18
TORSDOF 4
ENDMDL
MODEL 6
REMARK VINA RESULT:      -6.5      0.326      1.103
REMARK  Name = 
REMARK  6 active torsions:
REMARK  status: ('A' for Active; 'I' for Inactive)
REMARK    1  A    between atoms: C_1  and  O_2
REMARK    2  A    between atoms: O_2  and  C_3
REMARK    3  A    between atoms: C_6  and  O_7
REMARK    4  A    between atoms: O_7  and  C_8
REMARK    5  A    between atoms: C_9  and  N_10
REMARK    6  A    between atoms: N_13  and  C_14
REMARK                            x       y       z     vdW  Elec       q    Type
REMARK                         _______ _______ _______ _____ _____    ______ ____
ROOT
ATOM      1  N   UNL     1       6.747   7.755  17.115  0.00  0.00    +0.000 N 
ATOM      2  C   UNL     1       7.818   8.257  17.833  0.00  0.00    +0.000 C 
ATOM      3  O   UNL     1       8.567   7.607  18.555  0.00  0.00    +0.000 OA
ATOM      4  N   UNL     1       7.975   9.624  17.610  0.00  0.00    +0.000 N 
ATOM      5  H   UNL     1       6.573   8.253  16.256  0.00  0.00    +0.000 HD
ATOM      6  H   UNL     1       7.114  10.122  17.427  0.00  0.00    +0.000 HD
ENDROOT
BRANCH   4   7
ATOM      7  C   UNL     1       8.999  10.358  18.258  0.00  0.00    +0.000 A 
ATOM      8  C   UNL     1      10.007  11.009  17.534  0.00  0.00    +0.000 A 
ATOM      9  C   UNL     1      11.032  11.688  18.199  0.00  0.00    +0.000 A 
ATOM     10  C   UNL     1      11.060  11.702  19.590  0.00  0.00    +0.000 A 
ATOM     11 CL   UNL     1      12.333  12.516  20.414  0.00  0.00    +0.000 Cl
ATOM     12  C   UNL     1      10.060  11.061  20.320  0.00  0.00    +0.000 A 
ATOM     13  C   UNL     1       9.014  10.411  19.654  0.00  0.00    +0.000 A 
ENDBRANCH   4   7
BRANCH   1  18
ATOM     14  C   UNL     1       4.730   5.010  18.570  0.00  0.00    +0.000 A 
ATOM     15  C   UNL     1       4.946   3.966  17.681  0.00  0.00    +0.000 A 
ATOM     16  C   UNL     1       5.784   4.139  16.581  0.00  0.00    +0.000 A 
ATOM     17  C   UNL     1       6.434   5.361  16.357  0.00  0.00    +0.000 A 
ATOM     18  C   UNL     1       6.175   6.453  17.217  0.00  0.00    +0.000 A 
ATOM     19  C   UNL     1       5.336   6.246  18.337  0.00  0.00    +0.000 A 
BRANCH  14  21
ATOM     20  C   UNL     1       2.704   5.412  19.759  0.00  0.00    +0.000 C 
ATOM     21  O   UNL     1       3.920   4.687  19.619  0.00  0.00    +0.000 OA
ENDBRANCH  14  21
BRANCH  17  22
ATOM     22  O   UNL     1       7.346   5.513  15.349  0.00  0.00    +0.000 OA
ATOM     23  C   UNL     1       7.098   4.830  14.125  0.00  0.00    +0.000 C 
ENDBRANCH  17  22
ENDBRANCH   1  18
TORSDOF 4
ENDMDL
MODEL 7
REMARK VINA RESULT:      -6.4      4.762      7.335
REMARK  Name = 
REMARK  6 active torsions:
REMARK  status: ('A' for Active; 'I' for Inactive)
REMARK    1  A    between atoms: C_1  and  O_2
REMARK    2  A    between atoms: O_2  and  C_3
REMARK    3  A    between atoms: C_6  and  O_7
REMARK    4  A    between atoms: O_7  and  C_8
REMARK    5  A    between atoms: C_9  and  N_10
REMARK    6  A    between atoms: N_13  and  C_14
REMARK                            x       y       z     vdW  Elec       q    Type
REMARK                         _______ _______ _______ _____ _____    ______ ____
ROOT
ATOM      1  N   UNL     1       2.946   5.935  20.067  0.00  0.00    +0.000 N 
ATOM      2  C   UNL     1       2.230   7.113  19.950  0.00  0.00    +0.000 C 
ATOM      3  O   UNL     1       1.985   7.703  18.904  0.00  0.00    +0.000 OA
ATOM      4  N   UNL     1       1.774   7.548  21.193  0.00  0.00    +0.000 N 
ATOM      5  H   UNL     1       2.646   5.359  20.838  0.00  0.00    +0.000 HD
ATOM      6  H   UNL     1       2.376   7.310  21.969  0.00  0.00    +0.000 HD
ENDROOT
BRANCH   4   7
ATOM      7  C   UNL     1       1.031   8.748  21.321  0.00  0.00    +0.000 A 
ATOM      8  C   UNL     1       0.429   9.114  22.532  0.00  0.00    +0.000 A 
ATOM      9  C   UNL     1      -0.338  10.280  22.618  0.00  0.00    +0.000 A 
ATOM     10  C   UNL     1      -0.518  11.072  21.488  0.00  0.00    +0.000 A 
ATOM     11 CL   UNL     1      -1.480  12.495  21.583  0.00  0.00    +0.000 Cl
ATOM     12  C   UNL     1       0.080  10.718  20.280  0.00  0.00    +0.000 A 
ATOM     13  C   UNL     1       0.876   9.570  20.201  0.00  0.00    +0.000 A 
ENDBRANCH   4   7
BRANCH   1  18
ATOM     14  C   UNL     1       5.963   4.930  18.167  0.00  0.00    +0.000 A 
ATOM     15  C   UNL     1       5.438   4.144  17.151  0.00  0.00    +0.000 A 
ATOM     16  C   UNL     1       4.063   3.941  17.056  0.00  0.00    +0.000 A 
ATOM     17  C   UNL     1       3.183   4.532  17.974  0.00  0.00    +0.000 A 
ATOM     18  C   UNL     1       3.706   5.283  19.051  0.00  0.00    +0.000 A 
ATOM     19  C   UNL     1       5.103   5.492  19.114  0.00  0.00    +0.000 A 
BRANCH  14  21
ATOM     20  C   UNL     1       7.898   6.133  18.866  0.00  0.00    +0.000 C 
ATOM     21  O   UNL     1       7.319   5.074  18.114  0.00  0.00    +0.000 OA
ENDBRANCH  14  21
BRANCH  17  22
ATOM     22  O   UNL     1       1.826   4.436  17.829  0.00  0.00    +0.000 OA
ATOM     23  C   UNL     1       1.179   3.303  18.399  0.00  0.00    +0.000 C 
ENDBRANCH  17  22
ENDBRANCH   1  18
TORSDOF 4
ENDMDL
MODEL 8
REMARK VINA RESULT:      -6.4      5.092      6.829
REMARK  Name = 
REMARK  6 active torsions:
REMARK  status: ('A' for Active; 'I' for Inactive)
REMARK    1  A    between atoms: C_1  and  O_2
REMARK    2  A    between atoms: O_2  and  C_3
REMARK    3  A    between atoms: C_6  and  O_7
REMARK    4  A    between atoms: O_7  and  C_8
REMARK    5  A    between atoms: C_9  and  N_10
REMARK    6  A    between atoms: N_13  and  C_14
REMARK                            x       y       z     vdW  Elec       q    Type
REMARK                         _______ _______ _______ _____ _____    ______ ____
ROOT
ATOM      1  N   UNL     1       2.866   6.808  17.945  0.00  0.00    +0.000 N 
ATOM      2  C   UNL     1       2.235   7.853  18.595  0.00  0.00    +0.000 C 
ATOM      3  O   UNL     1       2.074   7.953  19.807  0.00  0.00    +0.000 OA
ATOM      4  N   UNL     1       1.818   8.828  17.690  0.00  0.00    +0.000 N 
ATOM      5  H   UNL     1       3.336   7.089  17.098  0.00  0.00    +0.000 HD
ATOM      6  H   UNL     1       1.566   8.474  16.778  0.00  0.00    +0.000 HD
ENDROOT
BRANCH   4   7
ATOM      7  C   UNL     1       1.130   9.986  18.128  0.00  0.00    +0.000 A 
ATOM      8  C   UNL     1       1.813  11.153  18.493  0.00  0.00    +0.000 A 
ATOM      9  C   UNL     1       1.111  12.267  18.966  0.00  0.00    +0.000 A 
ATOM     10  C   UNL     1      -0.273  12.207  19.090  0.00  0.00    +0.000 A 
ATOM     11 CL   UNL     1      -1.139  13.567  19.693  0.00  0.00    +0.000 Cl
ATOM     12  C   UNL     1      -0.963  11.052  18.725  0.00  0.00    +0.000 A 
ATOM     13  C   UNL     1      -0.265   9.950  18.219  0.00  0.00    +0.000 A 
ENDBRANCH   4   7
BRANCH   1  18
ATOM     14  C   UNL     1       2.483   3.525  19.618  0.00  0.00    +0.000 A 
ATOM     15  C   UNL     1       3.792   3.070  19.705  0.00  0.00    +0.000 A 
ATOM     16  C   UNL     1       4.843   3.851  19.228  0.00  0.00    +0.000 A 
ATOM     17  C   UNL     1       4.603   5.112  18.662  0.00  0.00    +0.000 A 
ATOM     18  C   UNL     1       3.272   5.561  18.507  0.00  0.00    +0.000 A 
ATOM     19  C   UNL     1       2.224   4.759  19.018  0.00  0.00    +0.000 A 
BRANCH  14  21
ATOM     20  C   UNL     1       1.480   2.614  21.578  0.00  0.00    +0.000 C 
ATOM     21  O   UNL     1       1.563   2.675  20.159  0.00  0.00    +0.000 OA
ENDBRANCH  14  21
BRANCH  17  22
ATOM     22  O   UNL     1       5.629   5.938  18.293  0.00  0.00    +0.000 OA
ATOM     23  C   UNL     1       6.949   5.562  18.671  0.00  0.00    +0.000 C 
ENDBRANCH  17  22
ENDBRANCH   1  18
TORSDOF 4
ENDMDL
MODEL 9
REMARK VINA RESULT:      -6.4      5.096      6.670
REMARK  Name = 
REMARK  6 active torsions:
REMARK  status: ('A' for Active; 'I' for Inactive)
REMARK    1  A    between atoms: C_1  and  O_2
REMARK    2  A    between atoms: O_2  and  C_3
REMARK    3  A    between atoms: C_6  and  O_7
REMARK    4  A    between atoms: O_7  and  C_8
REMARK    5  A    between atoms: C_9  and  N_10
REMARK    6  A    between atoms: N_13  and  C_14
REMARK                            x       y       z     vdW  Elec       q    Type
REMARK                         _______ _______ _______ _____ _____    ______ ____
ROOT
ATOM      1  N   UNL     1       2.984   6.781  17.905  0.00  0.00    +0.000 N 
ATOM      2  C   UNL     1       2.336   7.805  18.573  0.00  0.00    +0.000 C 
ATOM      3  O   UNL     1       2.176   7.883  19.786  0.00  0.00    +0.000 OA
ATOM      4  N   UNL     1       1.902   8.787  17.684  0.00  0.00    +0.000 N 
ATOM      5  H   UNL     1       3.448   7.084  17.062  0.00  0.00    +0.000 HD
ATOM      6  H   UNL     1       1.653   8.444  16.766  0.00  0.00    +0.000 HD
ENDROOT
BRANCH   4   7
ATOM      7  C   UNL     1       1.194   9.926  18.141  0.00  0.00    +0.000 A 
ATOM      8  C   UNL     1      -0.198   9.912  18.300  0.00  0.00    +0.000 A 
ATOM      9  C   UNL     1      -0.876  11.064  18.709  0.00  0.00    +0.000 A 
ATOM     10  C   UNL     1      -0.165  12.236  18.943  0.00  0.00    +0.000 A 
ATOM     11 CL   UNL     1      -0.998  13.663  19.424  0.00  0.00    +0.000 Cl
ATOM     12  C   UNL     1       1.221  12.260  18.793  0.00  0.00    +0.000 A 
ATOM     13  C   UNL     1       1.904  11.098  18.417  0.00  0.00    +0.000 A 
ENDBRANCH   4   7
BRANCH   1  18
ATOM     14  C   UNL     1       2.659   3.463  19.519  0.00  0.00    +0.000 A 
ATOM     15  C   UNL     1       3.976   3.032  19.602  0.00  0.00    +0.000 A 
ATOM     16  C   UNL     1       5.013   3.839  19.140  0.00  0.00    +0.000 A 
ATOM     17  C   UNL     1       4.751   5.106  18.596  0.00  0.00    +0.000 A 
ATOM     18  C   UNL     1       3.412   5.533  18.446  0.00  0.00    +0.000 A 
ATOM     19  C   UNL     1       2.379   4.703  18.941  0.00  0.00    +0.000 A 
BRANCH  14  21
ATOM     20  C   UNL     1       1.384   2.762  21.407  0.00  0.00    +0.000 C 
ATOM     21  O   UNL     1       1.754   2.587  20.045  0.00  0.00    +0.000 OA
ENDBRANCH  14  21
BRANCH  17  22
ATOM     22  O   UNL     1       5.762   5.957  18.243  0.00  0.00    +0.000 OA
ATOM     23  C   UNL     1       6.455   5.692  17.028  0.00  0.00    +0.000 C 
ENDBRANCH  17  22
ENDBRANCH   1  18
TORSDOF 4
ENDMDL
