MODEL 1
REMARK VINA RESULT:      -7.7      0.000      0.000
REMARK  Name = 
REMARK  10 active torsions:
REMARK  status: ('A' for Active; 'I' for Inactive)
REMARK    1  A    between atoms: C_1  and  O_2
REMARK    2  A    between atoms: O_2  and  C_3
REMARK    3  A    between atoms: C_5  and  N_6
REMARK    4  A    between atoms: N_6  and  C_7
REMARK    5  A    between atoms: C_12  and  N_13
REMARK    6  A    between atoms: C_14  and  C_15
REMARK    7  A    between atoms: C_26  and  O_27
REMARK    8  A    between atoms: O_27  and  C_28
REMARK    9  A    between atoms: C_29  and  O_30
REMARK   10  A    between atoms: O_30  and  C_31
REMARK                            x       y       z     vdW  Elec       q    Type
REMARK                         _______ _______ _______ _____ _____    ______ ____
ROOT
ATOM      1  C   UNL     1      -0.288  10.719  20.815  0.00  0.00    +0.000 A 
ATOM      2  N   UNL     1      -0.913  11.297  21.877  0.00  0.00    +0.000 NA
ATOM      3  C   UNL     1      -0.869  10.681  23.069  0.00  0.00    +0.000 A 
ATOM      4  C   UNL     1      -0.212   9.489  23.274  0.00  0.00    +0.000 A 
ATOM      5  C   UNL     1       0.475   8.926  22.202  0.00  0.00    +0.000 A 
ATOM      6  C   UNL     1       0.511   9.559  20.947  0.00  0.00    +0.000 A 
ENDROOT
BRANCH   1   7
ATOM      7  N   UNL     1      -0.476  11.325  19.540  0.00  0.00    +0.000 N 
ATOM      8  H   UNL     1       0.111  10.799  18.890  0.00  0.00    +0.000 HD
BRANCH   7  11
ATOM      9  C   UNL     1      -3.403  10.780  17.280  0.00  0.00    +0.000 A 
ATOM     10  C   UNL     1      -2.085  10.804  17.785  0.00  0.00    +0.000 A 
ATOM     11  C   UNL     1      -1.773  11.477  18.962  0.00  0.00    +0.000 A 
ATOM     12  C   UNL     1      -2.810  12.148  19.615  0.00  0.00    +0.000 A 
ATOM     13  C   UNL     1      -4.113  12.210  19.097  0.00  0.00    +0.000 A 
ATOM     14  C   UNL     1      -4.427  11.527  17.906  0.00  0.00    +0.000 A 
BRANCH   9  16
ATOM     15  C   UNL     1      -3.162  10.566  14.931  0.00  0.00    +0.000 C 
ATOM     16  O   UNL     1      -3.689  10.047  16.153  0.00  0.00    +0.000 OA
ENDBRANCH   9  16
BRANCH  13  17
ATOM     17  O   UNL     1      -4.932  12.956  19.911  0.00  0.00    +0.000 OA
ATOM     18  C   UNL     1      -5.752  12.316  20.872  0.00  0.00    +0.000 C 
ENDBRANCH  13  17
BRANCH  14  19
ATOM     19  O   UNL     1      -5.713  11.668  17.461  0.00  0.00    +0.000 OA
ATOM     20  C   UNL     1      -6.127  12.835  16.772  0.00  0.00    +0.000 C 
ENDBRANCH  14  19
ENDBRANCH   7  11
ENDBRANCH   1   7
BRANCH   6  21
ATOM     21  N   UNL     1       1.243   8.999  19.850  0.00  0.00    +0.000 NA
ATOM     22  C   UNL     1       1.891   7.896  20.102  0.00  0.00    +0.000 C 
BRANCH  22  23
ATOM     23  C   UNL     1       2.657   7.097  19.169  0.00  0.00    +0.000 A 
ATOM     24  N   UNL     1       3.358   7.696  18.228  0.00  0.00    +0.000 NA
ATOM     25  C   UNL     1       3.983   6.757  17.428  0.00  0.00    +0.000 A 
ATOM     26  C   UNL     1       4.809   7.041  16.321  0.00  0.00    +0.000 A 
ATOM     27  C   UNL     1       5.366   5.992  15.580  0.00  0.00    +0.000 A 
ATOM     28  C   UNL     1       5.102   4.675  15.942  0.00  0.00    +0.000 A 
ATOM     29 CL   UNL     1       5.784   3.395  15.010  0.00  0.00    +0.000 Cl
ATOM     30  C   UNL     1       4.293   4.361  17.040  0.00  0.00    +0.000 A 
ATOM     31  C   UNL     1       3.741   5.427  17.778  0.00  0.00    +0.000 A 
ATOM     32  S   UNL     1       2.717   5.394  19.175  0.00  0.00    +0.000 S 
ENDBRANCH  22  23
ENDBRANCH   6  21
TORSDOF 7
ENDMDL
MODEL 2
REMARK VINA RESULT:      -7.7      5.640     10.096
REMARK  Name = 
REMARK  10 active torsions:
REMARK  status: ('A' for Active; 'I' for Inactive)
REMARK    1  A    between atoms: C_1  and  O_2
REMARK    2  A    between atoms: O_2  and  C_3
REMARK    3  A    between atoms: C_5  and  N_6
REMARK    4  A    between atoms: N_6  and  C_7
REMARK    5  A    between atoms: C_12  and  N_13
REMARK    6  A    between atoms: C_14  and  C_15
REMARK    7  A    between atoms: C_26  and  O_27
REMARK    8  A    between atoms: O_27  and  C_28
REMARK    9  A    between atoms: C_29  and  O_30
REMARK   10  A    between atoms: O_30  and  C_31
REMARK                            x       y       z     vdW  Elec       q    Type
REMARK                         _______ _______ _______ _____ _____    ______ ____
ROOT
ATOM      1  C   UNL     1       3.418   3.608  18.100  0.00  0.00    +0.000 A 
ATOM      2  N   UNL     1       4.012   2.400  18.304  0.00  0.00    +0.000 NA
ATOM      3  C   UNL     1       4.089   1.919  19.556  0.00  0.00    +0.000 A 
ATOM      4  C   UNL     1       3.586   2.587  20.649  0.00  0.00    +0.000 A 
ATOM      5  C   UNL     1       2.929   3.795  20.433  0.00  0.00    +0.000 A 
ATOM      6  C   UNL     1       2.769   4.317  19.137  0.00  0.00    +0.000 A 
ENDROOT
BRANCH   1   7
ATOM      7  N   UNL     1       3.482   4.151  16.785  0.00  0.00    +0.000 N 
ATOM      8  H   UNL     1       2.962   5.029  16.819  0.00  0.00    +0.000 HD
BRANCH   7  11
ATOM      9  C   UNL     1       6.101   4.155  14.118  0.00  0.00    +0.000 A 
ATOM     10  C   UNL     1       4.967   3.807  14.884  0.00  0.00    +0.000 A 
ATOM     11  C   UNL     1       4.727   4.385  16.126  0.00  0.00    +0.000 A 
ATOM     12  C   UNL     1       5.663   5.308  16.599  0.00  0.00    +0.000 A 
ATOM     13  C   UNL     1       6.841   5.616  15.899  0.00  0.00    +0.000 A 
ATOM     14  C   UNL     1       7.081   5.031  14.641  0.00  0.00    +0.000 A 
BRANCH   9  16
ATOM     15  C   UNL     1       5.070   3.241  12.189  0.00  0.00    +0.000 C 
ATOM     16  O   UNL     1       6.271   3.617  12.865  0.00  0.00    +0.000 OA
ENDBRANCH   9  16
BRANCH  13  17
ATOM     17  O   UNL     1       7.604   6.524  16.594  0.00  0.00    +0.000 OA
ATOM     18  C   UNL     1       7.359   6.753  17.970  0.00  0.00    +0.000 C 
ENDBRANCH  13  17
BRANCH  14  19
ATOM     19  O   UNL     1       8.267   5.365  14.046  0.00  0.00    +0.000 OA
ATOM     20  C   UNL     1       8.317   5.777  12.692  0.00  0.00    +0.000 C 
ENDBRANCH  14  19
ENDBRANCH   7  11
ENDBRANCH   1   7
BRANCH   6  21
ATOM     21  N   UNL     1       2.065   5.544  18.910  0.00  0.00    +0.000 NA
ATOM     22  C   UNL     1       2.371   6.532  19.702  0.00  0.00    +0.000 C 
BRANCH  22  23
ATOM     23  C   UNL     1       1.857   7.884  19.657  0.00  0.00    +0.000 A 
ATOM     24  N   UNL     1       1.351   8.422  20.748  0.00  0.00    +0.000 NA
ATOM     25  C   UNL     1       0.887   9.697  20.481  0.00  0.00    +0.000 A 
ATOM     26  C   UNL     1       0.280  10.562  21.416  0.00  0.00    +0.000 A 
ATOM     27  C   UNL     1      -0.164  11.825  21.008  0.00  0.00    +0.000 A 
ATOM     28  C   UNL     1      -0.003  12.220  19.685  0.00  0.00    +0.000 A 
ATOM     29 CL   UNL     1      -0.570  13.773  19.196  0.00  0.00    +0.000 Cl
ATOM     30  C   UNL     1       0.603  11.388  18.736  0.00  0.00    +0.000 A 
ATOM     31  C   UNL     1       1.048  10.121  19.161  0.00  0.00    +0.000 A 
ATOM     32  S   UNL     1       1.834   8.864  18.262  0.00  0.00    +0.000 S 
ENDBRANCH  22  23
ENDBRANCH   6  21
TORSDOF 7
ENDMDL
MODEL 3
REMARK VINA RESULT:      -7.7      0.923      1.309
REMARK  Name = 
REMARK  10 active torsions:
REMARK  status: ('A' for Active; 'I' for Inactive)
REMARK    1  A    between atoms: C_1  and  O_2
REMARK    2  A    between atoms: O_2  and  C_3
REMARK    3  A    between atoms: C_5  and  N_6
REMARK    4  A    between atoms: N_6  and  C_7
REMARK    5  A    between atoms: C_12  and  N_13
REMARK    6  A    between atoms: C_14  and  C_15
REMARK    7  A    between atoms: C_26  and  O_27
REMARK    8  A    between atoms: O_27  and  C_28
REMARK    9  A    between atoms: C_29  and  O_30
REMARK   10  A    between atoms: O_30  and  C_31
REMARK                            x       y       z     vdW  Elec       q    Type
REMARK                         _______ _______ _______ _____ _____    ______ ____
ROOT
ATOM      1  C   UNL     1      -0.479  10.924  20.594  0.00  0.00    +0.000 A 
ATOM      2  N   UNL     1      -1.060  11.572  21.641  0.00  0.00    +0.000 NA
ATOM      3  C   UNL     1      -0.981  11.026  22.865  0.00  0.00    +0.000 A 
ATOM      4  C   UNL     1      -0.330   9.840  23.118  0.00  0.00    +0.000 A 
ATOM      5  C   UNL     1       0.312   9.206  22.057  0.00  0.00    +0.000 A 
ATOM      6  C   UNL     1       0.311   9.764  20.766  0.00  0.00    +0.000 A 
ENDROOT
BRANCH   1   7
ATOM      7  N   UNL     1      -0.704  11.456  19.293  0.00  0.00    +0.000 N 
ATOM      8  H   UNL     1      -0.193  10.850  18.649  0.00  0.00    +0.000 HD
BRANCH   7  11
ATOM      9  C   UNL     1      -3.650  11.269  16.999  0.00  0.00    +0.000 A 
ATOM     10  C   UNL     1      -2.323  11.256  17.482  0.00  0.00    +0.000 A 
ATOM     11  C   UNL     1      -2.021  11.658  18.779  0.00  0.00    +0.000 A 
ATOM     12  C   UNL     1      -3.078  12.096  19.581  0.00  0.00    +0.000 A 
ATOM     13  C   UNL     1      -4.396  12.197  19.105  0.00  0.00    +0.000 A 
ATOM     14  C   UNL     1      -4.700  11.788  17.792  0.00  0.00    +0.000 A 
BRANCH   9  16
ATOM     15  C   UNL     1      -2.841  10.136  15.081  0.00  0.00    +0.000 C 
ATOM     16  O   UNL     1      -3.922  10.799  15.737  0.00  0.00    +0.000 OA
ENDBRANCH   9  16
BRANCH  13  17
ATOM     17  O   UNL     1      -5.235  12.685  20.078  0.00  0.00    +0.000 OA
ATOM     18  C   UNL     1      -5.013  13.971  20.628  0.00  0.00    +0.000 C 
ENDBRANCH  13  17
BRANCH  14  19
ATOM     19  O   UNL     1      -6.002  11.950  17.405  0.00  0.00    +0.000 OA
ATOM     20  C   UNL     1      -6.483  13.203  16.953  0.00  0.00    +0.000 C 
ENDBRANCH  14  19
ENDBRANCH   7  11
ENDBRANCH   1   7
BRANCH   6  21
ATOM     21  N   UNL     1       0.998   9.130  19.681  0.00  0.00    +0.000 NA
ATOM     22  C   UNL     1       1.731   8.099  19.994  0.00  0.00    +0.000 C 
BRANCH  22  23
ATOM     23  C   UNL     1       2.479   7.248  19.093  0.00  0.00    +0.000 A 
ATOM     24  N   UNL     1       2.474   5.944  19.280  0.00  0.00    +0.000 NA
ATOM     25  C   UNL     1       3.273   5.323  18.339  0.00  0.00    +0.000 A 
ATOM     26  C   UNL     1       3.503   3.934  18.244  0.00  0.00    +0.000 A 
ATOM     27  C   UNL     1       4.354   3.436  17.251  0.00  0.00    +0.000 A 
ATOM     28  C   UNL     1       4.968   4.314  16.363  0.00  0.00    +0.000 A 
ATOM     29 CL   UNL     1       6.026   3.685  15.156  0.00  0.00    +0.000 Cl
ATOM     30  C   UNL     1       4.754   5.696  16.427  0.00  0.00    +0.000 A 
ATOM     31  C   UNL     1       3.892   6.182  17.429  0.00  0.00    +0.000 A 
ATOM     32  S   UNL     1       3.410   7.810  17.781  0.00  0.00    +0.000 S 
ENDBRANCH  22  23
ENDBRANCH   6  21
TORSDOF 7
ENDMDL
MODEL 4
REMARK VINA RESULT:      -7.6      0.900      2.639
REMARK  Name = 
REMARK  10 active torsions:
REMARK  status: ('A' for Active; 'I' for Inactive)
REMARK    1  A    between atoms: C_1  and  O_2
REMARK    2  A    between atoms: O_2  and  C_3
REMARK    3  A    between atoms: C_5  and  N_6
REMARK    4  A    between atoms: N_6  and  C_7
REMARK    5  A    between atoms: C_12  and  N_13
REMARK    6  A    between atoms: C_14  and  C_15
REMARK    7  A    between atoms: C_26  and  O_27
REMARK    8  A    between atoms: O_27  and  C_28
REMARK    9  A    between atoms: C_29  and  O_30
REMARK   10  A    between atoms: O_30  and  C_31
REMARK                            x       y       z     vdW  Elec       q    Type
REMARK                         _______ _______ _______ _____ _____    ______ ____
ROOT
ATOM      1  C   UNL     1      -0.378  10.629  20.787  0.00  0.00    +0.000 A 
ATOM      2  N   UNL     1      -0.994  11.196  21.861  0.00  0.00    +0.000 NA
ATOM      3  C   UNL     1      -0.834  10.635  23.070  0.00  0.00    +0.000 A 
ATOM      4  C   UNL     1      -0.067   9.512  23.282  0.00  0.00    +0.000 A 
ATOM      5  C   UNL     1       0.608   8.965  22.194  0.00  0.00    +0.000 A 
ATOM      6  C   UNL     1       0.524   9.547  20.917  0.00  0.00    +0.000 A 
ENDROOT
BRANCH   1   7
ATOM      7  N   UNL     1      -0.683  11.164  19.503  0.00  0.00    +0.000 N 
ATOM      8  H   UNL     1      -0.213  10.560  18.828  0.00  0.00    +0.000 HD
BRANCH   7  11
ATOM      9  C   UNL     1      -4.155  12.540  19.346  0.00  0.00    +0.000 A 
ATOM     10  C   UNL     1      -2.881  12.167  19.826  0.00  0.00    +0.000 A 
ATOM     11  C   UNL     1      -2.030  11.365  19.072  0.00  0.00    +0.000 A 
ATOM     12  C   UNL     1      -2.492  10.923  17.830  0.00  0.00    +0.000 A 
ATOM     13  C   UNL     1      -3.784  11.210  17.360  0.00  0.00    +0.000 A 
ATOM     14  C   UNL     1      -4.644  12.023  18.124  0.00  0.00    +0.000 A 
BRANCH   9  16
ATOM     15  C   UNL     1      -5.505  12.832  21.273  0.00  0.00    +0.000 C 
ATOM     16  O   UNL     1      -4.942  13.391  20.085  0.00  0.00    +0.000 OA
ENDBRANCH   9  16
BRANCH  13  17
ATOM     17  O   UNL     1      -4.001  10.632  16.132  0.00  0.00    +0.000 OA
ATOM     18  C   UNL     1      -2.939  10.522  15.201  0.00  0.00    +0.000 C 
ENDBRANCH  13  17
BRANCH  14  19
ATOM     19  O   UNL     1      -5.892  12.224  17.602  0.00  0.00    +0.000 OA
ATOM     20  C   UNL     1      -7.012  11.500  18.079  0.00  0.00    +0.000 C 
ENDBRANCH  14  19
ENDBRANCH   7  11
ENDBRANCH   1   7
BRANCH   6  21
ATOM     21  N   UNL     1       1.243   9.005  19.802  0.00  0.00    +0.000 NA
ATOM     22  C   UNL     1       1.856   7.875  20.015  0.00  0.00    +0.000 C 
BRANCH  22  23
ATOM     23  C   UNL     1       2.602   7.088  19.056  0.00  0.00    +0.000 A 
ATOM     24  N   UNL     1       2.623   5.776  19.171  0.00  0.00    +0.000 NA
ATOM     25  C   UNL     1       3.416   5.221  18.184  0.00  0.00    +0.000 A 
ATOM     26  C   UNL     1       3.667   3.844  18.009  0.00  0.00    +0.000 A 
ATOM     27  C   UNL     1       4.509   3.417  16.976  0.00  0.00    +0.000 A 
ATOM     28  C   UNL     1       5.091   4.352  16.127  0.00  0.00    +0.000 A 
ATOM     29 CL   UNL     1       6.137   3.809  14.869  0.00  0.00    +0.000 Cl
ATOM     30  C   UNL     1       4.854   5.724  16.270  0.00  0.00    +0.000 A 
ATOM     31  C   UNL     1       4.003   6.140  17.312  0.00  0.00    +0.000 A 
ATOM     32  S   UNL     1       3.499   7.737  17.761  0.00  0.00    +0.000 S 
ENDBRANCH  22  23
ENDBRANCH   6  21
TORSDOF 7
ENDMDL
MODEL 5
REMARK VINA RESULT:      -7.6      5.777     10.171
REMARK  Name = 
REMARK  10 active torsions:
REMARK  status: ('A' for Active; 'I' for Inactive)
REMARK    1  A    between atoms: C_1  and  O_2
REMARK    2  A    between atoms: O_2  and  C_3
REMARK    3  A    between atoms: C_5  and  N_6
REMARK    4  A    between atoms: N_6  and  C_7
REMARK    5  A    between atoms: C_12  and  N_13
REMARK    6  A    between atoms: C_14  and  C_15
REMARK    7  A    between atoms: C_26  and  O_27
REMARK    8  A    between atoms: O_27  and  C_28
REMARK    9  A    between atoms: C_29  and  O_30
REMARK   10  A    between atoms: O_30  and  C_31
REMARK                            x       y       z     vdW  Elec       q    Type
REMARK                         _______ _______ _______ _____ _____    ______ ____
ROOT
ATOM      1  C   UNL     1       3.194   4.348  18.614  0.00  0.00    +0.000 A 
ATOM      2  N   UNL     1       3.678   3.078  18.682  0.00  0.00    +0.000 NA
ATOM      3  C   UNL     1       3.647   2.435  19.860  0.00  0.00    +0.000 A 
ATOM      4  C   UNL     1       3.140   2.997  21.010  0.00  0.00    +0.000 A 
ATOM      5  C   UNL     1       2.594   4.275  20.928  0.00  0.00    +0.000 A 
ATOM      6  C   UNL     1       2.547   4.971  19.707  0.00  0.00    +0.000 A 
ENDROOT
BRANCH   1   7
ATOM      7  N   UNL     1       3.373   5.049  17.388  0.00  0.00    +0.000 N 
ATOM      8  H   UNL     1       3.136   6.023  17.583  0.00  0.00    +0.000 HD
BRANCH   7  11
ATOM      9  C   UNL     1       5.908   4.170  14.785  0.00  0.00    +0.000 A 
ATOM     10  C   UNL     1       4.778   4.114  15.630  0.00  0.00    +0.000 A 
ATOM     11  C   UNL     1       4.609   5.016  16.675  0.00  0.00    +0.000 A 
ATOM     12  C   UNL     1       5.612   5.969  16.872  0.00  0.00    +0.000 A 
ATOM     13  C   UNL     1       6.786   6.001  16.100  0.00  0.00    +0.000 A 
ATOM     14  C   UNL     1       6.953   5.087  15.042  0.00  0.00    +0.000 A 
BRANCH   9  16
ATOM     15  C   UNL     1       5.221   3.648  12.578  0.00  0.00    +0.000 C 
ATOM     16  O   UNL     1       6.008   3.308  13.720  0.00  0.00    +0.000 OA
ENDBRANCH   9  16
BRANCH  13  17
ATOM     17  O   UNL     1       7.622   7.009  16.517  0.00  0.00    +0.000 OA
ATOM     18  C   UNL     1       7.766   7.287  17.898  0.00  0.00    +0.000 C 
ENDBRANCH  13  17
BRANCH  14  19
ATOM     19  O   UNL     1       8.139   5.172  14.365  0.00  0.00    +0.000 OA
ATOM     20  C   UNL     1       8.197   5.700  13.051  0.00  0.00    +0.000 C 
ENDBRANCH  14  19
ENDBRANCH   7  11
ENDBRANCH   1   7
BRANCH   6  21
ATOM     21  N   UNL     1       1.956   6.273  19.614  0.00  0.00    +0.000 NA
ATOM     22  C   UNL     1       1.628   6.832  20.745  0.00  0.00    +0.000 C 
BRANCH  22  23
ATOM     23  C   UNL     1       1.072   8.154  20.941  0.00  0.00    +0.000 A 
ATOM     24  N   UNL     1       0.445   8.432  22.065  0.00  0.00    +0.000 NA
ATOM     25  C   UNL     1      -0.038   9.728  22.035  0.00  0.00    +0.000 A 
ATOM     26  C   UNL     1      -0.763  10.358  23.068  0.00  0.00    +0.000 A 
ATOM     27  C   UNL     1      -1.212  11.673  22.900  0.00  0.00    +0.000 A 
ATOM     28  C   UNL     1      -0.940  12.350  21.716  0.00  0.00    +0.000 A 
ATOM     29 CL   UNL     1      -1.514  13.964  21.520  0.00  0.00    +0.000 Cl
ATOM     30  C   UNL     1      -0.215  11.755  20.677  0.00  0.00    +0.000 A 
ATOM     31  C   UNL     1       0.233  10.432  20.861  0.00  0.00    +0.000 A 
ATOM     32  S   UNL     1       1.146   9.414  19.796  0.00  0.00    +0.000 S 
ENDBRANCH  22  23
ENDBRANCH   6  21
TORSDOF 7
ENDMDL
MODEL 6
REMARK VINA RESULT:      -7.6      0.421      2.338
REMARK  Name = 
REMARK  10 active torsions:
REMARK  status: ('A' for Active; 'I' for Inactive)
REMARK    1  A    between atoms: C_1  and  O_2
REMARK    2  A    between atoms: O_2  and  C_3
REMARK    3  A    between atoms: C_5  and  N_6
REMARK    4  A    between atoms: N_6  and  C_7
REMARK    5  A    between atoms: C_12  and  N_13
REMARK    6  A    between atoms: C_14  and  C_15
REMARK    7  A    between atoms: C_26  and  O_27
REMARK    8  A    between atoms: O_27  and  C_28
REMARK    9  A    between atoms: C_29  and  O_30
REMARK   10  A    between atoms: O_30  and  C_31
REMARK                            x       y       z     vdW  Elec       q    Type
REMARK                         _______ _______ _______ _____ _____    ______ ____
ROOT
ATOM      1  C   UNL     1      -0.540  10.767  20.667  0.00  0.00    +0.000 A 
ATOM      2  N   UNL     1      -1.146  11.406  21.705  0.00  0.00    +0.000 NA
ATOM      3  C   UNL     1      -1.023  10.896  22.940  0.00  0.00    +0.000 A 
ATOM      4  C   UNL     1      -0.303   9.755  23.214  0.00  0.00    +0.000 A 
ATOM      5  C   UNL     1       0.363   9.133  22.161  0.00  0.00    +0.000 A 
ATOM      6  C   UNL     1       0.317   9.658  20.857  0.00  0.00    +0.000 A 
ENDROOT
BRANCH   1   7
ATOM      7  N   UNL     1      -0.809  11.254  19.356  0.00  0.00    +0.000 N 
ATOM      8  H   UNL     1      -0.274  10.660  18.720  0.00  0.00    +0.000 HD
BRANCH   7  11
ATOM      9  C   UNL     1      -4.416  12.214  19.152  0.00  0.00    +0.000 A 
ATOM     10  C   UNL     1      -3.135  11.912  19.664  0.00  0.00    +0.000 A 
ATOM     11  C   UNL     1      -2.141  11.372  18.855  0.00  0.00    +0.000 A 
ATOM     12  C   UNL     1      -2.463  11.119  17.519  0.00  0.00    +0.000 A 
ATOM     13  C   UNL     1      -3.751  11.333  16.999  0.00  0.00    +0.000 A 
ATOM     14  C   UNL     1      -4.755  11.881  17.820  0.00  0.00    +0.000 A 
BRANCH   9  16
ATOM     15  C   UNL     1      -5.112  12.702  21.365  0.00  0.00    +0.000 C 
ATOM     16  O   UNL     1      -5.352  12.812  19.961  0.00  0.00    +0.000 OA
ENDBRANCH   9  16
BRANCH  13  17
ATOM     17  O   UNL     1      -3.813  10.974  15.674  0.00  0.00    +0.000 OA
ATOM     18  C   UNL     1      -2.827  10.120  15.122  0.00  0.00    +0.000 C 
ENDBRANCH  13  17
BRANCH  14  19
ATOM     19  O   UNL     1      -5.985  12.027  17.238  0.00  0.00    +0.000 OA
ATOM     20  C   UNL     1      -6.486  13.307  16.893  0.00  0.00    +0.000 C 
ENDBRANCH  14  19
ENDBRANCH   7  11
ENDBRANCH   1   7
BRANCH   6  21
ATOM     21  N   UNL     1       1.028   9.038  19.779  0.00  0.00    +0.000 NA
ATOM     22  C   UNL     1       1.800   8.040  20.104  0.00  0.00    +0.000 C 
BRANCH  22  23
ATOM     23  C   UNL     1       2.580   7.208  19.213  0.00  0.00    +0.000 A 
ATOM     24  N   UNL     1       3.267   7.769  18.239  0.00  0.00    +0.000 NA
ATOM     25  C   UNL     1       3.908   6.802  17.487  0.00  0.00    +0.000 A 
ATOM     26  C   UNL     1       4.727   7.043  16.365  0.00  0.00    +0.000 A 
ATOM     27  C   UNL     1       5.302   5.967  15.679  0.00  0.00    +0.000 A 
ATOM     28  C   UNL     1       5.064   4.666  16.110  0.00  0.00    +0.000 A 
ATOM     29 CL   UNL     1       5.769   3.352  15.245  0.00  0.00    +0.000 Cl
ATOM     30  C   UNL     1       4.264   4.395  17.226  0.00  0.00    +0.000 A 
ATOM     31  C   UNL     1       3.693   5.488  17.907  0.00  0.00    +0.000 A 
ATOM     32  S   UNL     1       2.672   5.509  19.308  0.00  0.00    +0.000 S 
ENDBRANCH  22  23
ENDBRANCH   6  21
TORSDOF 7
ENDMDL
MODEL 7
REMARK VINA RESULT:      -7.5      7.903      9.625
REMARK  Name = 
REMARK  10 active torsions:
REMARK  status: ('A' for Active; 'I' for Inactive)
REMARK    1  A    between atoms: C_1  and  O_2
REMARK    2  A    between atoms: O_2  and  C_3
REMARK    3  A    between atoms: C_5  and  N_6
REMARK    4  A    between atoms: N_6  and  C_7
REMARK    5  A    between atoms: C_12  and  N_13
REMARK    6  A    between atoms: C_14  and  C_15
REMARK    7  A    between atoms: C_26  and  O_27
REMARK    8  A    between atoms: O_27  and  C_28
REMARK    9  A    between atoms: C_29  and  O_30
REMARK   10  A    between atoms: O_30  and  C_31
REMARK                            x       y       z     vdW  Elec       q    Type
REMARK                         _______ _______ _______ _____ _____    ______ ____
ROOT
ATOM      1  C   UNL     1      10.126  11.657  20.282  0.00  0.00    +0.000 A 
ATOM      2  N   UNL     1      11.073  12.636  20.284  0.00  0.00    +0.000 NA
ATOM      3  C   UNL     1      11.744  12.890  19.149  0.00  0.00    +0.000 A 
ATOM      4  C   UNL     1      11.517  12.211  17.974  0.00  0.00    +0.000 A 
ATOM      5  C   UNL     1      10.511  11.249  17.957  0.00  0.00    +0.000 A 
ATOM      6  C   UNL     1       9.736  10.984  19.101  0.00  0.00    +0.000 A 
ENDROOT
BRANCH   1   7
ATOM      7  N   UNL     1       9.537  11.319  21.533  0.00  0.00    +0.000 N 
ATOM      8  H   UNL     1      10.302  11.301  22.209  0.00  0.00    +0.000 HD
BRANCH   7  11
ATOM      9  C   UNL     1       6.989  14.022  21.952  0.00  0.00    +0.000 A 
ATOM     10  C   UNL     1       8.153  13.325  21.562  0.00  0.00    +0.000 A 
ATOM     11  C   UNL     1       8.458  12.073  22.086  0.00  0.00    +0.000 A 
ATOM     12  C   UNL     1       7.579  11.539  23.032  0.00  0.00    +0.000 A 
ATOM     13  C   UNL     1       6.456  12.241  23.501  0.00  0.00    +0.000 A 
ATOM     14  C   UNL     1       6.149  13.507  22.968  0.00  0.00    +0.000 A 
BRANCH   9  16
ATOM     15  C   UNL     1       5.877  15.145  20.186  0.00  0.00    +0.000 C 
ATOM     16  O   UNL     1       6.682  15.224  21.363  0.00  0.00    +0.000 OA
ENDBRANCH   9  16
BRANCH  13  17
ATOM     17  O   UNL     1       5.779  11.511  24.448  0.00  0.00    +0.000 OA
ATOM     18  C   UNL     1       6.360  11.285  25.721  0.00  0.00    +0.000 C 
ENDBRANCH  13  17
BRANCH  14  19
ATOM     19  O   UNL     1       5.056  14.130  23.504  0.00  0.00    +0.000 OA
ATOM     20  C   UNL     1       5.183  15.029  24.591  0.00  0.00    +0.000 C 
ENDBRANCH  14  19
ENDBRANCH   7  11
ENDBRANCH   1   7
BRANCH   6  21
ATOM     21  N   UNL     1       8.679  10.018  19.077  0.00  0.00    +0.000 NA
ATOM     22  C   UNL     1       8.837   9.020  18.253  0.00  0.00    +0.000 C 
BRANCH  22  23
ATOM     23  C   UNL     1       7.957   7.886  18.071  0.00  0.00    +0.000 A 
ATOM     24  N   UNL     1       7.009   7.941  17.158  0.00  0.00    +0.000 NA
ATOM     25  C   UNL     1       6.263   6.777  17.172  0.00  0.00    +0.000 A 
ATOM     26  C   UNL     1       5.166   6.494  16.331  0.00  0.00    +0.000 A 
ATOM     27  C   UNL     1       4.484   5.279  16.463  0.00  0.00    +0.000 A 
ATOM     28  C   UNL     1       4.892   4.358  17.422  0.00  0.00    +0.000 A 
ATOM     29 CL   UNL     1       4.031   2.873  17.581  0.00  0.00    +0.000 Cl
ATOM     30  C   UNL     1       5.982   4.605  18.264  0.00  0.00    +0.000 A 
ATOM     31  C   UNL     1       6.662   5.831  18.118  0.00  0.00    +0.000 A 
ATOM     32  S   UNL     1       8.034   6.446  18.980  0.00  0.00    +0.000 S 
ENDBRANCH  22  23
ENDBRANCH   6  21
TORSDOF 7
ENDMDL
MODEL 8
REMARK VINA RESULT:      -7.5      5.764      9.980
REMARK  Name = 
REMARK  10 active torsions:
REMARK  status: ('A' for Active; 'I' for Inactive)
REMARK    1  A    between atoms: C_1  and  O_2
REMARK    2  A    between atoms: O_2  and  C_3
REMARK    3  A    between atoms: C_5  and  N_6
REMARK    4  A    between atoms: N_6  and  C_7
REMARK    5  A    between atoms: C_12  and  N_13
REMARK    6  A    between atoms: C_14  and  C_15
REMARK    7  A    between atoms: C_26  and  O_27
REMARK    8  A    between atoms: O_27  and  C_28
REMARK    9  A    between atoms: C_29  and  O_30
REMARK   10  A    between atoms: O_30  and  C_31
REMARK                            x       y       z     vdW  Elec       q    Type
REMARK                         _______ _______ _______ _____ _____    ______ ____
ROOT
ATOM      1  C   UNL     1       3.389   3.898  18.370  0.00  0.00    +0.000 A 
ATOM      2  N   UNL     1       4.049   2.711  18.457  0.00  0.00    +0.000 NA
ATOM      3  C   UNL     1       4.091   2.078  19.640  0.00  0.00    +0.000 A 
ATOM      4  C   UNL     1       3.490   2.569  20.777  0.00  0.00    +0.000 A 
ATOM      5  C   UNL     1       2.768   3.754  20.675  0.00  0.00    +0.000 A 
ATOM      6  C   UNL     1       2.641   4.429  19.448  0.00  0.00    +0.000 A 
ENDROOT
BRANCH   1   7
ATOM      7  N   UNL     1       3.485   4.610  17.141  0.00  0.00    +0.000 N 
ATOM      8  H   UNL     1       3.146   5.553  17.334  0.00  0.00    +0.000 HD
BRANCH   7  11
ATOM      9  C   UNL     1       6.014   4.156  14.426  0.00  0.00    +0.000 A 
ATOM     10  C   UNL     1       4.896   3.956  15.264  0.00  0.00    +0.000 A 
ATOM     11  C   UNL     1       4.715   4.707  16.421  0.00  0.00    +0.000 A 
ATOM     12  C   UNL     1       5.694   5.652  16.736  0.00  0.00    +0.000 A 
ATOM     13  C   UNL     1       6.857   5.819  15.967  0.00  0.00    +0.000 A 
ATOM     14  C   UNL     1       7.038   5.059  14.795  0.00  0.00    +0.000 A 
BRANCH   9  16
ATOM     15  C   UNL     1       5.021   3.563  12.357  0.00  0.00    +0.000 C 
ATOM     16  O   UNL     1       6.126   3.446  13.254  0.00  0.00    +0.000 OA
ENDBRANCH   9  16
BRANCH  13  17
ATOM     17  O   UNL     1       7.671   6.786  16.508  0.00  0.00    +0.000 OA
ATOM     18  C   UNL     1       7.476   7.213  17.845  0.00  0.00    +0.000 C 
ENDBRANCH  13  17
BRANCH  14  19
ATOM     19  O   UNL     1       8.213   5.267  14.127  0.00  0.00    +0.000 OA
ATOM     20  C   UNL     1       8.223   5.700  12.778  0.00  0.00    +0.000 C 
ENDBRANCH  14  19
ENDBRANCH   7  11
ENDBRANCH   1   7
BRANCH   6  21
ATOM     21  N   UNL     1       1.872   5.632  19.334  0.00  0.00    +0.000 NA
ATOM     22  C   UNL     1       2.233   6.615  20.110  0.00  0.00    +0.000 C 
BRANCH  22  23
ATOM     23  C   UNL     1       1.669   7.947  20.158  0.00  0.00    +0.000 A 
ATOM     24  N   UNL     1       1.788   8.738  19.112  0.00  0.00    +0.000 NA
ATOM     25  C   UNL     1       1.217   9.969  19.376  0.00  0.00    +0.000 A 
ATOM     26  C   UNL     1       1.166  11.060  18.483  0.00  0.00    +0.000 A 
ATOM     27  C   UNL     1       0.572  12.262  18.886  0.00  0.00    +0.000 A 
ATOM     28  C   UNL     1       0.035  12.373  20.164  0.00  0.00    +0.000 A 
ATOM     29 CL   UNL     1      -0.679  13.865  20.649  0.00  0.00    +0.000 Cl
ATOM     30  C   UNL     1       0.062  11.306  21.069  0.00  0.00    +0.000 A 
ATOM     31  C   UNL     1       0.660  10.102  20.650  0.00  0.00    +0.000 A 
ATOM     32  S   UNL     1       0.856   8.605  21.503  0.00  0.00    +0.000 S 
ENDBRANCH  22  23
ENDBRANCH   6  21
TORSDOF 7
ENDMDL
MODEL 9
REMARK VINA RESULT:      -7.4      5.816      9.869
REMARK  Name = 
REMARK  10 active torsions:
REMARK  status: ('A' for Active; 'I' for Inactive)
REMARK    1  A    between atoms: C_1  and  O_2
REMARK    2  A    between atoms: O_2  and  C_3
REMARK    3  A    between atoms: C_5  and  N_6
REMARK    4  A    between atoms: N_6  and  C_7
REMARK    5  A    between atoms: C_12  and  N_13
REMARK    6  A    between atoms: C_14  and  C_15
REMARK    7  A    between atoms: C_26  and  O_27
REMARK    8  A    between atoms: O_27  and  C_28
REMARK    9  A    between atoms: C_29  and  O_30
REMARK   10  A    between atoms: O_30  and  C_31
REMARK                            x       y       z     vdW  Elec       q    Type
REMARK                         _______ _______ _______ _____ _____    ______ ____
ROOT
ATOM      1  C   UNL     1       2.681   4.531  18.927  0.00  0.00    +0.000 A 
ATOM      2  N   UNL     1       2.817   3.177  18.913  0.00  0.00    +0.000 NA
ATOM      3  C   UNL     1       2.739   2.506  20.073  0.00  0.00    +0.000 A 
ATOM      4  C   UNL     1       2.519   3.123  21.284  0.00  0.00    +0.000 A 
ATOM      5  C   UNL     1       2.324   4.501  21.291  0.00  0.00    +0.000 A 
ATOM      6  C   UNL     1       2.336   5.245  20.098  0.00  0.00    +0.000 A 
ENDROOT
BRANCH   1   7
ATOM      7  N   UNL     1       2.910   5.222  17.703  0.00  0.00    +0.000 N 
ATOM      8  H   UNL     1       2.635   6.191  17.871  0.00  0.00    +0.000 HD
BRANCH   7  11
ATOM      9  C   UNL     1       5.657   4.282  15.347  0.00  0.00    +0.000 A 
ATOM     10  C   UNL     1       4.486   4.223  16.134  0.00  0.00    +0.000 A 
ATOM     11  C   UNL     1       4.186   5.215  17.062  0.00  0.00    +0.000 A 
ATOM     12  C   UNL     1       5.100   6.263  17.203  0.00  0.00    +0.000 A 
ATOM     13  C   UNL     1       6.312   6.309  16.494  0.00  0.00    +0.000 A 
ATOM     14  C   UNL     1       6.612   5.305  15.554  0.00  0.00    +0.000 A 
BRANCH   9  16
ATOM     15  C   UNL     1       5.277   3.562  13.121  0.00  0.00    +0.000 C 
ATOM     16  O   UNL     1       5.886   3.323  14.391  0.00  0.00    +0.000 OA
ENDBRANCH   9  16
BRANCH  13  17
ATOM     17  O   UNL     1       7.042   7.421  16.839  0.00  0.00    +0.000 OA
ATOM     18  C   UNL     1       7.830   7.417  18.017  0.00  0.00    +0.000 C 
ENDBRANCH  13  17
BRANCH  14  19
ATOM     19  O   UNL     1       7.826   5.414  14.933  0.00  0.00    +0.000 OA
ATOM     20  C   UNL     1       7.920   5.570  13.528  0.00  0.00    +0.000 C 
ENDBRANCH  14  19
ENDBRANCH   7  11
ENDBRANCH   1   7
BRANCH   6  21
ATOM     21  N   UNL     1       2.104   6.659  20.099  0.00  0.00    +0.000 NA
ATOM     22  C   UNL     1       1.157   7.080  20.890  0.00  0.00    +0.000 C 
BRANCH  22  23
ATOM     23  C   UNL     1       0.756   8.451  21.125  0.00  0.00    +0.000 A 
ATOM     24  N   UNL     1       1.235   9.407  20.355  0.00  0.00    +0.000 NA
ATOM     25  C   UNL     1       0.758  10.637  20.768  0.00  0.00    +0.000 A 
ATOM     26  C   UNL     1       1.068  11.879  20.175  0.00  0.00    +0.000 A 
ATOM     27  C   UNL     1       0.531  13.057  20.707  0.00  0.00    +0.000 A 
ATOM     28  C   UNL     1      -0.306  12.995  21.816  0.00  0.00    +0.000 A 
ATOM     29 CL   UNL     1      -0.947  14.458  22.467  0.00  0.00    +0.000 Cl
ATOM     30  C   UNL     1      -0.639  11.778  22.421  0.00  0.00    +0.000 A 
ATOM     31  C   UNL     1      -0.093  10.600  21.874  0.00  0.00    +0.000 A 
ATOM     32  S   UNL     1      -0.301   8.951  22.365  0.00  0.00    +0.000 S 
ENDBRANCH  22  23
ENDBRANCH   6  21
TORSDOF 7
ENDMDL
