MODEL 1
REMARK VINA RESULT:      -6.7      0.000      0.000
REMARK  Name = 
REMARK  5 active torsions:
REMARK  status: ('A' for Active; 'I' for Inactive)
REMARK    1  A    between atoms: C_2  and  C_3
REMARK    2  A    between atoms: C_3  and  N_4
REMARK    3  A    between atoms: C_12  and  O_13
REMARK    4  A    between atoms: C_17  and  O_18
REMARK    5  A    between atoms: C_21  and  O_22
REMARK                            x       y       z     vdW  Elec       q    Type
REMARK                         _______ _______ _______ _____ _____    ______ ____
ROOT
ATOM      1  N   UNL     1       6.950   6.615  17.491  0.00  0.00    +0.000 NA
ATOM      2  C   UNL     1       7.572   6.219  18.868  0.00  0.00    +0.000 C 
ATOM      3  C   UNL     1       6.535   5.454  19.632  0.00  0.00    +0.000 C 
ATOM      4  C   UNL     1       5.228   4.882  18.273  0.00  0.00    +0.000 C 
ATOM      5  C   UNL     1       4.248   3.709  18.193  0.00  0.00    +0.000 A 
ATOM      6  C   UNL     1       3.385   3.688  17.226  0.00  0.00    +0.000 A 
ATOM      7  C   UNL     1       2.404   2.665  17.190  0.00  0.00    +0.000 A 
ATOM      8  C   UNL     1       2.640   1.533  18.030  0.00  0.00    +0.000 A 
ATOM      9  C   UNL     1       3.791   1.528  18.848  0.00  0.00    +0.000 A 
ATOM     10  C   UNL     1       4.485   2.734  18.958  0.00  0.00    +0.000 A 
ATOM     11  O   UNL     1       5.488   3.155  19.592  0.00  0.00    +0.000 OA
ATOM     12  C   UNL     1       5.894   4.393  18.965  0.00  0.00    +0.000 C 
ATOM     13  C   UNL     1       4.537   6.188  18.670  0.00  0.00    +0.000 C 
ATOM     14  C   UNL     1       4.504   7.334  17.310  0.00  0.00    +0.000 C 
ATOM     15  C   UNL     1       5.090   6.763  15.966  0.00  0.00    +0.000 C 
ATOM     16  C   UNL     1       5.507   4.958  16.647  0.00  0.00    +0.000 C 
ATOM     17  C   UNL     1       6.184   5.706  16.317  0.00  0.00    +0.000 C 
ATOM     18  C   UNL     1       4.004   4.725  16.153  0.00  0.00    +0.000 C 
ENDROOT
BRANCH   9  19
ATOM     19  O   UNL     1       4.295   0.366  19.380  0.00  0.00    +0.000 OA
ATOM     20  H   UNL     1       3.694  -0.383  19.537  0.00  0.00    +0.000 HD
ENDBRANCH   9  19
BRANCH  13  21
ATOM     21  O   UNL     1       3.205   6.042  19.127  0.00  0.00    +0.000 OA
ATOM     22  H   UNL     1       3.176   5.391  19.840  0.00  0.00    +0.000 HD
ENDBRANCH  13  21
BRANCH  16  23
ATOM     23  O   UNL     1       6.067   3.673  16.069  0.00  0.00    +0.000 OA
ATOM     24  H   UNL     1       5.429   2.885  16.202  0.00  0.00    +0.000 HD
ENDBRANCH  16  23
BRANCH   1  25
ATOM     25  C   UNL     1       7.816   7.837  17.144  0.00  0.00    +0.000 C 
BRANCH  25  27
ATOM     26  C   UNL     1       8.637  10.020  18.140  0.00  0.00    +0.000 C 
ATOM     27  C   UNL     1       8.426   8.700  18.272  0.00  0.00    +0.000 C 
ENDBRANCH  25  27
ENDBRANCH   1  25
TORSDOF 5
ENDMDL
MODEL 2
REMARK VINA RESULT:      -6.6      2.292      5.534
REMARK  Name = 
REMARK  5 active torsions:
REMARK  status: ('A' for Active; 'I' for Inactive)
REMARK    1  A    between atoms: C_2  and  C_3
REMARK    2  A    between atoms: C_3  and  N_4
REMARK    3  A    between atoms: C_12  and  O_13
REMARK    4  A    between atoms: C_17  and  O_18
REMARK    5  A    between atoms: C_21  and  O_22
REMARK                            x       y       z     vdW  Elec       q    Type
REMARK                         _______ _______ _______ _____ _____    ______ ____
ROOT
ATOM      1  N   UNL     1       2.598   3.323  19.434  0.00  0.00    +0.000 NA
ATOM      2  C   UNL     1       3.719   2.438  20.068  0.00  0.00    +0.000 C 
ATOM      3  C   UNL     1       4.998   2.740  19.349  0.00  0.00    +0.000 C 
ATOM      4  C   UNL     1       4.674   4.462  18.448  0.00  0.00    +0.000 C 
ATOM      5  C   UNL     1       5.599   5.593  17.991  0.00  0.00    +0.000 A 
ATOM      6  C   UNL     1       5.101   6.545  17.265  0.00  0.00    +0.000 A 
ATOM      7  C   UNL     1       5.959   7.548  16.749  0.00  0.00    +0.000 A 
ATOM      8  C   UNL     1       7.258   7.635  17.339  0.00  0.00    +0.000 A 
ATOM      9  C   UNL     1       7.603   6.712  18.350  0.00  0.00    +0.000 A 
ATOM     10  C   UNL     1       6.740   5.629  18.528  0.00  0.00    +0.000 A 
ATOM     11  O   UNL     1       6.705   4.600  19.254  0.00  0.00    +0.000 OA
ATOM     12  C   UNL     1       5.351   4.095  19.202  0.00  0.00    +0.000 C 
ATOM     13  C   UNL     1       4.255   3.554  17.290  0.00  0.00    +0.000 C 
ATOM     14  C   UNL     1       2.527   3.752  16.916  0.00  0.00    +0.000 C 
ATOM     15  C   UNL     1       1.803   4.864  17.761  0.00  0.00    +0.000 C 
ATOM     16  C   UNL     1       3.389   5.443  18.784  0.00  0.00    +0.000 C 
ATOM     17  C   UNL     1       2.512   4.967  19.147  0.00  0.00    +0.000 C 
ATOM     18  C   UNL     1       3.512   6.410  17.515  0.00  0.00    +0.000 C 
ENDROOT
BRANCH   9  19
ATOM     19  O   UNL     1       8.640   6.945  19.220  0.00  0.00    +0.000 OA
ATOM     20  H   UNL     1       8.531   7.614  19.919  0.00  0.00    +0.000 HD
ENDBRANCH   9  19
BRANCH  13  21
ATOM     21  O   UNL     1       4.970   3.756  16.084  0.00  0.00    +0.000 OA
ATOM     22  H   UNL     1       5.579   4.499  16.190  0.00  0.00    +0.000 HD
ENDBRANCH  13  21
BRANCH  16  23
ATOM     23  O   UNL     1       3.693   6.503  19.824  0.00  0.00    +0.000 OA
ATOM     24  H   UNL     1       4.632   6.892  19.709  0.00  0.00    +0.000 HD
ENDBRANCH  16  23
BRANCH   1  25
ATOM     25  C   UNL     1       1.358   2.490  19.795  0.00  0.00    +0.000 C 
BRANCH  25  27
ATOM     26  C   UNL     1       1.640   2.760  22.301  0.00  0.00    +0.000 C 
ATOM     27  C   UNL     1       0.860   2.436  21.257  0.00  0.00    +0.000 C 
ENDBRANCH  25  27
ENDBRANCH   1  25
TORSDOF 5
ENDMDL
MODEL 3
REMARK VINA RESULT:      -6.6      2.309      3.711
REMARK  Name = 
REMARK  5 active torsions:
REMARK  status: ('A' for Active; 'I' for Inactive)
REMARK    1  A    between atoms: C_2  and  C_3
REMARK    2  A    between atoms: C_3  and  N_4
REMARK    3  A    between atoms: C_12  and  O_13
REMARK    4  A    between atoms: C_17  and  O_18
REMARK    5  A    between atoms: C_21  and  O_22
REMARK                            x       y       z     vdW  Elec       q    Type
REMARK                         _______ _______ _______ _____ _____    ______ ____
ROOT
ATOM      1  N   UNL     1       5.502   5.286  16.031  0.00  0.00    +0.000 NA
ATOM      2  C   UNL     1       5.125   3.964  15.288  0.00  0.00    +0.000 C 
ATOM      3  C   UNL     1       4.568   3.015  16.305  0.00  0.00    +0.000 C 
ATOM      4  C   UNL     1       4.086   4.149  17.842  0.00  0.00    +0.000 C 
ATOM      5  C   UNL     1       3.057   4.005  18.967  0.00  0.00    +0.000 A 
ATOM      6  C   UNL     1       3.086   4.855  19.946  0.00  0.00    +0.000 A 
ATOM      7  C   UNL     1       2.209   4.681  21.045  0.00  0.00    +0.000 A 
ATOM      8  C   UNL     1       1.119   3.777  20.848  0.00  0.00    +0.000 A 
ATOM      9  C   UNL     1       1.014   3.107  19.610  0.00  0.00    +0.000 A 
ATOM     10  C   UNL     1       2.117   3.190  18.758  0.00  0.00    +0.000 A 
ATOM     11  O   UNL     1       2.440   2.722  17.635  0.00  0.00    +0.000 OA
ATOM     12  C   UNL     1       3.561   3.502  17.160  0.00  0.00    +0.000 C 
ATOM     13  C   UNL     1       5.500   3.790  18.302  0.00  0.00    +0.000 C 
ATOM     14  C   UNL     1       6.538   5.234  18.367  0.00  0.00    +0.000 C 
ATOM     15  C   UNL     1       5.796   6.582  18.041  0.00  0.00    +0.000 C 
ATOM     16  C   UNL     1       4.004   5.798  17.773  0.00  0.00    +0.000 C 
ATOM     17  C   UNL     1       4.626   6.273  17.055  0.00  0.00    +0.000 C 
ATOM     18  C   UNL     1       3.946   6.083  19.346  0.00  0.00    +0.000 C 
ENDROOT
BRANCH   9  19
ATOM     19  O   UNL     1      -0.165   2.537  19.193  0.00  0.00    +0.000 OA
ATOM     20  H   UNL     1      -0.719   3.013  18.550  0.00  0.00    +0.000 HD
ENDBRANCH   9  19
BRANCH  13  21
ATOM     21  O   UNL     1       5.574   3.164  19.570  0.00  0.00    +0.000 OA
ATOM     22  H   UNL     1       4.879   3.512  20.144  0.00  0.00    +0.000 HD
ENDBRANCH  13  21
BRANCH  16  23
ATOM     23  O   UNL     1       2.616   6.321  17.464  0.00  0.00    +0.000 OA
ATOM     24  H   UNL     1       2.323   6.088  16.512  0.00  0.00    +0.000 HD
ENDBRANCH  16  23
BRANCH   1  25
ATOM     25  C   UNL     1       6.564   5.842  15.069  0.00  0.00    +0.000 C 
BRANCH  25  27
ATOM     26  C   UNL     1       7.901   5.393  12.961  0.00  0.00    +0.000 C 
ATOM     27  C   UNL     1       7.215   4.919  14.015  0.00  0.00    +0.000 C 
ENDBRANCH  25  27
ENDBRANCH   1  25
TORSDOF 5
ENDMDL
MODEL 4
REMARK VINA RESULT:      -6.6      6.946     11.829
REMARK  Name = 
REMARK  5 active torsions:
REMARK  status: ('A' for Active; 'I' for Inactive)
REMARK    1  A    between atoms: C_2  and  C_3
REMARK    2  A    between atoms: C_3  and  N_4
REMARK    3  A    between atoms: C_12  and  O_13
REMARK    4  A    between atoms: C_17  and  O_18
REMARK    5  A    between atoms: C_21  and  O_22
REMARK                            x       y       z     vdW  Elec       q    Type
REMARK                         _______ _______ _______ _____ _____    ______ ____
ROOT
ATOM      1  N   UNL     1       9.555  11.657  18.587  0.00  0.00    +0.000 NA
ATOM      2  C   UNL     1       8.300  12.159  17.804  0.00  0.00    +0.000 C 
ATOM      3  C   UNL     1       8.133  13.618  18.102  0.00  0.00    +0.000 C 
ATOM      4  C   UNL     1       9.880  14.192  18.808  0.00  0.00    +0.000 C 
ATOM      5  C   UNL     1      10.606  15.540  18.836  0.00  0.00    +0.000 A 
ATOM      6  C   UNL     1      11.697  15.642  19.529  0.00  0.00    +0.000 A 
ATOM      7  C   UNL     1      12.329  16.904  19.650  0.00  0.00    +0.000 A 
ATOM      8  C   UNL     1      11.913  17.911  18.725  0.00  0.00    +0.000 A 
ATOM      9  C   UNL     1      10.896  17.597  17.798  0.00  0.00    +0.000 A 
ATOM     10  C   UNL     1      10.202  16.405  18.011  0.00  0.00    +0.000 A 
ATOM     11  O   UNL     1       9.236  15.802  17.473  0.00  0.00    +0.000 OA
ATOM     12  C   UNL     1       9.267  14.440  17.958  0.00  0.00    +0.000 C 
ATOM     13  C   UNL     1       9.228  13.858  20.151  0.00  0.00    +0.000 C 
ATOM     14  C   UNL     1      10.059  12.501  20.946  0.00  0.00    +0.000 C 
ATOM     15  C   UNL     1      11.333  11.982  20.182  0.00  0.00    +0.000 C 
ATOM     16  C   UNL     1      11.255  13.282  18.698  0.00  0.00    +0.000 C 
ATOM     17  C   UNL     1      11.123  12.229  18.655  0.00  0.00    +0.000 C 
ATOM     18  C   UNL     1      12.149  14.106  19.739  0.00  0.00    +0.000 C 
ENDROOT
BRANCH   9  19
ATOM     19  O   UNL     1      10.704  18.337  16.656  0.00  0.00    +0.000 OA
ATOM     20  H   UNL     1      10.562  17.876  15.811  0.00  0.00    +0.000 HD
ENDBRANCH   9  19
BRANCH  13  21
ATOM     21  O   UNL     1       9.191  14.927  21.078  0.00  0.00    +0.000 OA
ATOM     22  H   UNL     1      10.086  15.124  21.382  0.00  0.00    +0.000 HD
ENDBRANCH  13  21
BRANCH  16  23
ATOM     23  O   UNL     1      12.095  13.601  17.478  0.00  0.00    +0.000 OA
ATOM     24  H   UNL     1      12.665  12.804  17.188  0.00  0.00    +0.000 HD
ENDBRANCH  16  23
BRANCH   1  25
ATOM     25  C   UNL     1       9.226  10.160  18.694  0.00  0.00    +0.000 C 
BRANCH  25  27
ATOM     26  C   UNL     1       7.908   8.219  17.728  0.00  0.00    +0.000 C 
ATOM     27  C   UNL     1       8.120   9.544  17.807  0.00  0.00    +0.000 C 
ENDBRANCH  25  27
ENDBRANCH   1  25
TORSDOF 5
ENDMDL
MODEL 5
REMARK VINA RESULT:      -6.6      2.127      2.757
REMARK  Name = 
REMARK  5 active torsions:
REMARK  status: ('A' for Active; 'I' for Inactive)
REMARK    1  A    between atoms: C_2  and  C_3
REMARK    2  A    between atoms: C_3  and  N_4
REMARK    3  A    between atoms: C_12  and  O_13
REMARK    4  A    between atoms: C_17  and  O_18
REMARK    5  A    between atoms: C_21  and  O_22
REMARK                            x       y       z     vdW  Elec       q    Type
REMARK                         _______ _______ _______ _____ _____    ______ ____
ROOT
ATOM      1  N   UNL     1       6.529   4.658  16.671  0.00  0.00    +0.000 NA
ATOM      2  C   UNL     1       7.340   4.924  17.980  0.00  0.00    +0.000 C 
ATOM      3  C   UNL     1       6.361   5.290  19.053  0.00  0.00    +0.000 C 
ATOM      4  C   UNL     1       4.618   4.663  18.382  0.00  0.00    +0.000 C 
ATOM      5  C   UNL     1       3.324   4.231  19.076  0.00  0.00    +0.000 A 
ATOM      6  C   UNL     1       2.271   4.022  18.349  0.00  0.00    +0.000 A 
ATOM      7  C   UNL     1       1.038   3.719  18.979  0.00  0.00    +0.000 A 
ATOM      8  C   UNL     1       1.109   3.331  20.353  0.00  0.00    +0.000 A 
ATOM      9  C   UNL     1       2.372   3.311  20.984  0.00  0.00    +0.000 A 
ATOM     10  C   UNL     1       3.427   3.906  20.290  0.00  0.00    +0.000 A 
ATOM     11  O   UNL     1       4.646   4.136  20.506  0.00  0.00    +0.000 OA
ATOM     12  C   UNL     1       5.248   4.446  19.228  0.00  0.00    +0.000 C 
ATOM     13  C   UNL     1       4.534   6.091  17.838  0.00  0.00    +0.000 C 
ATOM     14  C   UNL     1       4.508   6.097  16.059  0.00  0.00    +0.000 C 
ATOM     15  C   UNL     1       4.478   4.666  15.405  0.00  0.00    +0.000 C 
ATOM     16  C   UNL     1       4.447   3.644  17.094  0.00  0.00    +0.000 C 
ATOM     17  C   UNL     1       5.214   3.675  16.360  0.00  0.00    +0.000 C 
ATOM     18  C   UNL     1       2.876   3.841  16.862  0.00  0.00    +0.000 C 
ENDROOT
BRANCH   9  19
ATOM     19  O   UNL     1       2.590   2.607  22.144  0.00  0.00    +0.000 OA
ATOM     20  H   UNL     1       3.368   2.820  22.688  0.00  0.00    +0.000 HD
ENDBRANCH   9  19
BRANCH  13  21
ATOM     21  O   UNL     1       3.409   6.831  18.276  0.00  0.00    +0.000 OA
ATOM     22  H   UNL     1       2.706   6.772  17.615  0.00  0.00    +0.000 HD
ENDBRANCH  13  21
BRANCH  16  23
ATOM     23  O   UNL     1       4.369   2.182  17.486  0.00  0.00    +0.000 OA
ATOM     24  H   UNL     1       3.705   2.026  18.248  0.00  0.00    +0.000 HD
ENDBRANCH  16  23
BRANCH   1  25
ATOM     25  C   UNL     1       7.618   4.923  15.620  0.00  0.00    +0.000 C 
BRANCH  25  27
ATOM     26  C   UNL     1       7.954   5.390  13.149  0.00  0.00    +0.000 C 
ATOM     27  C   UNL     1       7.314   4.715  14.119  0.00  0.00    +0.000 C 
ENDBRANCH  25  27
ENDBRANCH   1  25
TORSDOF 5
ENDMDL
MODEL 6
REMARK VINA RESULT:      -6.6      1.960      3.196
REMARK  Name = 
REMARK  5 active torsions:
REMARK  status: ('A' for Active; 'I' for Inactive)
REMARK    1  A    between atoms: C_2  and  C_3
REMARK    2  A    between atoms: C_3  and  N_4
REMARK    3  A    between atoms: C_12  and  O_13
REMARK    4  A    between atoms: C_17  and  O_18
REMARK    5  A    between atoms: C_21  and  O_22
REMARK                            x       y       z     vdW  Elec       q    Type
REMARK                         _______ _______ _______ _____ _____    ______ ____
ROOT
ATOM      1  N   UNL     1       5.347   5.906  16.883  0.00  0.00    +0.000 NA
ATOM      2  C   UNL     1       5.320   4.823  15.757  0.00  0.00    +0.000 C 
ATOM      3  C   UNL     1       4.804   3.553  16.360  0.00  0.00    +0.000 C 
ATOM      4  C   UNL     1       3.915   4.113  18.028  0.00  0.00    +0.000 C 
ATOM      5  C   UNL     1       2.779   3.511  18.860  0.00  0.00    +0.000 A 
ATOM      6  C   UNL     1       2.518   4.032  20.018  0.00  0.00    +0.000 A 
ATOM      7  C   UNL     1       1.539   3.429  20.848  0.00  0.00    +0.000 A 
ATOM      8  C   UNL     1       0.667   2.488  20.216  0.00  0.00    +0.000 A 
ATOM      9  C   UNL     1       0.859   2.204  18.847  0.00  0.00    +0.000 A 
ATOM     10  C   UNL     1       2.039   2.678  18.270  0.00  0.00    +0.000 A 
ATOM     11  O   UNL     1       2.595   2.607  17.142  0.00  0.00    +0.000 OA
ATOM     12  C   UNL     1       3.615   3.632  17.111  0.00  0.00    +0.000 C 
ATOM     13  C   UNL     1       5.290   3.822  18.629  0.00  0.00    +0.000 C 
ATOM     14  C   UNL     1       6.035   5.306  19.270  0.00  0.00    +0.000 C 
ATOM     15  C   UNL     1       5.117   6.580  19.185  0.00  0.00    +0.000 C 
ATOM     16  C   UNL     1       3.551   5.683  18.388  0.00  0.00    +0.000 C 
ATOM     17  C   UNL     1       4.173   6.425  17.952  0.00  0.00    +0.000 C 
ATOM     18  C   UNL     1       3.221   5.483  19.941  0.00  0.00    +0.000 C 
ENDROOT
BRANCH   9  19
ATOM     19  O   UNL     1      -0.129   1.634  18.081  0.00  0.00    +0.000 OA
ATOM     20  H   UNL     1      -1.058   1.864  18.258  0.00  0.00    +0.000 HD
ENDBRANCH   9  19
BRANCH  13  21
ATOM     21  O   UNL     1       5.295   2.866  19.674  0.00  0.00    +0.000 OA
ATOM     22  H   UNL     1       5.147   1.985  19.308  0.00  0.00    +0.000 HD
ENDBRANCH  13  21
BRANCH  16  23
ATOM     23  O   UNL     1       2.149   6.088  17.977  0.00  0.00    +0.000 OA
ATOM     24  H   UNL     1       2.156   6.744  17.193  0.00  0.00    +0.000 HD
ENDBRANCH  16  23
BRANCH   1  25
ATOM     25  C   UNL     1       6.417   6.855  16.321  0.00  0.00    +0.000 C 
BRANCH  25  27
ATOM     26  C   UNL     1       7.854   8.458  17.662  0.00  0.00    +0.000 C 
ATOM     27  C   UNL     1       7.653   7.223  17.173  0.00  0.00    +0.000 C 
ENDBRANCH  25  27
ENDBRANCH   1  25
TORSDOF 5
ENDMDL
MODEL 7
REMARK VINA RESULT:      -6.4      6.721     11.550
REMARK  Name = 
REMARK  5 active torsions:
REMARK  status: ('A' for Active; 'I' for Inactive)
REMARK    1  A    between atoms: C_2  and  C_3
REMARK    2  A    between atoms: C_3  and  N_4
REMARK    3  A    between atoms: C_12  and  O_13
REMARK    4  A    between atoms: C_17  and  O_18
REMARK    5  A    between atoms: C_21  and  O_22
REMARK                            x       y       z     vdW  Elec       q    Type
REMARK                         _______ _______ _______ _____ _____    ______ ____
ROOT
ATOM      1  N   UNL     1       9.367  11.637  19.275  0.00  0.00    +0.000 NA
ATOM      2  C   UNL     1       8.773  11.998  20.675  0.00  0.00    +0.000 C 
ATOM      3  C   UNL     1       9.294  13.351  21.053  0.00  0.00    +0.000 C 
ATOM      4  C   UNL     1       9.928  14.138  19.362  0.00  0.00    +0.000 C 
ATOM      5  C   UNL     1      10.092  15.581  18.877  0.00  0.00    +0.000 A 
ATOM      6  C   UNL     1      10.700  15.791  17.751  0.00  0.00    +0.000 A 
ATOM      7  C   UNL     1      10.951  17.121  17.332  0.00  0.00    +0.000 A 
ATOM      8  C   UNL     1      10.220  18.146  18.011  0.00  0.00    +0.000 A 
ATOM      9  C   UNL     1       9.345  17.773  19.053  0.00  0.00    +0.000 A 
ATOM     10  C   UNL     1       9.440  16.457  19.509  0.00  0.00    +0.000 A 
ATOM     11  O   UNL     1       8.901  15.763  20.411  0.00  0.00    +0.000 OA
ATOM     12  C   UNL     1       9.178  14.378  20.098  0.00  0.00    +0.000 C 
ATOM     13  C   UNL     1      11.257  13.520  19.800  0.00  0.00    +0.000 C 
ATOM     14  C   UNL     1      11.774  12.247  18.669  0.00  0.00    +0.000 C 
ATOM     15  C   UNL     1      10.838  12.073  17.417  0.00  0.00    +0.000 C 
ATOM     16  C   UNL     1       9.572  13.518  17.874  0.00  0.00    +0.000 C 
ATOM     17  C   UNL     1       9.386  12.473  17.829  0.00  0.00    +0.000 C 
ATOM     18  C   UNL     1      10.644  14.349  17.025  0.00  0.00    +0.000 C 
ENDROOT
BRANCH   9  19
ATOM     19  O   UNL     1       8.344  18.607  19.491  0.00  0.00    +0.000 OA
ATOM     20  H   UNL     1       8.403  19.560  19.298  0.00  0.00    +0.000 HD
ENDBRANCH   9  19
BRANCH  13  21
ATOM     21  O   UNL     1      12.331  14.436  19.917  0.00  0.00    +0.000 OA
ATOM     22  H   UNL     1      12.391  14.750  20.829  0.00  0.00    +0.000 HD
ENDBRANCH  13  21
BRANCH  16  23
ATOM     23  O   UNL     1       8.346  14.140  17.237  0.00  0.00    +0.000 OA
ATOM     24  H   UNL     1       7.942  13.536  16.517  0.00  0.00    +0.000 HD
ENDBRANCH  16  23
BRANCH   1  25
ATOM     25  C   UNL     1       9.281  10.104  19.332  0.00  0.00    +0.000 C 
BRANCH  25  27
ATOM     26  C   UNL     1       8.250   8.015  18.330  0.00  0.00    +0.000 C 
ATOM     27  C   UNL     1       8.512   9.329  18.239  0.00  0.00    +0.000 C 
ENDBRANCH  25  27
ENDBRANCH   1  25
TORSDOF 5
ENDMDL
MODEL 8
REMARK VINA RESULT:      -6.4      1.422      3.066
REMARK  Name = 
REMARK  5 active torsions:
REMARK  status: ('A' for Active; 'I' for Inactive)
REMARK    1  A    between atoms: C_2  and  C_3
REMARK    2  A    between atoms: C_3  and  N_4
REMARK    3  A    between atoms: C_12  and  O_13
REMARK    4  A    between atoms: C_17  and  O_18
REMARK    5  A    between atoms: C_21  and  O_22
REMARK                            x       y       z     vdW  Elec       q    Type
REMARK                         _______ _______ _______ _____ _____    ______ ____
ROOT
ATOM      1  N   UNL     1       6.831   6.776  17.841  0.00  0.00    +0.000 NA
ATOM      2  C   UNL     1       5.923   7.490  16.788  0.00  0.00    +0.000 C 
ATOM      3  C   UNL     1       4.996   6.461  16.217  0.00  0.00    +0.000 C 
ATOM      4  C   UNL     1       5.040   4.971  17.506  0.00  0.00    +0.000 C 
ATOM      5  C   UNL     1       4.039   3.871  17.868  0.00  0.00    +0.000 A 
ATOM      6  C   UNL     1       4.424   2.918  18.657  0.00  0.00    +0.000 A 
ATOM      7  C   UNL     1       3.547   1.837  18.924  0.00  0.00    +0.000 A 
ATOM      8  C   UNL     1       2.174   2.038  18.579  0.00  0.00    +0.000 A 
ATOM      9  C   UNL     1       1.801   3.258  17.975  0.00  0.00    +0.000 A 
ATOM     10  C   UNL     1       2.840   4.081  17.537  0.00  0.00    +0.000 A 
ATOM     11  O   UNL     1       2.938   5.182  16.932  0.00  0.00    +0.000 OA
ATOM     12  C   UNL     1       4.293   5.649  17.127  0.00  0.00    +0.000 C 
ATOM     13  C   UNL     1       6.150   4.463  16.584  0.00  0.00    +0.000 C 
ATOM     14  C   UNL     1       7.713   4.413  17.432  0.00  0.00    +0.000 C 
ATOM     15  C   UNL     1       7.638   4.798  18.955  0.00  0.00    +0.000 C 
ATOM     16  C   UNL     1       5.687   5.091  19.021  0.00  0.00    +0.000 C 
ATOM     17  C   UNL     1       6.462   5.806  19.150  0.00  0.00    +0.000 C 
ATOM     18  C   UNL     1       5.741   3.529  19.363  0.00  0.00    +0.000 C 
ENDROOT
BRANCH   9  19
ATOM     19  O   UNL     1       0.497   3.689  17.961  0.00  0.00    +0.000 OA
ATOM     20  H   UNL     1       0.143   4.104  17.154  0.00  0.00    +0.000 HD
ENDBRANCH   9  19
BRANCH  13  21
ATOM     21  O   UNL     1       5.929   3.176  16.037  0.00  0.00    +0.000 OA
ATOM     22  H   UNL     1       5.079   2.835  16.344  0.00  0.00    +0.000 HD
ENDBRANCH  13  21
BRANCH  16  23
ATOM     23  O   UNL     1       4.670   5.453  20.085  0.00  0.00    +0.000 OA
ATOM     24  H   UNL     1       4.187   6.329  19.870  0.00  0.00    +0.000 HD
ENDBRANCH  16  23
BRANCH   1  25
ATOM     25  C   UNL     1       8.040   7.725  17.842  0.00  0.00    +0.000 C 
BRANCH  25  27
ATOM     26  C   UNL     1       8.775  10.114  18.275  0.00  0.00    +0.000 C 
ATOM     27  C   UNL     1       7.825   9.255  17.868  0.00  0.00    +0.000 C 
ENDBRANCH  25  27
ENDBRANCH   1  25
TORSDOF 5
ENDMDL
MODEL 9
REMARK VINA RESULT:      -6.2      2.205      5.616
REMARK  Name = 
REMARK  5 active torsions:
REMARK  status: ('A' for Active; 'I' for Inactive)
REMARK    1  A    between atoms: C_2  and  C_3
REMARK    2  A    between atoms: C_3  and  N_4
REMARK    3  A    between atoms: C_12  and  O_13
REMARK    4  A    between atoms: C_17  and  O_18
REMARK    5  A    between atoms: C_21  and  O_22
REMARK                            x       y       z     vdW  Elec       q    Type
REMARK                         _______ _______ _______ _____ _____    ______ ____
ROOT
ATOM      1  N   UNL     1       2.504   3.043  18.962  0.00  0.00    +0.000 NA
ATOM      2  C   UNL     1       2.143   2.565  17.519  0.00  0.00    +0.000 C 
ATOM      3  C   UNL     1       2.664   3.589  16.557  0.00  0.00    +0.000 C 
ATOM      4  C   UNL     1       3.990   4.620  17.589  0.00  0.00    +0.000 C 
ATOM      5  C   UNL     1       5.231   5.423  17.190  0.00  0.00    +0.000 A 
ATOM      6  C   UNL     1       5.822   6.140  18.094  0.00  0.00    +0.000 A 
ATOM      7  C   UNL     1       6.910   6.969  17.724  0.00  0.00    +0.000 A 
ATOM      8  C   UNL     1       7.501   6.705  16.448  0.00  0.00    +0.000 A 
ATOM      9  C   UNL     1       6.948   5.683  15.647  0.00  0.00    +0.000 A 
ATOM     10  C   UNL     1       5.715   5.168  16.053  0.00  0.00    +0.000 A 
ATOM     11  O   UNL     1       4.892   4.321  15.616  0.00  0.00    +0.000 OA
ATOM     12  C   UNL     1       4.004   3.995  16.710  0.00  0.00    +0.000 C 
ATOM     13  C   UNL     1       2.784   5.518  17.870  0.00  0.00    +0.000 C 
ATOM     14  C   UNL     1       2.373   5.514  19.601  0.00  0.00    +0.000 C 
ATOM     15  C   UNL     1       3.363   4.687  20.501  0.00  0.00    +0.000 C 
ATOM     16  C   UNL     1       4.586   4.138  19.052  0.00  0.00    +0.000 C 
ATOM     17  C   UNL     1       3.952   3.524  19.642  0.00  0.00    +0.000 C 
ATOM     18  C   UNL     1       5.269   5.520  19.479  0.00  0.00    +0.000 C 
ENDROOT
BRANCH   9  19
ATOM     19  O   UNL     1       7.653   5.111  14.616  0.00  0.00    +0.000 OA
ATOM     20  H   UNL     1       7.361   4.252  14.262  0.00  0.00    +0.000 HD
ENDBRANCH   9  19
BRANCH  13  21
ATOM     21  O   UNL     1       2.944   6.870  17.480  0.00  0.00    +0.000 OA
ATOM     22  H   UNL     1       2.690   6.972  16.554  0.00  0.00    +0.000 HD
ENDBRANCH  13  21
BRANCH  16  23
ATOM     23  O   UNL     1       5.875   3.348  18.949  0.00  0.00    +0.000 OA
ATOM     24  H   UNL     1       5.821   2.621  18.231  0.00  0.00    +0.000 HD
ENDBRANCH  16  23
BRANCH   1  25
ATOM     25  C   UNL     1       1.427   2.301  19.769  0.00  0.00    +0.000 C 
BRANCH  25  27
ATOM     26  C   UNL     1       1.508   2.350  22.304  0.00  0.00    +0.000 C 
ATOM     27  C   UNL     1       0.998   2.829  21.157  0.00  0.00    +0.000 C 
ENDBRANCH  25  27
ENDBRANCH   1  25
TORSDOF 5
ENDMDL
