MODEL 1
REMARK VINA RESULT:      -5.8      0.000      0.000
REMARK  Name = 
REMARK  5 active torsions:
REMARK  status: ('A' for Active; 'I' for Inactive)
REMARK    1  A    between atoms: O_1  and  C_2
REMARK    2  A    between atoms: C_2  and  C_3
REMARK    3  A    between atoms: C_6  and  O_7
REMARK    4  A    between atoms: O_7  and  C_8
REMARK    5  A    between atoms: C_8  and  C_9
REMARK                            x       y       z     vdW  Elec       q    Type
REMARK                         _______ _______ _______ _____ _____    ______ ____
ROOT
ATOM      1  C   UNL     1       6.010   4.676  17.921  0.00  0.00    +0.000 A 
ATOM      2  C   UNL     1       5.588   5.186  19.153  0.00  0.00    +0.000 A 
ATOM      3  C   UNL     1       4.226   5.230  19.470  0.00  0.00    +0.000 A 
ATOM      4  C   UNL     1       3.267   4.786  18.558  0.00  0.00    +0.000 A 
ATOM      5  C   UNL     1       3.680   4.269  17.331  0.00  0.00    +0.000 A 
ATOM      6  C   UNL     1       5.042   4.216  17.015  0.00  0.00    +0.000 A 
ENDROOT
BRANCH   1   7
ATOM      7  C   UNL     1       7.469   4.622  17.566  0.00  0.00    +0.000 C 
BRANCH   7   8
ATOM      8  O   UNL     1       7.613   4.652  16.153  0.00  0.00    +0.000 OA
ATOM      9  H   UNL     1       8.463   5.083  15.968  0.00  0.00    +0.000 HD
ENDBRANCH   7   8
ENDBRANCH   1   7
BRANCH   4  10
ATOM     10  O   UNL     1       1.975   4.861  18.995  0.00  0.00    +0.000 OA
BRANCH  10  11
ATOM     11  C   UNL     1       1.743   4.474  20.356  0.00  0.00    +0.000 C 
BRANCH  11  12
ATOM     12  C   UNL     1       1.332   3.008  20.453  0.00  0.00    +0.000 C 
ATOM     13  F   UNL     1       2.340   2.151  20.183  0.00  0.00    +0.000 F 
ATOM     14  F   UNL     1       0.872   2.714  21.693  0.00  0.00    +0.000 F 
ATOM     15  F   UNL     1       0.327   2.735  19.584  0.00  0.00    +0.000 F 
ENDBRANCH  11  12
ENDBRANCH  10  11
ENDBRANCH   4  10
TORSDOF 5
ENDMDL
MODEL 2
REMARK VINA RESULT:      -5.8      1.849      2.107
REMARK  Name = 
REMARK  5 active torsions:
REMARK  status: ('A' for Active; 'I' for Inactive)
REMARK    1  A    between atoms: O_1  and  C_2
REMARK    2  A    between atoms: C_2  and  C_3
REMARK    3  A    between atoms: C_6  and  O_7
REMARK    4  A    between atoms: O_7  and  C_8
REMARK    5  A    between atoms: C_8  and  C_9
REMARK                            x       y       z     vdW  Elec       q    Type
REMARK                         _______ _______ _______ _____ _____    ______ ____
ROOT
ATOM      1  C   UNL     1       4.507   5.234  16.899  0.00  0.00    +0.000 A 
ATOM      2  C   UNL     1       3.529   6.003  17.539  0.00  0.00    +0.000 A 
ATOM      3  C   UNL     1       2.393   5.393  18.080  0.00  0.00    +0.000 A 
ATOM      4  C   UNL     1       2.205   4.014  17.973  0.00  0.00    +0.000 A 
ATOM      5  C   UNL     1       3.178   3.239  17.343  0.00  0.00    +0.000 A 
ATOM      6  C   UNL     1       4.320   3.846  16.809  0.00  0.00    +0.000 A 
ENDROOT
BRANCH   1   7
ATOM      7  C   UNL     1       5.733   5.876  16.313  0.00  0.00    +0.000 C 
BRANCH   7   8
ATOM      8  O   UNL     1       5.343   6.883  15.390  0.00  0.00    +0.000 OA
ATOM      9  H   UNL     1       4.860   6.436  14.676  0.00  0.00    +0.000 HD
ENDBRANCH   7   8
ENDBRANCH   1   7
BRANCH   4  10
ATOM     10  O   UNL     1       1.068   3.538  18.561  0.00  0.00    +0.000 OA
BRANCH  10  11
ATOM     11  C   UNL     1       1.250   2.568  19.601  0.00  0.00    +0.000 C 
BRANCH  11  12
ATOM     12  C   UNL     1       1.510   3.239  20.946  0.00  0.00    +0.000 C 
ATOM     13  F   UNL     1       1.047   4.506  21.008  0.00  0.00    +0.000 F 
ATOM     14  F   UNL     1       0.930   2.545  21.954  0.00  0.00    +0.000 F 
ATOM     15  F   UNL     1       2.840   3.283  21.209  0.00  0.00    +0.000 F 
ENDBRANCH  11  12
ENDBRANCH  10  11
ENDBRANCH   4  10
TORSDOF 5
ENDMDL
MODEL 3
REMARK VINA RESULT:      -5.8      1.608      1.725
REMARK  Name = 
REMARK  5 active torsions:
REMARK  status: ('A' for Active; 'I' for Inactive)
REMARK    1  A    between atoms: O_1  and  C_2
REMARK    2  A    between atoms: C_2  and  C_3
REMARK    3  A    between atoms: C_6  and  O_7
REMARK    4  A    between atoms: O_7  and  C_8
REMARK    5  A    between atoms: C_8  and  C_9
REMARK                            x       y       z     vdW  Elec       q    Type
REMARK                         _______ _______ _______ _____ _____    ______ ____
ROOT
ATOM      1  C   UNL     1       6.347   5.114  18.500  0.00  0.00    +0.000 A 
ATOM      2  C   UNL     1       5.244   5.201  19.358  0.00  0.00    +0.000 A 
ATOM      3  C   UNL     1       3.998   4.707  18.958  0.00  0.00    +0.000 A 
ATOM      4  C   UNL     1       3.829   4.141  17.693  0.00  0.00    +0.000 A 
ATOM      5  C   UNL     1       4.924   4.045  16.835  0.00  0.00    +0.000 A 
ATOM      6  C   UNL     1       6.173   4.529  17.237  0.00  0.00    +0.000 A 
ENDROOT
BRANCH   1   7
ATOM      7  C   UNL     1       7.692   5.641  18.917  0.00  0.00    +0.000 C 
BRANCH   7   8
ATOM      8  O   UNL     1       7.839   5.501  20.323  0.00  0.00    +0.000 OA
ATOM      9  H   UNL     1       7.127   6.021  20.731  0.00  0.00    +0.000 HD
ENDBRANCH   7   8
ENDBRANCH   1   7
BRANCH   4  10
ATOM     10  O   UNL     1       2.572   3.676  17.431  0.00  0.00    +0.000 OA
BRANCH  10  11
ATOM     11  C   UNL     1       1.571   3.966  18.417  0.00  0.00    +0.000 C 
BRANCH  11  12
ATOM     12  C   UNL     1       1.140   2.703  19.157  0.00  0.00    +0.000 C 
ATOM     13  F   UNL     1       2.141   1.809  19.314  0.00  0.00    +0.000 F 
ATOM     14  F   UNL     1       0.666   3.001  20.390  0.00  0.00    +0.000 F 
ATOM     15  F   UNL     1       0.141   2.075  18.489  0.00  0.00    +0.000 F 
ENDBRANCH  11  12
ENDBRANCH  10  11
ENDBRANCH   4  10
TORSDOF 5
ENDMDL
MODEL 4
REMARK VINA RESULT:      -5.8      1.715      2.282
REMARK  Name = 
REMARK  5 active torsions:
REMARK  status: ('A' for Active; 'I' for Inactive)
REMARK    1  A    between atoms: O_1  and  C_2
REMARK    2  A    between atoms: C_2  and  C_3
REMARK    3  A    between atoms: C_6  and  O_7
REMARK    4  A    between atoms: O_7  and  C_8
REMARK    5  A    between atoms: C_8  and  C_9
REMARK                            x       y       z     vdW  Elec       q    Type
REMARK                         _______ _______ _______ _____ _____    ______ ____
ROOT
ATOM      1  C   UNL     1       4.471   5.338  16.931  0.00  0.00    +0.000 A 
ATOM      2  C   UNL     1       4.073   4.000  16.841  0.00  0.00    +0.000 A 
ATOM      3  C   UNL     1       2.923   3.558  17.504  0.00  0.00    +0.000 A 
ATOM      4  C   UNL     1       2.169   4.437  18.283  0.00  0.00    +0.000 A 
ATOM      5  C   UNL     1       2.554   5.774  18.372  0.00  0.00    +0.000 A 
ATOM      6  C   UNL     1       3.698   6.220  17.702  0.00  0.00    +0.000 A 
ENDROOT
BRANCH   1   7
ATOM      7  C   UNL     1       5.704   5.826  16.224  0.00  0.00    +0.000 C 
BRANCH   7   8
ATOM      8  O   UNL     1       5.337   6.787  15.244  0.00  0.00    +0.000 OA
ATOM      9  H   UNL     1       4.406   6.621  15.025  0.00  0.00    +0.000 HD
ENDBRANCH   7   8
ENDBRANCH   1   7
BRANCH   4  10
ATOM     10  O   UNL     1       1.058   3.890  18.860  0.00  0.00    +0.000 OA
BRANCH  10  11
ATOM     11  C   UNL     1       0.947   4.034  20.283  0.00  0.00    +0.000 C 
BRANCH  11  12
ATOM     12  C   UNL     1       1.620   2.874  21.011  0.00  0.00    +0.000 C 
ATOM     13  F   UNL     1       0.989   2.524  22.153  0.00  0.00    +0.000 F 
ATOM     14  F   UNL     1       1.675   1.774  20.224  0.00  0.00    +0.000 F 
ATOM     15  F   UNL     1       2.897   3.192  21.338  0.00  0.00    +0.000 F 
ENDBRANCH  11  12
ENDBRANCH  10  11
ENDBRANCH   4  10
TORSDOF 5
ENDMDL
MODEL 5
REMARK VINA RESULT:      -5.8      1.144      1.838
REMARK  Name = 
REMARK  5 active torsions:
REMARK  status: ('A' for Active; 'I' for Inactive)
REMARK    1  A    between atoms: O_1  and  C_2
REMARK    2  A    between atoms: C_2  and  C_3
REMARK    3  A    between atoms: C_6  and  O_7
REMARK    4  A    between atoms: O_7  and  C_8
REMARK    5  A    between atoms: C_8  and  C_9
REMARK                            x       y       z     vdW  Elec       q    Type
REMARK                         _______ _______ _______ _____ _____    ______ ____
ROOT
ATOM      1  C   UNL     1       5.557   5.150  16.643  0.00  0.00    +0.000 A 
ATOM      2  C   UNL     1       4.902   3.916  16.581  0.00  0.00    +0.000 A 
ATOM      3  C   UNL     1       3.620   3.768  17.121  0.00  0.00    +0.000 A 
ATOM      4  C   UNL     1       2.985   4.840  17.750  0.00  0.00    +0.000 A 
ATOM      5  C   UNL     1       3.628   6.076  17.811  0.00  0.00    +0.000 A 
ATOM      6  C   UNL     1       4.906   6.228  17.262  0.00  0.00    +0.000 A 
ENDROOT
BRANCH   1   7
ATOM      7  C   UNL     1       6.934   5.323  16.066  0.00  0.00    +0.000 C 
BRANCH   7   8
ATOM      8  O   UNL     1       7.838   4.451  16.731  0.00  0.00    +0.000 OA
ATOM      9  H   UNL     1       7.820   4.694  17.671  0.00  0.00    +0.000 HD
ENDBRANCH   7   8
ENDBRANCH   1   7
BRANCH   4  10
ATOM     10  O   UNL     1       1.729   4.575  18.217  0.00  0.00    +0.000 OA
BRANCH  10  11
ATOM     11  C   UNL     1       1.616   4.316  19.623  0.00  0.00    +0.000 C 
BRANCH  11  12
ATOM     12  C   UNL     1       1.217   2.867  19.890  0.00  0.00    +0.000 C 
ATOM     13  F   UNL     1       0.205   2.440  19.105  0.00  0.00    +0.000 F 
ATOM     14  F   UNL     1       2.264   2.031  19.691  0.00  0.00    +0.000 F 
ATOM     15  F   UNL     1       0.823   2.710  21.177  0.00  0.00    +0.000 F 
ENDBRANCH  11  12
ENDBRANCH  10  11
ENDBRANCH   4  10
TORSDOF 5
ENDMDL
MODEL 6
REMARK VINA RESULT:      -5.7      1.139      1.139
REMARK  Name = 
REMARK  5 active torsions:
REMARK  status: ('A' for Active; 'I' for Inactive)
REMARK    1  A    between atoms: O_1  and  C_2
REMARK    2  A    between atoms: C_2  and  C_3
REMARK    3  A    between atoms: C_6  and  O_7
REMARK    4  A    between atoms: O_7  and  C_8
REMARK    5  A    between atoms: C_8  and  C_9
REMARK                            x       y       z     vdW  Elec       q    Type
REMARK                         _______ _______ _______ _____ _____    ______ ____
ROOT
ATOM      1  C   UNL     1       5.478   5.076  16.546  0.00  0.00    +0.000 A 
ATOM      2  C   UNL     1       4.837   6.160  17.156  0.00  0.00    +0.000 A 
ATOM      3  C   UNL     1       3.592   5.990  17.770  0.00  0.00    +0.000 A 
ATOM      4  C   UNL     1       2.959   4.746  17.765  0.00  0.00    +0.000 A 
ATOM      5  C   UNL     1       3.594   3.659  17.166  0.00  0.00    +0.000 A 
ATOM      6  C   UNL     1       4.844   3.824  16.560  0.00  0.00    +0.000 A 
ENDROOT
BRANCH   1   7
ATOM      7  C   UNL     1       6.816   5.243  15.883  0.00  0.00    +0.000 C 
BRANCH   7   8
ATOM      8  O   UNL     1       7.784   4.461  16.568  0.00  0.00    +0.000 OA
ATOM      9  H   UNL     1       7.996   3.710  15.990  0.00  0.00    +0.000 HD
ENDBRANCH   7   8
ENDBRANCH   1   7
BRANCH   4  10
ATOM     10  O   UNL     1       1.759   4.705  18.416  0.00  0.00    +0.000 OA
BRANCH  10  11
ATOM     11  C   UNL     1       1.809   4.431  19.822  0.00  0.00    +0.000 C 
BRANCH  11  12
ATOM     12  C   UNL     1       1.355   3.007  20.127  0.00  0.00    +0.000 C 
ATOM     13  F   UNL     1       2.336   2.091  19.975  0.00  0.00    +0.000 F 
ATOM     14  F   UNL     1       0.897   2.905  21.397  0.00  0.00    +0.000 F 
ATOM     15  F   UNL     1       0.336   2.645  19.308  0.00  0.00    +0.000 F 
ENDBRANCH  11  12
ENDBRANCH  10  11
ENDBRANCH   4  10
TORSDOF 5
ENDMDL
MODEL 7
REMARK VINA RESULT:      -5.7      1.363      1.666
REMARK  Name = 
REMARK  5 active torsions:
REMARK  status: ('A' for Active; 'I' for Inactive)
REMARK    1  A    between atoms: O_1  and  C_2
REMARK    2  A    between atoms: C_2  and  C_3
REMARK    3  A    between atoms: C_6  and  O_7
REMARK    4  A    between atoms: O_7  and  C_8
REMARK    5  A    between atoms: C_8  and  C_9
REMARK                            x       y       z     vdW  Elec       q    Type
REMARK                         _______ _______ _______ _____ _____    ______ ____
ROOT
ATOM      1  C   UNL     1       5.207   5.061  16.102  0.00  0.00    +0.000 A 
ATOM      2  C   UNL     1       4.769   6.226  16.740  0.00  0.00    +0.000 A 
ATOM      3  C   UNL     1       3.954   6.146  17.874  0.00  0.00    +0.000 A 
ATOM      4  C   UNL     1       3.548   4.908  18.374  0.00  0.00    +0.000 A 
ATOM      5  C   UNL     1       3.986   3.742  17.748  0.00  0.00    +0.000 A 
ATOM      6  C   UNL     1       4.808   3.819  16.620  0.00  0.00    +0.000 A 
ENDROOT
BRANCH   1   7
ATOM      7  C   UNL     1       6.082   5.131  14.882  0.00  0.00    +0.000 C 
BRANCH   7   8
ATOM      8  O   UNL     1       7.398   5.503  15.267  0.00  0.00    +0.000 OA
ATOM      9  H   UNL     1       8.007   4.954  14.747  0.00  0.00    +0.000 HD
ENDBRANCH   7   8
ENDBRANCH   1   7
BRANCH   4  10
ATOM     10  O   UNL     1       2.773   4.964  19.498  0.00  0.00    +0.000 OA
BRANCH  10  11
ATOM     11  C   UNL     1       2.703   3.764  20.280  0.00  0.00    +0.000 C 
BRANCH  11  12
ATOM     12  C   UNL     1       1.257   3.327  20.497  0.00  0.00    +0.000 C 
ATOM     13  F   UNL     1       1.052   2.740  21.696  0.00  0.00    +0.000 F 
ATOM     14  F   UNL     1       0.414   4.384  20.413  0.00  0.00    +0.000 F 
ATOM     15  F   UNL     1       0.878   2.441  19.544  0.00  0.00    +0.000 F 
ENDBRANCH  11  12
ENDBRANCH  10  11
ENDBRANCH   4  10
TORSDOF 5
ENDMDL
MODEL 8
REMARK VINA RESULT:      -5.7      1.161      1.308
REMARK  Name = 
REMARK  5 active torsions:
REMARK  status: ('A' for Active; 'I' for Inactive)
REMARK    1  A    between atoms: O_1  and  C_2
REMARK    2  A    between atoms: C_2  and  C_3
REMARK    3  A    between atoms: C_6  and  O_7
REMARK    4  A    between atoms: O_7  and  C_8
REMARK    5  A    between atoms: C_8  and  C_9
REMARK                            x       y       z     vdW  Elec       q    Type
REMARK                         _______ _______ _______ _____ _____    ______ ____
ROOT
ATOM      1  C   UNL     1       5.706   4.815  17.409  0.00  0.00    +0.000 A 
ATOM      2  C   UNL     1       5.311   5.574  18.517  0.00  0.00    +0.000 A 
ATOM      3  C   UNL     1       4.074   5.342  19.127  0.00  0.00    +0.000 A 
ATOM      4  C   UNL     1       3.206   4.368  18.630  0.00  0.00    +0.000 A 
ATOM      5  C   UNL     1       3.595   3.603  17.532  0.00  0.00    +0.000 A 
ATOM      6  C   UNL     1       4.835   3.827  16.925  0.00  0.00    +0.000 A 
ENDROOT
BRANCH   1   7
ATOM      7  C   UNL     1       7.032   5.054  16.743  0.00  0.00    +0.000 C 
BRANCH   7   8
ATOM      8  O   UNL     1       7.971   4.092  17.203  0.00  0.00    +0.000 OA
ATOM      9  H   UNL     1       7.469   3.430  17.706  0.00  0.00    +0.000 HD
ENDBRANCH   7   8
ENDBRANCH   1   7
BRANCH   4  10
ATOM     10  O   UNL     1       2.040   4.223  19.327  0.00  0.00    +0.000 OA
BRANCH  10  11
ATOM     11  C   UNL     1       1.818   2.942  19.932  0.00  0.00    +0.000 C 
BRANCH  11  12
ATOM     12  C   UNL     1       2.098   2.980  21.431  0.00  0.00    +0.000 C 
ATOM     13  F   UNL     1       3.197   2.280  21.786  0.00  0.00    +0.000 F 
ATOM     14  F   UNL     1       2.272   4.253  21.860  0.00  0.00    +0.000 F 
ATOM     15  F   UNL     1       1.052   2.468  22.125  0.00  0.00    +0.000 F 
ENDBRANCH  11  12
ENDBRANCH  10  11
ENDBRANCH   4  10
TORSDOF 5
ENDMDL
MODEL 9
REMARK VINA RESULT:      -5.7      1.291      1.945
REMARK  Name = 
REMARK  5 active torsions:
REMARK  status: ('A' for Active; 'I' for Inactive)
REMARK    1  A    between atoms: O_1  and  C_2
REMARK    2  A    between atoms: C_2  and  C_3
REMARK    3  A    between atoms: C_6  and  O_7
REMARK    4  A    between atoms: O_7  and  C_8
REMARK    5  A    between atoms: C_8  and  C_9
REMARK                            x       y       z     vdW  Elec       q    Type
REMARK                         _______ _______ _______ _____ _____    ______ ____
ROOT
ATOM      1  C   UNL     1       5.861   4.444  16.653  0.00  0.00    +0.000 A 
ATOM      2  C   UNL     1       4.528   4.028  16.564  0.00  0.00    +0.000 A 
ATOM      3  C   UNL     1       3.722   3.995  17.707  0.00  0.00    +0.000 A 
ATOM      4  C   UNL     1       4.237   4.355  18.953  0.00  0.00    +0.000 A 
ATOM      5  C   UNL     1       5.562   4.777  19.048  0.00  0.00    +0.000 A 
ATOM      6  C   UNL     1       6.368   4.820  17.906  0.00  0.00    +0.000 A 
ENDROOT
BRANCH   1   7
ATOM      7  C   UNL     1       6.740   4.485  15.434  0.00  0.00    +0.000 C 
BRANCH   7   8
ATOM      8  O   UNL     1       6.327   3.477  14.521  0.00  0.00    +0.000 OA
ATOM      9  H   UNL     1       6.735   3.691  13.666  0.00  0.00    +0.000 HD
ENDBRANCH   7   8
ENDBRANCH   1   7
BRANCH   4  10
ATOM     10  O   UNL     1       3.344   4.302  19.985  0.00  0.00    +0.000 OA
BRANCH  10  11
ATOM     11  C   UNL     1       2.674   3.049  20.181  0.00  0.00    +0.000 C 
BRANCH  11  12
ATOM     12  C   UNL     1       1.218   3.255  20.587  0.00  0.00    +0.000 C 
ATOM     13  F   UNL     1       0.904   2.668  21.762  0.00  0.00    +0.000 F 
ATOM     14  F   UNL     1       0.929   4.574  20.702  0.00  0.00    +0.000 F 
ATOM     15  F   UNL     1       0.383   2.748  19.647  0.00  0.00    +0.000 F 
ENDBRANCH  11  12
ENDBRANCH  10  11
ENDBRANCH   4  10
TORSDOF 5
ENDMDL
