MODEL 1
REMARK VINA RESULT:      -7.9      0.000      0.000
REMARK  Name = 
REMARK  4 active torsions:
REMARK  status: ('A' for Active; 'I' for Inactive)
REMARK    1  A    between atoms: C_1  and  O_2
REMARK    2  A    between atoms: O_2  and  C_3
REMARK    3  A    between atoms: C_3  and  C_4
REMARK    4  A    between atoms: C_8  and  C_9
REMARK                            x       y       z     vdW  Elec       q    Type
REMARK                         _______ _______ _______ _____ _____    ______ ____
ROOT
ATOM      1  C   UNL     1       6.608   5.278  18.321  0.00  0.00    +0.000 C 
ATOM      2  O   UNL     1       7.406   4.375  18.601  0.00  0.00    +0.000 OA
ATOM      3  N   UNL     1       5.291   5.311  18.884  0.00  0.00    +0.000 N 
ATOM      4  N   UNL     1       4.713   6.544  18.766  0.00  0.00    +0.000 NA
ATOM      5  C   UNL     1       3.528   6.446  18.266  0.00  0.00    +0.000 C 
ATOM      6  S   UNL     1       3.333   5.008  17.247  0.00  0.00    +0.000 S 
ATOM      7  C   UNL     1       4.314   4.132  18.722  0.00  0.00    +0.000 C 
ATOM      8  C   UNL     1       5.033   2.791  18.741  0.00  0.00    +0.000 C 
ATOM      9  C   UNL     1       4.277   1.729  18.003  0.00  0.00    +0.000 C 
ATOM     10  O   UNL     1       2.876   1.693  18.202  0.00  0.00    +0.000 OA
ATOM     11  C   UNL     1       2.309   2.646  18.998  0.00  0.00    +0.000 A 
ATOM     12  C   UNL     1       0.926   2.494  19.124  0.00  0.00    +0.000 A 
ATOM     13  C   UNL     1       0.200   3.395  19.879  0.00  0.00    +0.000 A 
ATOM     14  C   UNL     1       0.894   4.358  20.613  0.00  0.00    +0.000 A 
ATOM     15  C   UNL     1       2.296   4.524  20.476  0.00  0.00    +0.000 A 
ATOM     16  C   UNL     1       3.007   3.763  19.539  0.00  0.00    +0.000 A 
ENDROOT
BRANCH   5  17
ATOM     17  C   UNL     1       2.461   7.236  18.917  0.00  0.00    +0.000 A 
ATOM     18  C   UNL     1       2.182   7.194  20.280  0.00  0.00    +0.000 A 
ATOM     19  C   UNL     1       1.452   8.242  20.830  0.00  0.00    +0.000 A 
ATOM     20  F   UNL     1       1.247   8.258  22.160  0.00  0.00    +0.000 F 
ATOM     21  C   UNL     1       0.988   9.330  20.085  0.00  0.00    +0.000 A 
ATOM     22  C   UNL     1       1.258   9.371  18.726  0.00  0.00    +0.000 A 
ATOM     23  C   UNL     1       1.963   8.330  18.154  0.00  0.00    +0.000 A 
ATOM     24  F   UNL     1       2.315   8.528  16.868  0.00  0.00    +0.000 F 
ENDBRANCH   5  17
BRANCH   1  25
ATOM     25  C   UNL     1       6.957   6.410  17.294  0.00  0.00    +0.000 C 
BRANCH  25  27
ATOM     26  C   UNL     1       6.635   5.085  15.345  0.00  0.00    +0.000 C 
ATOM     27  O   UNL     1       7.517   5.948  16.064  0.00  0.00    +0.000 OA
ENDBRANCH  25  27
ENDBRANCH   1  25
TORSDOF 3
ENDMDL
MODEL 2
REMARK VINA RESULT:      -7.0      9.487     12.703
REMARK  Name = 
REMARK  4 active torsions:
REMARK  status: ('A' for Active; 'I' for Inactive)
REMARK    1  A    between atoms: C_1  and  O_2
REMARK    2  A    between atoms: O_2  and  C_3
REMARK    3  A    between atoms: C_3  and  C_4
REMARK    4  A    between atoms: C_8  and  C_9
REMARK                            x       y       z     vdW  Elec       q    Type
REMARK                         _______ _______ _______ _____ _____    ______ ____
ROOT
ATOM      1  C   UNL     1      -1.489  13.028  23.027  0.00  0.00    +0.000 C 
ATOM      2  O   UNL     1      -0.652  13.776  23.548  0.00  0.00    +0.000 OA
ATOM      3  N   UNL     1      -2.601  13.553  22.291  0.00  0.00    +0.000 N 
ATOM      4  N   UNL     1      -3.181  12.607  21.493  0.00  0.00    +0.000 NA
ATOM      5  C   UNL     1      -4.458  12.582  21.670  0.00  0.00    +0.000 C 
ATOM      6  S   UNL     1      -4.936  13.141  23.284  0.00  0.00    +0.000 S 
ATOM      7  C   UNL     1      -3.593  14.546  22.924  0.00  0.00    +0.000 C 
ATOM      8  C   UNL     1      -2.905  15.496  23.895  0.00  0.00    +0.000 C 
ATOM      9  C   UNL     1      -3.842  16.018  24.940  0.00  0.00    +0.000 C 
ATOM     10  O   UNL     1      -5.135  16.394  24.503  0.00  0.00    +0.000 OA
ATOM     11  C   UNL     1      -5.454  16.210  23.189  0.00  0.00    +0.000 A 
ATOM     12  C   UNL     1      -6.751  16.632  22.883  0.00  0.00    +0.000 A 
ATOM     13  C   UNL     1      -7.235  16.490  21.596  0.00  0.00    +0.000 A 
ATOM     14  C   UNL     1      -6.360  16.053  20.601  0.00  0.00    +0.000 A 
ATOM     15  C   UNL     1      -5.049  15.611  20.912  0.00  0.00    +0.000 A 
ATOM     16  C   UNL     1      -4.627  15.537  22.246  0.00  0.00    +0.000 A 
ENDROOT
BRANCH   5  17
ATOM     17  C   UNL     1      -5.300  12.522  20.456  0.00  0.00    +0.000 A 
ATOM     18  C   UNL     1      -4.795  12.499  19.159  0.00  0.00    +0.000 A 
ATOM     19  C   UNL     1      -5.630  12.049  18.141  0.00  0.00    +0.000 A 
ATOM     20  F   UNL     1      -5.129  11.943  16.896  0.00  0.00    +0.000 F 
ATOM     21  C   UNL     1      -6.942  11.619  18.356  0.00  0.00    +0.000 A 
ATOM     22  C   UNL     1      -7.449  11.647  19.646  0.00  0.00    +0.000 A 
ATOM     23  C   UNL     1      -6.646  12.110  20.670  0.00  0.00    +0.000 A 
ATOM     24  F   UNL     1      -7.162  11.954  21.905  0.00  0.00    +0.000 F 
ENDBRANCH   5  17
BRANCH   1  25
ATOM     25  C   UNL     1      -1.428  11.470  23.183  0.00  0.00    +0.000 C 
BRANCH  25  27
ATOM     26  C   UNL     1      -0.103   9.494  23.240  0.00  0.00    +0.000 C 
ATOM     27  O   UNL     1      -0.131  10.902  22.994  0.00  0.00    +0.000 OA
ENDBRANCH  25  27
ENDBRANCH   1  25
TORSDOF 3
ENDMDL
MODEL 3
REMARK VINA RESULT:      -6.7      9.641     12.614
REMARK  Name = 
REMARK  4 active torsions:
REMARK  status: ('A' for Active; 'I' for Inactive)
REMARK    1  A    between atoms: C_1  and  O_2
REMARK    2  A    between atoms: O_2  and  C_3
REMARK    3  A    between atoms: C_3  and  C_4
REMARK    4  A    between atoms: C_8  and  C_9
REMARK                            x       y       z     vdW  Elec       q    Type
REMARK                         _______ _______ _______ _____ _____    ______ ____
ROOT
ATOM      1  C   UNL     1       7.927  13.280  23.524  0.00  0.00    +0.000 C 
ATOM      2  O   UNL     1       7.941  13.858  24.617  0.00  0.00    +0.000 OA
ATOM      3  N   UNL     1       8.858  13.620  22.488  0.00  0.00    +0.000 N 
ATOM      4  N   UNL     1       8.939  12.648  21.531  0.00  0.00    +0.000 NA
ATOM      5  C   UNL     1       8.814  13.157  20.353  0.00  0.00    +0.000 C 
ATOM      6  S   UNL     1       7.875  14.661  20.354  0.00  0.00    +0.000 S 
ATOM      7  C   UNL     1       8.975  15.057  21.947  0.00  0.00    +0.000 C 
ATOM      8  C   UNL     1       8.756  16.095  23.038  0.00  0.00    +0.000 C 
ATOM      9  C   UNL     1       8.259  17.398  22.492  0.00  0.00    +0.000 C 
ATOM     10  O   UNL     1       8.866  17.860  21.300  0.00  0.00    +0.000 OA
ATOM     11  C   UNL     1       9.812  17.073  20.707  0.00  0.00    +0.000 A 
ATOM     12  C   UNL     1      10.342  17.645  19.548  0.00  0.00    +0.000 A 
ATOM     13  C   UNL     1      11.294  16.961  18.817  0.00  0.00    +0.000 A 
ATOM     14  C   UNL     1      11.804  15.771  19.338  0.00  0.00    +0.000 A 
ATOM     15  C   UNL     1      11.258  15.182  20.506  0.00  0.00    +0.000 A 
ATOM     16  C   UNL     1      10.138  15.752  21.127  0.00  0.00    +0.000 A 
ENDROOT
BRANCH   5  17
ATOM     17  C   UNL     1       9.766  12.695  19.321  0.00  0.00    +0.000 A 
ATOM     18  C   UNL     1       9.799  13.182  18.017  0.00  0.00    +0.000 A 
ATOM     19  C   UNL     1      10.956  12.978  17.272  0.00  0.00    +0.000 A 
ATOM     20  F   UNL     1      11.033  13.516  16.041  0.00  0.00    +0.000 F 
ATOM     21  C   UNL     1      12.081  12.312  17.766  0.00  0.00    +0.000 A 
ATOM     22  C   UNL     1      12.049  11.820  19.062  0.00  0.00    +0.000 A 
ATOM     23  C   UNL     1      10.903  11.992  19.813  0.00  0.00    +0.000 A 
ATOM     24  F   UNL     1      11.016  11.625  21.105  0.00  0.00    +0.000 F 
ENDBRANCH   5  17
BRANCH   1  25
ATOM     25  C   UNL     1       6.862  12.184  23.173  0.00  0.00    +0.000 C 
BRANCH  25  27
ATOM     26  C   UNL     1       5.819  11.166  25.053  0.00  0.00    +0.000 C 
ATOM     27  O   UNL     1       5.723  12.162  24.034  0.00  0.00    +0.000 OA
ENDBRANCH  25  27
ENDBRANCH   1  25
TORSDOF 3
ENDMDL
MODEL 4
REMARK VINA RESULT:      -6.7      9.053     12.229
REMARK  Name = 
REMARK  4 active torsions:
REMARK  status: ('A' for Active; 'I' for Inactive)
REMARK    1  A    between atoms: C_1  and  O_2
REMARK    2  A    between atoms: O_2  and  C_3
REMARK    3  A    between atoms: C_3  and  C_4
REMARK    4  A    between atoms: C_8  and  C_9
REMARK                            x       y       z     vdW  Elec       q    Type
REMARK                         _______ _______ _______ _____ _____    ______ ____
ROOT
ATOM      1  C   UNL     1      -0.500  12.755  22.065  0.00  0.00    +0.000 C 
ATOM      2  O   UNL     1       0.527  13.384  22.345  0.00  0.00    +0.000 OA
ATOM      3  N   UNL     1      -1.758  13.420  21.894  0.00  0.00    +0.000 N 
ATOM      4  N   UNL     1      -2.665  12.639  21.233  0.00  0.00    +0.000 NA
ATOM      5  C   UNL     1      -3.786  12.603  21.870  0.00  0.00    +0.000 C 
ATOM      6  S   UNL     1      -3.591  12.874  23.612  0.00  0.00    +0.000 S 
ATOM      7  C   UNL     1      -2.364  14.299  23.003  0.00  0.00    +0.000 C 
ATOM      8  C   UNL     1      -1.294  15.050  23.782  0.00  0.00    +0.000 C 
ATOM      9  C   UNL     1      -1.736  15.392  25.171  0.00  0.00    +0.000 C 
ATOM     10  O   UNL     1      -3.063  15.861  25.318  0.00  0.00    +0.000 OA
ATOM     11  C   UNL     1      -3.857  15.918  24.208  0.00  0.00    +0.000 A 
ATOM     12  C   UNL     1      -5.137  16.408  24.483  0.00  0.00    +0.000 A 
ATOM     13  C   UNL     1      -6.070  16.504  23.468  0.00  0.00    +0.000 A 
ATOM     14  C   UNL     1      -5.659  16.238  22.161  0.00  0.00    +0.000 A 
ATOM     15  C   UNL     1      -4.366  15.727  21.882  0.00  0.00    +0.000 A 
ATOM     16  C   UNL     1      -3.491  15.411  22.929  0.00  0.00    +0.000 A 
ENDROOT
BRANCH   5  17
ATOM     17  C   UNL     1      -5.016  12.773  21.069  0.00  0.00    +0.000 A 
ATOM     18  C   UNL     1      -5.052  12.725  19.678  0.00  0.00    +0.000 A 
ATOM     19  C   UNL     1      -6.280  12.500  19.064  0.00  0.00    +0.000 A 
ATOM     20  F   UNL     1      -6.317  12.367  17.724  0.00  0.00    +0.000 F 
ATOM     21  C   UNL     1      -7.472  12.320  19.770  0.00  0.00    +0.000 A 
ATOM     22  C   UNL     1      -7.440  12.374  21.156  0.00  0.00    +0.000 A 
ATOM     23  C   UNL     1      -6.236  12.617  21.787  0.00  0.00    +0.000 A 
ATOM     24  F   UNL     1      -6.269  12.496  23.128  0.00  0.00    +0.000 F 
ENDBRANCH   5  17
BRANCH   1  25
ATOM     25  C   UNL     1      -0.513  11.192  21.936  0.00  0.00    +0.000 C 
BRANCH  25  27
ATOM     26  C   UNL     1       0.726   9.331  22.750  0.00  0.00    +0.000 C 
ATOM     27  O   UNL     1      -0.032  10.495  23.087  0.00  0.00    +0.000 OA
ENDBRANCH  25  27
ENDBRANCH   1  25
TORSDOF 3
ENDMDL
MODEL 5
REMARK VINA RESULT:      -6.7      9.450     12.156
REMARK  Name = 
REMARK  4 active torsions:
REMARK  status: ('A' for Active; 'I' for Inactive)
REMARK    1  A    between atoms: C_1  and  O_2
REMARK    2  A    between atoms: O_2  and  C_3
REMARK    3  A    between atoms: C_3  and  C_4
REMARK    4  A    between atoms: C_8  and  C_9
REMARK                            x       y       z     vdW  Elec       q    Type
REMARK                         _______ _______ _______ _____ _____    ______ ____
ROOT
ATOM      1  C   UNL     1      -6.976  11.774  20.265  0.00  0.00    +0.000 C 
ATOM      2  O   UNL     1      -7.917  11.475  21.012  0.00  0.00    +0.000 OA
ATOM      3  N   UNL     1      -5.641  11.911  20.767  0.00  0.00    +0.000 N 
ATOM      4  N   UNL     1      -4.710  11.865  19.767  0.00  0.00    +0.000 NA
ATOM      5  C   UNL     1      -3.891  12.856  19.861  0.00  0.00    +0.000 C 
ATOM      6  S   UNL     1      -4.610  14.264  20.666  0.00  0.00    +0.000 S 
ATOM      7  C   UNL     1      -5.303  12.889  21.906  0.00  0.00    +0.000 C 
ATOM      8  C   UNL     1      -6.429  12.988  22.925  0.00  0.00    +0.000 C 
ATOM      9  C   UNL     1      -6.428  14.298  23.651  0.00  0.00    +0.000 C 
ATOM     10  O   UNL     1      -5.168  14.795  24.060  0.00  0.00    +0.000 OA
ATOM     11  C   UNL     1      -4.050  14.086  23.724  0.00  0.00    +0.000 A 
ATOM     12  C   UNL     1      -2.874  14.675  24.195  0.00  0.00    +0.000 A 
ATOM     13  C   UNL     1      -1.653  14.090  23.917  0.00  0.00    +0.000 A 
ATOM     14  C   UNL     1      -1.640  12.845  23.287  0.00  0.00    +0.000 A 
ATOM     15  C   UNL     1      -2.831  12.253  22.795  0.00  0.00    +0.000 A 
ATOM     16  C   UNL     1      -4.046  12.946  22.870  0.00  0.00    +0.000 A 
ENDROOT
BRANCH   5  17
ATOM     17  C   UNL     1      -2.453  12.553  19.699  0.00  0.00    +0.000 A 
ATOM     18  C   UNL     1      -1.964  11.392  19.108  0.00  0.00    +0.000 A 
ATOM     19  C   UNL     1      -0.647  11.393  18.658  0.00  0.00    +0.000 A 
ATOM     20  F   UNL     1      -0.187  10.307  18.009  0.00  0.00    +0.000 F 
ATOM     21  C   UNL     1       0.203  12.497  18.769  0.00  0.00    +0.000 A 
ATOM     22  C   UNL     1      -0.280  13.652  19.365  0.00  0.00    +0.000 A 
ATOM     23  C   UNL     1      -1.577  13.668  19.838  0.00  0.00    +0.000 A 
ATOM     24  F   UNL     1      -2.010  14.874  20.255  0.00  0.00    +0.000 F 
ENDBRANCH   5  17
BRANCH   1  25
ATOM     25  C   UNL     1      -7.185  12.078  18.741  0.00  0.00    +0.000 C 
BRANCH  25  27
ATOM     26  C   UNL     1      -6.947  14.134  17.568  0.00  0.00    +0.000 C 
ATOM     27  O   UNL     1      -7.750  13.360  18.461  0.00  0.00    +0.000 OA
ENDBRANCH  25  27
ENDBRANCH   1  25
TORSDOF 3
ENDMDL
MODEL 6
REMARK VINA RESULT:      -6.6      6.993     10.585
REMARK  Name = 
REMARK  4 active torsions:
REMARK  status: ('A' for Active; 'I' for Inactive)
REMARK    1  A    between atoms: C_1  and  O_2
REMARK    2  A    between atoms: O_2  and  C_3
REMARK    3  A    between atoms: C_3  and  C_4
REMARK    4  A    between atoms: C_8  and  C_9
REMARK                            x       y       z     vdW  Elec       q    Type
REMARK                         _______ _______ _______ _____ _____    ______ ____
ROOT
ATOM      1  C   UNL     1      -2.064  13.265  23.567  0.00  0.00    +0.000 C 
ATOM      2  O   UNL     1      -2.115  14.243  24.322  0.00  0.00    +0.000 OA
ATOM      3  N   UNL     1      -0.958  13.067  22.677  0.00  0.00    +0.000 N 
ATOM      4  N   UNL     1      -0.891  11.781  22.219  0.00  0.00    +0.000 NA
ATOM      5  C   UNL     1      -0.774  11.760  20.935  0.00  0.00    +0.000 C 
ATOM      6  S   UNL     1      -1.469  13.197  20.161  0.00  0.00    +0.000 S 
ATOM      7  C   UNL     1      -0.554  14.132  21.642  0.00  0.00    +0.000 C 
ATOM      8  C   UNL     1      -0.764  15.545  22.168  0.00  0.00    +0.000 C 
ATOM      9  C   UNL     1      -0.980  16.537  21.066  0.00  0.00    +0.000 C 
ATOM     10  O   UNL     1      -0.151  16.409  19.927  0.00  0.00    +0.000 OA
ATOM     11  C   UNL     1       0.739  15.375  19.884  0.00  0.00    +0.000 A 
ATOM     12  C   UNL     1       1.504  15.367  18.715  0.00  0.00    +0.000 A 
ATOM     13  C   UNL     1       2.436  14.367  18.509  0.00  0.00    +0.000 A 
ATOM     14  C   UNL     1       2.685  13.467  19.546  0.00  0.00    +0.000 A 
ATOM     15  C   UNL     1       1.900  13.464  20.727  0.00  0.00    +0.000 A 
ATOM     16  C   UNL     1       0.803  14.328  20.847  0.00  0.00    +0.000 A 
ENDROOT
BRANCH   5  17
ATOM     17  C   UNL     1       0.233  10.836  20.371  0.00  0.00    +0.000 A 
ATOM     18  C   UNL     1       0.733   9.724  21.044  0.00  0.00    +0.000 A 
ATOM     19  C   UNL     1       1.352   8.730  20.293  0.00  0.00    +0.000 A 
ATOM     20  F   UNL     1       1.764   7.612  20.918  0.00  0.00    +0.000 F 
ATOM     21  C   UNL     1       1.494   8.791  18.904  0.00  0.00    +0.000 A 
ATOM     22  C   UNL     1       1.003   9.901  18.232  0.00  0.00    +0.000 A 
ATOM     23  C   UNL     1       0.404  10.911  18.959  0.00  0.00    +0.000 A 
ATOM     24  F   UNL     1      -0.181  11.869  18.215  0.00  0.00    +0.000 F 
ENDBRANCH   5  17
BRANCH   1  25
ATOM     25  C   UNL     1      -3.221  12.210  23.487  0.00  0.00    +0.000 C 
BRANCH  25  27
ATOM     26  C   UNL     1      -5.405  13.083  23.123  0.00  0.00    +0.000 C 
ATOM     27  O   UNL     1      -4.238  12.511  22.529  0.00  0.00    +0.000 OA
ENDBRANCH  25  27
ENDBRANCH   1  25
TORSDOF 3
ENDMDL
MODEL 7
REMARK VINA RESULT:      -6.6      6.728      9.671
REMARK  Name = 
REMARK  4 active torsions:
REMARK  status: ('A' for Active; 'I' for Inactive)
REMARK    1  A    between atoms: C_1  and  O_2
REMARK    2  A    between atoms: O_2  and  C_3
REMARK    3  A    between atoms: C_3  and  C_4
REMARK    4  A    between atoms: C_8  and  C_9
REMARK                            x       y       z     vdW  Elec       q    Type
REMARK                         _______ _______ _______ _____ _____    ______ ____
ROOT
ATOM      1  C   UNL     1       0.838  10.353  19.861  0.00  0.00    +0.000 C 
ATOM      2  O   UNL     1       0.876   9.437  20.691  0.00  0.00    +0.000 OA
ATOM      3  N   UNL     1       0.917  11.727  20.261  0.00  0.00    +0.000 N 
ATOM      4  N   UNL     1       1.237  12.548  19.217  0.00  0.00    +0.000 NA
ATOM      5  C   UNL     1       0.419  13.543  19.153  0.00  0.00    +0.000 C 
ATOM      6  S   UNL     1      -1.171  13.168  19.845  0.00  0.00    +0.000 S 
ATOM      7  C   UNL     1      -0.080  12.333  21.266  0.00  0.00    +0.000 C 
ATOM      8  C   UNL     1      -0.491  11.331  22.335  0.00  0.00    +0.000 C 
ATOM      9  C   UNL     1      -1.838  11.636  22.914  0.00  0.00    +0.000 C 
ATOM     10  O   UNL     1      -2.117  12.996  23.189  0.00  0.00    +0.000 OA
ATOM     11  C   UNL     1      -1.176  13.930  22.863  0.00  0.00    +0.000 A 
ATOM     12  C   UNL     1      -1.566  15.230  23.196  0.00  0.00    +0.000 A 
ATOM     13  C   UNL     1      -0.732  16.294  22.908  0.00  0.00    +0.000 A 
ATOM     14  C   UNL     1       0.545  16.022  22.416  0.00  0.00    +0.000 A 
ATOM     15  C   UNL     1       0.938  14.705  22.064  0.00  0.00    +0.000 A 
ATOM     16  C   UNL     1       0.018  13.651  22.139  0.00  0.00    +0.000 A 
ENDROOT
BRANCH   5  17
ATOM     17  C   UNL     1       1.010  14.881  18.938  0.00  0.00    +0.000 A 
ATOM     18  C   UNL     1       2.317  15.095  18.509  0.00  0.00    +0.000 A 
ATOM     19  C   UNL     1       2.632  16.338  17.969  0.00  0.00    +0.000 A 
ATOM     20  F   UNL     1       3.868  16.531  17.474  0.00  0.00    +0.000 F 
ATOM     21  C   UNL     1       1.705  17.376  17.835  0.00  0.00    +0.000 A 
ATOM     22  C   UNL     1       0.404  17.167  18.268  0.00  0.00    +0.000 A 
ATOM     23  C   UNL     1       0.074  15.949  18.827  0.00  0.00    +0.000 A 
ATOM     24  F   UNL     1      -1.240  15.780  19.073  0.00  0.00    +0.000 F 
ENDBRANCH   5  17
BRANCH   1  25
ATOM     25  C   UNL     1       0.644  10.083  18.329  0.00  0.00    +0.000 C 
BRANCH  25  27
ATOM     26  C   UNL     1       2.309   8.467  17.799  0.00  0.00    +0.000 C 
ATOM     27  O   UNL     1       1.850   9.808  17.614  0.00  0.00    +0.000 OA
ENDBRANCH  25  27
ENDBRANCH   1  25
TORSDOF 3
ENDMDL
MODEL 8
REMARK VINA RESULT:      -6.6      6.972      9.542
REMARK  Name = 
REMARK  4 active torsions:
REMARK  status: ('A' for Active; 'I' for Inactive)
REMARK    1  A    between atoms: C_1  and  O_2
REMARK    2  A    between atoms: O_2  and  C_3
REMARK    3  A    between atoms: C_3  and  C_4
REMARK    4  A    between atoms: C_8  and  C_9
REMARK                            x       y       z     vdW  Elec       q    Type
REMARK                         _______ _______ _______ _____ _____    ______ ____
ROOT
ATOM      1  C   UNL     1       0.598  15.203  19.184  0.00  0.00    +0.000 C 
ATOM      2  O   UNL     1       1.788  15.274  18.851  0.00  0.00    +0.000 OA
ATOM      3  N   UNL     1       0.151  14.242  20.149  0.00  0.00    +0.000 N 
ATOM      4  N   UNL     1      -1.078  14.559  20.656  0.00  0.00    +0.000 NA
ATOM      5  C   UNL     1      -1.870  13.544  20.601  0.00  0.00    +0.000 C 
ATOM      6  S   UNL     1      -1.446  12.417  19.298  0.00  0.00    +0.000 S 
ATOM      7  C   UNL     1       0.390  12.734  19.957  0.00  0.00    +0.000 C 
ATOM      8  C   UNL     1       1.722  12.451  19.277  0.00  0.00    +0.000 C 
ATOM      9  C   UNL     1       1.720  11.145  18.542  0.00  0.00    +0.000 C 
ATOM     10  O   UNL     1       1.104  10.051  19.194  0.00  0.00    +0.000 OA
ATOM     11  C   UNL     1       0.514  10.266  20.407  0.00  0.00    +0.000 A 
ATOM     12  C   UNL     1      -0.046   9.107  20.950  0.00  0.00    +0.000 A 
ATOM     13  C   UNL     1      -0.703   9.164  22.164  0.00  0.00    +0.000 A 
ATOM     14  C   UNL     1      -0.666  10.359  22.885  0.00  0.00    +0.000 A 
ATOM     15  C   UNL     1      -0.111  11.540  22.329  0.00  0.00    +0.000 A 
ATOM     16  C   UNL     1       0.353  11.547  21.007  0.00  0.00    +0.000 A 
ENDROOT
BRANCH   5  17
ATOM     17  C   UNL     1      -2.678  13.259  21.806  0.00  0.00    +0.000 A 
ATOM     18  C   UNL     1      -2.379  13.744  23.076  0.00  0.00    +0.000 A 
ATOM     19  C   UNL     1      -3.393  13.749  24.028  0.00  0.00    +0.000 A 
ATOM     20  F   UNL     1      -3.142  14.292  25.234  0.00  0.00    +0.000 F 
ATOM     21  C   UNL     1      -4.690  13.294  23.774  0.00  0.00    +0.000 A 
ATOM     22  C   UNL     1      -4.987  12.803  22.511  0.00  0.00    +0.000 A 
ATOM     23  C   UNL     1      -3.991  12.768  21.556  0.00  0.00    +0.000 A 
ATOM     24  F   UNL     1      -4.407  12.427  20.321  0.00  0.00    +0.000 F 
ENDBRANCH   5  17
BRANCH   1  25
ATOM     25  C   UNL     1      -0.505  16.110  18.538  0.00  0.00    +0.000 C 
BRANCH  25  27
ATOM     26  C   UNL     1      -0.333  18.090  17.230  0.00  0.00    +0.000 C 
ATOM     27  O   UNL     1      -0.198  17.506  18.527  0.00  0.00    +0.000 OA
ENDBRANCH  25  27
ENDBRANCH   1  25
TORSDOF 3
ENDMDL
MODEL 9
REMARK VINA RESULT:      -6.6      9.776     12.793
REMARK  Name = 
REMARK  4 active torsions:
REMARK  status: ('A' for Active; 'I' for Inactive)
REMARK    1  A    between atoms: C_1  and  O_2
REMARK    2  A    between atoms: O_2  and  C_3
REMARK    3  A    between atoms: C_3  and  C_4
REMARK    4  A    between atoms: C_8  and  C_9
REMARK                            x       y       z     vdW  Elec       q    Type
REMARK                         _______ _______ _______ _____ _____    ______ ____
ROOT
ATOM      1  C   UNL     1       6.999  14.799  22.706  0.00  0.00    +0.000 C 
ATOM      2  O   UNL     1       6.851  15.690  23.552  0.00  0.00    +0.000 OA
ATOM      3  N   UNL     1       8.066  14.849  21.751  0.00  0.00    +0.000 N 
ATOM      4  N   UNL     1       8.293  13.632  21.171  0.00  0.00    +0.000 NA
ATOM      5  C   UNL     1       8.334  13.740  19.886  0.00  0.00    +0.000 C 
ATOM      6  S   UNL     1       7.391  15.116  19.285  0.00  0.00    +0.000 S 
ATOM      7  C   UNL     1       8.246  16.048  20.803  0.00  0.00    +0.000 C 
ATOM      8  C   UNL     1       7.863  17.362  21.469  0.00  0.00    +0.000 C 
ATOM      9  C   UNL     1       7.438  18.401  20.477  0.00  0.00    +0.000 C 
ATOM     10  O   UNL     1       8.206  18.499  19.293  0.00  0.00    +0.000 OA
ATOM     11  C   UNL     1       9.234  17.619  19.111  0.00  0.00    +0.000 A 
ATOM     12  C   UNL     1       9.920  17.828  17.912  0.00  0.00    +0.000 A 
ATOM     13  C   UNL     1      10.974  17.003  17.569  0.00  0.00    +0.000 A 
ATOM     14  C   UNL     1      11.415  16.065  18.504  0.00  0.00    +0.000 A 
ATOM     15  C   UNL     1      10.711  15.841  19.715  0.00  0.00    +0.000 A 
ATOM     16  C   UNL     1       9.509  16.515  19.967  0.00  0.00    +0.000 A 
ENDROOT
BRANCH   5  17
ATOM     17  C   UNL     1       9.429  13.031  19.191  0.00  0.00    +0.000 A 
ATOM     18  C   UNL     1       9.714  13.177  17.836  0.00  0.00    +0.000 A 
ATOM     19  C   UNL     1      10.973  12.789  17.388  0.00  0.00    +0.000 A 
ATOM     20  F   UNL     1      11.291  13.002  16.098  0.00  0.00    +0.000 F 
ATOM     21  C   UNL     1      11.960  12.264  18.227  0.00  0.00    +0.000 A 
ATOM     22  C   UNL     1      11.676  12.111  19.575  0.00  0.00    +0.000 A 
ATOM     23  C   UNL     1      10.426  12.470  20.040  0.00  0.00    +0.000 A 
ATOM     24  F   UNL     1      10.292  12.437  21.380  0.00  0.00    +0.000 F 
ENDBRANCH   5  17
BRANCH   1  25
ATOM     25  C   UNL     1       6.006  13.592  22.582  0.00  0.00    +0.000 C 
BRANCH  25  27
ATOM     26  C   UNL     1       6.510  12.080  24.349  0.00  0.00    +0.000 C 
ATOM     27  O   UNL     1       5.584  13.036  23.828  0.00  0.00    +0.000 OA
ENDBRANCH  25  27
ENDBRANCH   1  25
TORSDOF 3
ENDMDL
