MODEL 1
REMARK VINA RESULT:      -8.3      0.000      0.000
REMARK  Name = 
REMARK  11 active torsions:
REMARK  status: ('A' for Active; 'I' for Inactive)
REMARK    1  A    between atoms: N_1  and  S_2
REMARK    2  A    between atoms: S_2  and  C_5
REMARK    3  A    between atoms: C_8  and  C_9
REMARK    4  A    between atoms: C_9  and  C_10
REMARK    5  A    between atoms: C_10  and  N_11
REMARK    6  A    between atoms: C_12  and  C_14
REMARK    7  A    between atoms: C_14  and  C_15
REMARK    8  A    between atoms: C_15  and  N_16
REMARK    9  A    between atoms: N_16  and  S_17
REMARK   10  A    between atoms: S_17  and  C_20
REMARK   11  A    between atoms: C_25  and  C_26
REMARK                            x       y       z     vdW  Elec       q    Type
REMARK                         _______ _______ _______ _____ _____    ______ ____
ROOT
ATOM      1  N   UNL     1       7.726   6.736  17.013  0.00  0.00    +0.000 N 
ATOM      2  C   UNL     1       6.674   6.203  16.301  0.00  0.00    +0.000 C 
ATOM      3  O   UNL     1       5.665   6.859  16.063  0.00  0.00    +0.000 OA
ATOM      4  H   UNL     1       8.616   6.256  17.052  0.00  0.00    +0.000 HD
ENDROOT
BRANCH   1   5
ATOM      5  C   UNL     1       7.627   8.114  17.461  0.00  0.00    +0.000 C 
BRANCH   5   6
ATOM      6  C   UNL     1       8.535   8.457  18.638  0.00  0.00    +0.000 C 
BRANCH   6  10
ATOM      7  C   UNL     1       9.571  12.627  18.909  0.00  0.00    +0.000 A 
ATOM      8  C   UNL     1       8.862  12.172  17.798  0.00  0.00    +0.000 A 
ATOM      9  C   UNL     1       8.531  10.818  17.705  0.00  0.00    +0.000 A 
ATOM     10  C   UNL     1       8.916   9.917  18.712  0.00  0.00    +0.000 A 
ATOM     11  C   UNL     1       9.633  10.392  19.818  0.00  0.00    +0.000 A 
ATOM     12  C   UNL     1       9.963  11.743  19.918  0.00  0.00    +0.000 A 
BRANCH   7  13
ATOM     13  S   UNL     1       9.913  14.351  19.095  0.00  0.00    +0.000 S 
ATOM     14  O   UNL     1      10.314  14.885  17.815  0.00  0.00    +0.000 OA
ATOM     15  O   UNL     1      10.676  14.558  20.302  0.00  0.00    +0.000 OA
BRANCH  13  16
ATOM     16  N   UNL     1       8.386  14.968  19.427  0.00  0.00    +0.000 NA
ATOM     17  H   UNL     1       8.467  15.714  20.118  0.00  0.00    +0.000 HD
ATOM     18  H   UNL     1       7.753  14.219  19.706  0.00  0.00    +0.000 HD
ENDBRANCH  13  16
ENDBRANCH   7  13
ENDBRANCH   6  10
ENDBRANCH   5   6
ENDBRANCH   1   5
BRANCH   2  19
ATOM     19  C   UNL     1       6.887   4.792  15.794  0.00  0.00    +0.000 C 
BRANCH  19  20
ATOM     20  C   UNL     1       5.996   3.776  16.508  0.00  0.00    +0.000 C 
BRANCH  20  21
ATOM     21  N   UNL     1       5.656   4.194  17.873  0.00  0.00    +0.000 NA
ATOM     22  H   UNL     1       5.704   5.182  18.123  0.00  0.00    +0.000 HD
BRANCH  21  23
ATOM     23  S   UNL     1       4.456   3.381  18.710  0.00  0.00    +0.000 S 
ATOM     24  O   UNL     1       3.733   2.629  17.711  0.00  0.00    +0.000 OA
ATOM     25  O   UNL     1       5.093   2.766  19.855  0.00  0.00    +0.000 OA
BRANCH  23  26
ATOM     26  C   UNL     1       3.327   4.606  19.340  0.00  0.00    +0.000 A 
ATOM     27  C   UNL     1       3.462   5.947  18.963  0.00  0.00    +0.000 A 
ATOM     28  C   UNL     1       2.640   6.931  19.518  0.00  0.00    +0.000 A 
ATOM     29  C   UNL     1       1.667   6.576  20.445  0.00  0.00    +0.000 A 
ATOM     30  C   UNL     1       1.504   5.241  20.802  0.00  0.00    +0.000 A 
ATOM     31  C   UNL     1       2.323   4.228  20.252  0.00  0.00    +0.000 A 
BRANCH  31  32
ATOM     32  C   UNL     1       2.038   2.810  20.698  0.00  0.00    +0.000 C 
ATOM     33  F   UNL     1       1.973   1.859  19.739  0.00  0.00    +0.000 F 
ATOM     34  F   UNL     1       2.966   2.372  21.596  0.00  0.00    +0.000 F 
ATOM     35  F   UNL     1       0.842   2.732  21.354  0.00  0.00    +0.000 F 
ENDBRANCH  31  32
ENDBRANCH  23  26
ENDBRANCH  21  23
ENDBRANCH  20  21
ENDBRANCH  19  20
ENDBRANCH   2  19
TORSDOF 11
ENDMDL
MODEL 2
REMARK VINA RESULT:      -8.1      1.270      1.434
REMARK  Name = 
REMARK  11 active torsions:
REMARK  status: ('A' for Active; 'I' for Inactive)
REMARK    1  A    between atoms: N_1  and  S_2
REMARK    2  A    between atoms: S_2  and  C_5
REMARK    3  A    between atoms: C_8  and  C_9
REMARK    4  A    between atoms: C_9  and  C_10
REMARK    5  A    between atoms: C_10  and  N_11
REMARK    6  A    between atoms: C_12  and  C_14
REMARK    7  A    between atoms: C_14  and  C_15
REMARK    8  A    between atoms: C_15  and  N_16
REMARK    9  A    between atoms: N_16  and  S_17
REMARK   10  A    between atoms: S_17  and  C_20
REMARK   11  A    between atoms: C_25  and  C_26
REMARK                            x       y       z     vdW  Elec       q    Type
REMARK                         _______ _______ _______ _____ _____    ______ ____
ROOT
ATOM      1  N   UNL     1       8.237   7.625  17.843  0.00  0.00    +0.000 N 
ATOM      2  C   UNL     1       7.104   6.915  17.510  0.00  0.00    +0.000 C 
ATOM      3  O   UNL     1       6.027   7.475  17.335  0.00  0.00    +0.000 OA
ATOM      4  H   UNL     1       9.147   7.184  17.812  0.00  0.00    +0.000 HD
ENDROOT
BRANCH   1   5
ATOM      5  C   UNL     1       8.136   9.069  17.960  0.00  0.00    +0.000 C 
BRANCH   5   6
ATOM      6  C   UNL     1       8.941   9.662  19.113  0.00  0.00    +0.000 C 
BRANCH   6  10
ATOM      7  C   UNL     1      10.673  13.519  18.302  0.00  0.00    +0.000 A 
ATOM      8  C   UNL     1       9.482  13.160  17.671  0.00  0.00    +0.000 A 
ATOM      9  C   UNL     1       8.923  11.907  17.927  0.00  0.00    +0.000 A 
ATOM     10  C   UNL     1       9.554  11.007  18.802  0.00  0.00    +0.000 A 
ATOM     11  C   UNL     1      10.753  11.383  19.423  0.00  0.00    +0.000 A 
ATOM     12  C   UNL     1      11.315  12.634  19.174  0.00  0.00    +0.000 A 
BRANCH   7  13
ATOM     13  S   UNL     1      11.346  15.137  18.069  0.00  0.00    +0.000 S 
ATOM     14  O   UNL     1      10.267  16.096  18.099  0.00  0.00    +0.000 OA
ATOM     15  O   UNL     1      12.328  15.097  17.013  0.00  0.00    +0.000 OA
BRANCH  13  16
ATOM     16  N   UNL     1      12.227  15.347  19.485  0.00  0.00    +0.000 NA
ATOM     17  H   UNL     1      12.004  14.593  20.135  0.00  0.00    +0.000 HD
ATOM     18  H   UNL     1      12.067  16.277  19.869  0.00  0.00    +0.000 HD
ENDBRANCH  13  16
ENDBRANCH   7  13
ENDBRANCH   6  10
ENDBRANCH   5   6
ENDBRANCH   1   5
BRANCH   2  19
ATOM     19  C   UNL     1       7.307   5.426  17.322  0.00  0.00    +0.000 C 
BRANCH  19  20
ATOM     20  C   UNL     1       6.530   4.598  18.345  0.00  0.00    +0.000 C 
BRANCH  20  21
ATOM     21  N   UNL     1       5.394   3.892  17.743  0.00  0.00    +0.000 NA
ATOM     22  H   UNL     1       5.523   3.387  16.866  0.00  0.00    +0.000 HD
BRANCH  21  23
ATOM     23  S   UNL     1       4.253   3.171  18.734  0.00  0.00    +0.000 S 
ATOM     24  O   UNL     1       3.436   2.366  17.856  0.00  0.00    +0.000 OA
ATOM     25  O   UNL     1       4.972   2.627  19.866  0.00  0.00    +0.000 OA
BRANCH  23  26
ATOM     26  C   UNL     1       3.202   4.466  19.361  0.00  0.00    +0.000 A 
ATOM     27  C   UNL     1       3.345   5.777  18.891  0.00  0.00    +0.000 A 
ATOM     28  C   UNL     1       2.589   6.818  19.436  0.00  0.00    +0.000 A 
ATOM     29  C   UNL     1       1.675   6.549  20.449  0.00  0.00    +0.000 A 
ATOM     30  C   UNL     1       1.504   5.244  20.901  0.00  0.00    +0.000 A 
ATOM     31  C   UNL     1       2.256   4.175  20.362  0.00  0.00    +0.000 A 
BRANCH  31  32
ATOM     32  C   UNL     1       1.967   2.797  20.916  0.00  0.00    +0.000 C 
ATOM     33  F   UNL     1       1.785   1.796  20.026  0.00  0.00    +0.000 F 
ATOM     34  F   UNL     1       2.958   2.377  21.754  0.00  0.00    +0.000 F 
ATOM     35  F   UNL     1       0.834   2.802  21.678  0.00  0.00    +0.000 F 
ENDBRANCH  31  32
ENDBRANCH  23  26
ENDBRANCH  21  23
ENDBRANCH  20  21
ENDBRANCH  19  20
ENDBRANCH   2  19
TORSDOF 11
ENDMDL
MODEL 3
REMARK VINA RESULT:      -7.9      5.260      7.900
REMARK  Name = 
REMARK  11 active torsions:
REMARK  status: ('A' for Active; 'I' for Inactive)
REMARK    1  A    between atoms: N_1  and  S_2
REMARK    2  A    between atoms: S_2  and  C_5
REMARK    3  A    between atoms: C_8  and  C_9
REMARK    4  A    between atoms: C_9  and  C_10
REMARK    5  A    between atoms: C_10  and  N_11
REMARK    6  A    between atoms: C_12  and  C_14
REMARK    7  A    between atoms: C_14  and  C_15
REMARK    8  A    between atoms: C_15  and  N_16
REMARK    9  A    between atoms: N_16  and  S_17
REMARK   10  A    between atoms: S_17  and  C_20
REMARK   11  A    between atoms: C_25  and  C_26
REMARK                            x       y       z     vdW  Elec       q    Type
REMARK                         _______ _______ _______ _____ _____    ______ ____
ROOT
ATOM      1  N   UNL     1       2.289   5.234  21.043  0.00  0.00    +0.000 N 
ATOM      2  C   UNL     1       1.947   3.956  20.658  0.00  0.00    +0.000 C 
ATOM      3  O   UNL     1       0.887   3.722  20.089  0.00  0.00    +0.000 OA
ATOM      4  H   UNL     1       3.230   5.445  21.349  0.00  0.00    +0.000 HD
ENDROOT
BRANCH   1   5
ATOM      5  C   UNL     1       1.370   6.316  20.735  0.00  0.00    +0.000 C 
BRANCH   5   6
ATOM      6  C   UNL     1       2.044   7.665  20.503  0.00  0.00    +0.000 C 
BRANCH   6  10
ATOM      7  C   UNL     1      -0.628  10.606  18.847  0.00  0.00    +0.000 A 
ATOM      8  C   UNL     1       0.348  10.036  18.030  0.00  0.00    +0.000 A 
ATOM      9  C   UNL     1       1.220   9.087  18.568  0.00  0.00    +0.000 A 
ATOM     10  C   UNL     1       1.127   8.714  19.920  0.00  0.00    +0.000 A 
ATOM     11  C   UNL     1       0.143   9.302  20.725  0.00  0.00    +0.000 A 
ATOM     12  C   UNL     1      -0.733  10.247  20.194  0.00  0.00    +0.000 A 
BRANCH   7  13
ATOM     13  S   UNL     1      -1.806  11.734  18.164  0.00  0.00    +0.000 S 
ATOM     14  O   UNL     1      -2.654  12.218  19.227  0.00  0.00    +0.000 OA
ATOM     15  O   UNL     1      -2.328  11.191  16.933  0.00  0.00    +0.000 OA
BRANCH  13  16
ATOM     16  N   UNL     1      -0.822  13.014  17.699  0.00  0.00    +0.000 NA
ATOM     17  H   UNL     1      -0.329  13.374  18.517  0.00  0.00    +0.000 HD
ATOM     18  H   UNL     1      -1.367  13.722  17.208  0.00  0.00    +0.000 HD
ENDBRANCH  13  16
ENDBRANCH   7  13
ENDBRANCH   6  10
ENDBRANCH   5   6
ENDBRANCH   1   5
BRANCH   2  19
ATOM     19  C   UNL     1       2.993   2.897  20.936  0.00  0.00    +0.000 C 
BRANCH  19  20
ATOM     20  C   UNL     1       3.859   2.598  19.713  0.00  0.00    +0.000 C 
BRANCH  20  21
ATOM     21  N   UNL     1       3.772   3.652  18.697  0.00  0.00    +0.000 NA
ATOM     22  H   UNL     1       2.859   4.022  18.432  0.00  0.00    +0.000 HD
BRANCH  21  23
ATOM     23  S   UNL     1       4.981   4.807  18.601  0.00  0.00    +0.000 S 
ATOM     24  O   UNL     1       4.309   6.078  18.725  0.00  0.00    +0.000 OA
ATOM     25  O   UNL     1       6.035   4.378  19.496  0.00  0.00    +0.000 OA
BRANCH  23  26
ATOM     26  C   UNL     1       5.645   4.742  16.950  0.00  0.00    +0.000 A 
ATOM     27  C   UNL     1       5.222   3.748  16.060  0.00  0.00    +0.000 A 
ATOM     28  C   UNL     1       5.798   3.632  14.792  0.00  0.00    +0.000 A 
ATOM     29  C   UNL     1       6.794   4.519  14.403  0.00  0.00    +0.000 A 
ATOM     30  C   UNL     1       7.199   5.530  15.269  0.00  0.00    +0.000 A 
ATOM     31  C   UNL     1       6.629   5.668  16.555  0.00  0.00    +0.000 A 
BRANCH  31  32
ATOM     32  C   UNL     1       7.133   6.818  17.399  0.00  0.00    +0.000 C 
ATOM     33  F   UNL     1       8.136   7.569  16.891  0.00  0.00    +0.000 F 
ATOM     34  F   UNL     1       6.130   7.691  17.705  0.00  0.00    +0.000 F 
ATOM     35  F   UNL     1       7.600   6.376  18.605  0.00  0.00    +0.000 F 
ENDBRANCH  31  32
ENDBRANCH  23  26
ENDBRANCH  21  23
ENDBRANCH  20  21
ENDBRANCH  19  20
ENDBRANCH   2  19
TORSDOF 11
ENDMDL
MODEL 4
REMARK VINA RESULT:      -7.9      4.856      5.734
REMARK  Name = 
REMARK  11 active torsions:
REMARK  status: ('A' for Active; 'I' for Inactive)
REMARK    1  A    between atoms: N_1  and  S_2
REMARK    2  A    between atoms: S_2  and  C_5
REMARK    3  A    between atoms: C_8  and  C_9
REMARK    4  A    between atoms: C_9  and  C_10
REMARK    5  A    between atoms: C_10  and  N_11
REMARK    6  A    between atoms: C_12  and  C_14
REMARK    7  A    between atoms: C_14  and  C_15
REMARK    8  A    between atoms: C_15  and  N_16
REMARK    9  A    between atoms: N_16  and  S_17
REMARK   10  A    between atoms: S_17  and  C_20
REMARK   11  A    between atoms: C_25  and  C_26
REMARK                            x       y       z     vdW  Elec       q    Type
REMARK                         _______ _______ _______ _____ _____    ______ ____
ROOT
ATOM      1  N   UNL     1       4.944   6.636  17.537  0.00  0.00    +0.000 N 
ATOM      2  C   UNL     1       5.589   6.252  16.382  0.00  0.00    +0.000 C 
ATOM      3  O   UNL     1       5.193   6.612  15.279  0.00  0.00    +0.000 OA
ATOM      4  H   UNL     1       5.373   6.485  18.441  0.00  0.00    +0.000 HD
ENDROOT
BRANCH   1   5
ATOM      5  C   UNL     1       3.786   7.505  17.424  0.00  0.00    +0.000 C 
BRANCH   5   6
ATOM      6  C   UNL     1       2.636   7.143  18.359  0.00  0.00    +0.000 C 
BRANCH   6  10
ATOM      7  C   UNL     1       0.638  10.593  19.983  0.00  0.00    +0.000 A 
ATOM      8  C   UNL     1       0.805   9.463  20.784  0.00  0.00    +0.000 A 
ATOM      9  C   UNL     1       1.447   8.341  20.256  0.00  0.00    +0.000 A 
ATOM     10  C   UNL     1       1.911   8.339  18.929  0.00  0.00    +0.000 A 
ATOM     11  C   UNL     1       1.729   9.482  18.140  0.00  0.00    +0.000 A 
ATOM     12  C   UNL     1       1.092  10.607  18.661  0.00  0.00    +0.000 A 
BRANCH   7  13
ATOM     13  S   UNL     1      -0.082  12.059  20.661  0.00  0.00    +0.000 S 
ATOM     14  O   UNL     1       0.874  12.675  21.551  0.00  0.00    +0.000 OA
ATOM     15  O   UNL     1      -1.445  11.786  21.046  0.00  0.00    +0.000 OA
BRANCH  13  16
ATOM     16  N   UNL     1      -0.194  13.043  19.304  0.00  0.00    +0.000 NA
ATOM     17  H   UNL     1      -0.014  14.010  19.574  0.00  0.00    +0.000 HD
ATOM     18  H   UNL     1      -1.092  12.908  18.840  0.00  0.00    +0.000 HD
ENDBRANCH  13  16
ENDBRANCH   7  13
ENDBRANCH   6  10
ENDBRANCH   5   6
ENDBRANCH   1   5
BRANCH   2  19
ATOM     19  C   UNL     1       6.837   5.419  16.586  0.00  0.00    +0.000 C 
BRANCH  19  20
ATOM     20  C   UNL     1       6.877   4.758  17.964  0.00  0.00    +0.000 C 
BRANCH  20  21
ATOM     21  N   UNL     1       5.851   3.721  18.116  0.00  0.00    +0.000 NA
ATOM     22  H   UNL     1       6.028   2.781  17.762  0.00  0.00    +0.000 HD
BRANCH  21  23
ATOM     23  S   UNL     1       4.879   3.717  19.480  0.00  0.00    +0.000 S 
ATOM     24  O   UNL     1       5.200   2.493  20.176  0.00  0.00    +0.000 OA
ATOM     25  O   UNL     1       5.004   5.027  20.083  0.00  0.00    +0.000 OA
BRANCH  23  26
ATOM     26  C   UNL     1       3.193   3.560  18.928  0.00  0.00    +0.000 A 
ATOM     27  C   UNL     1       2.887   3.657  17.565  0.00  0.00    +0.000 A 
ATOM     28  C   UNL     1       1.560   3.624  17.126  0.00  0.00    +0.000 A 
ATOM     29  C   UNL     1       0.532   3.480  18.050  0.00  0.00    +0.000 A 
ATOM     30  C   UNL     1       0.828   3.351  19.403  0.00  0.00    +0.000 A 
ATOM     31  C   UNL     1       2.163   3.379  19.870  0.00  0.00    +0.000 A 
BRANCH  31  32
ATOM     32  C   UNL     1       2.363   3.206  21.360  0.00  0.00    +0.000 C 
ATOM     33  F   UNL     1       3.298   2.315  21.760  0.00  0.00    +0.000 F 
ATOM     34  F   UNL     1       2.689   4.386  21.961  0.00  0.00    +0.000 F 
ATOM     35  F   UNL     1       1.208   2.803  21.968  0.00  0.00    +0.000 F 
ENDBRANCH  31  32
ENDBRANCH  23  26
ENDBRANCH  21  23
ENDBRANCH  20  21
ENDBRANCH  19  20
ENDBRANCH   2  19
TORSDOF 11
ENDMDL
MODEL 5
REMARK VINA RESULT:      -7.8      4.877      5.888
REMARK  Name = 
REMARK  11 active torsions:
REMARK  status: ('A' for Active; 'I' for Inactive)
REMARK    1  A    between atoms: N_1  and  S_2
REMARK    2  A    between atoms: S_2  and  C_5
REMARK    3  A    between atoms: C_8  and  C_9
REMARK    4  A    between atoms: C_9  and  C_10
REMARK    5  A    between atoms: C_10  and  N_11
REMARK    6  A    between atoms: C_12  and  C_14
REMARK    7  A    between atoms: C_14  and  C_15
REMARK    8  A    between atoms: C_15  and  N_16
REMARK    9  A    between atoms: N_16  and  S_17
REMARK   10  A    between atoms: S_17  and  C_20
REMARK   11  A    between atoms: C_25  and  C_26
REMARK                            x       y       z     vdW  Elec       q    Type
REMARK                         _______ _______ _______ _____ _____    ______ ____
ROOT
ATOM      1  N   UNL     1       5.127   6.788  17.515  0.00  0.00    +0.000 N 
ATOM      2  C   UNL     1       5.682   6.243  16.379  0.00  0.00    +0.000 C 
ATOM      3  O   UNL     1       5.219   6.473  15.267  0.00  0.00    +0.000 OA
ATOM      4  H   UNL     1       5.613   6.737  18.401  0.00  0.00    +0.000 HD
ENDROOT
BRANCH   1   5
ATOM      5  C   UNL     1       3.983   7.671  17.369  0.00  0.00    +0.000 C 
BRANCH   5   6
ATOM      6  C   UNL     1       2.680   7.107  17.926  0.00  0.00    +0.000 C 
BRANCH   6  10
ATOM      7  C   UNL     1       0.655   9.856  20.548  0.00  0.00    +0.000 A 
ATOM      8  C   UNL     1       1.138   8.653  21.063  0.00  0.00    +0.000 A 
ATOM      9  C   UNL     1       1.788   7.758  20.212  0.00  0.00    +0.000 A 
ATOM     10  C   UNL     1       1.948   8.054  18.848  0.00  0.00    +0.000 A 
ATOM     11  C   UNL     1       1.452   9.265  18.349  0.00  0.00    +0.000 A 
ATOM     12  C   UNL     1       0.805  10.165  19.193  0.00  0.00    +0.000 A 
BRANCH   7  13
ATOM     13  S   UNL     1      -0.082  11.047  21.626  0.00  0.00    +0.000 S 
ATOM     14  O   UNL     1       0.098  10.612  22.991  0.00  0.00    +0.000 OA
ATOM     15  O   UNL     1      -1.364  11.442  21.095  0.00  0.00    +0.000 OA
BRANCH  13  16
ATOM     16  N   UNL     1       0.918  12.378  21.399  0.00  0.00    +0.000 NA
ATOM     17  H   UNL     1       0.347  13.198  21.194  0.00  0.00    +0.000 HD
ATOM     18  H   UNL     1       1.618  12.179  20.685  0.00  0.00    +0.000 HD
ENDBRANCH  13  16
ENDBRANCH   7  13
ENDBRANCH   6  10
ENDBRANCH   5   6
ENDBRANCH   1   5
BRANCH   2  19
ATOM     19  C   UNL     1       6.922   5.403  16.605  0.00  0.00    +0.000 C 
BRANCH  19  20
ATOM     20  C   UNL     1       6.957   4.780  18.000  0.00  0.00    +0.000 C 
BRANCH  20  21
ATOM     21  N   UNL     1       5.961   3.714  18.160  0.00  0.00    +0.000 NA
ATOM     22  H   UNL     1       6.188   2.765  17.864  0.00  0.00    +0.000 HD
BRANCH  21  23
ATOM     23  S   UNL     1       4.927   3.742  19.477  0.00  0.00    +0.000 S 
ATOM     24  O   UNL     1       5.189   2.518  20.197  0.00  0.00    +0.000 OA
ATOM     25  O   UNL     1       5.053   5.055  20.075  0.00  0.00    +0.000 OA
BRANCH  23  26
ATOM     26  C   UNL     1       3.265   3.617  18.848  0.00  0.00    +0.000 A 
ATOM     27  C   UNL     1       3.028   3.689  17.470  0.00  0.00    +0.000 A 
ATOM     28  C   UNL     1       1.723   3.681  16.969  0.00  0.00    +0.000 A 
ATOM     29  C   UNL     1       0.648   3.587  17.845  0.00  0.00    +0.000 A 
ATOM     30  C   UNL     1       0.876   3.482  19.214  0.00  0.00    +0.000 A 
ATOM     31  C   UNL     1       2.187   3.487  19.743  0.00  0.00    +0.000 A 
BRANCH  31  32
ATOM     32  C   UNL     1       2.312   3.344  21.244  0.00  0.00    +0.000 C 
ATOM     33  F   UNL     1       1.214   2.941  21.923  0.00  0.00    +0.000 F 
ATOM     34  F   UNL     1       3.303   2.470  21.583  0.00  0.00    +0.000 F 
ATOM     35  F   UNL     1       2.669   4.530  21.823  0.00  0.00    +0.000 F 
ENDBRANCH  31  32
ENDBRANCH  23  26
ENDBRANCH  21  23
ENDBRANCH  20  21
ENDBRANCH  19  20
ENDBRANCH   2  19
TORSDOF 11
ENDMDL
MODEL 6
REMARK VINA RESULT:      -7.7      1.150      1.289
REMARK  Name = 
REMARK  11 active torsions:
REMARK  status: ('A' for Active; 'I' for Inactive)
REMARK    1  A    between atoms: N_1  and  S_2
REMARK    2  A    between atoms: S_2  and  C_5
REMARK    3  A    between atoms: C_8  and  C_9
REMARK    4  A    between atoms: C_9  and  C_10
REMARK    5  A    between atoms: C_10  and  N_11
REMARK    6  A    between atoms: C_12  and  C_14
REMARK    7  A    between atoms: C_14  and  C_15
REMARK    8  A    between atoms: C_15  and  N_16
REMARK    9  A    between atoms: N_16  and  S_17
REMARK   10  A    between atoms: S_17  and  C_20
REMARK   11  A    between atoms: C_25  and  C_26
REMARK                            x       y       z     vdW  Elec       q    Type
REMARK                         _______ _______ _______ _____ _____    ______ ____
ROOT
ATOM      1  N   UNL     1       7.381   7.648  16.960  0.00  0.00    +0.000 N 
ATOM      2  C   UNL     1       6.995   6.435  17.488  0.00  0.00    +0.000 C 
ATOM      3  O   UNL     1       6.689   6.321  18.670  0.00  0.00    +0.000 OA
ATOM      4  H   UNL     1       7.460   7.771  15.959  0.00  0.00    +0.000 HD
ENDROOT
BRANCH   1   5
ATOM      5  C   UNL     1       7.394   8.808  17.834  0.00  0.00    +0.000 C 
BRANCH   5   6
ATOM      6  C   UNL     1       8.744   9.083  18.489  0.00  0.00    +0.000 C 
BRANCH   6  10
ATOM      7  C   UNL     1       9.772  13.260  18.672  0.00  0.00    +0.000 A 
ATOM      8  C   UNL     1       8.850  12.826  17.720  0.00  0.00    +0.000 A 
ATOM      9  C   UNL     1       8.521  11.471  17.655  0.00  0.00    +0.000 A 
ATOM     10  C   UNL     1       9.118  10.546  18.529  0.00  0.00    +0.000 A 
ATOM     11  C   UNL     1      10.045  11.001  19.475  0.00  0.00    +0.000 A 
ATOM     12  C   UNL     1      10.376  12.353  19.547  0.00  0.00    +0.000 A 
BRANCH   7  13
ATOM     13  S   UNL     1      10.129  14.983  18.838  0.00  0.00    +0.000 S 
ATOM     14  O   UNL     1      11.561  15.164  18.817  0.00  0.00    +0.000 OA
ATOM     15  O   UNL     1       9.285  15.548  19.863  0.00  0.00    +0.000 OA
BRANCH  13  16
ATOM     16  N   UNL     1       9.536  15.596  17.390  0.00  0.00    +0.000 NA
ATOM     17  H   UNL     1       9.671  16.607  17.371  0.00  0.00    +0.000 HD
ATOM     18  H   UNL     1       8.567  15.311  17.254  0.00  0.00    +0.000 HD
ENDBRANCH  13  16
ENDBRANCH   7  13
ENDBRANCH   6  10
ENDBRANCH   5   6
ENDBRANCH   1   5
BRANCH   2  19
ATOM     19  C   UNL     1       6.923   5.293  16.496  0.00  0.00    +0.000 C 
BRANCH  19  20
ATOM     20  C   UNL     1       6.097   4.119  17.019  0.00  0.00    +0.000 C 
BRANCH  20  21
ATOM     21  N   UNL     1       4.674   4.245  16.685  0.00  0.00    +0.000 NA
ATOM     22  H   UNL     1       4.385   4.246  15.707  0.00  0.00    +0.000 HD
BRANCH  21  23
ATOM     23  S   UNL     1       3.526   3.554  17.690  0.00  0.00    +0.000 S 
ATOM     24  O   UNL     1       2.476   3.094  16.812  0.00  0.00    +0.000 OA
ATOM     25  O   UNL     1       4.241   2.681  18.596  0.00  0.00    +0.000 OA
BRANCH  23  26
ATOM     26  C   UNL     1       2.828   4.864  18.674  0.00  0.00    +0.000 A 
ATOM     27  C   UNL     1       3.028   6.201  18.311  0.00  0.00    +0.000 A 
ATOM     28  C   UNL     1       2.561   7.239  19.121  0.00  0.00    +0.000 A 
ATOM     29  C   UNL     1       1.879   6.944  20.296  0.00  0.00    +0.000 A 
ATOM     30  C   UNL     1       1.648   5.618  20.649  0.00  0.00    +0.000 A 
ATOM     31  C   UNL     1       2.109   4.552  19.844  0.00  0.00    +0.000 A 
BRANCH  31  32
ATOM     32  C   UNL     1       1.778   3.153  20.317  0.00  0.00    +0.000 C 
ATOM     33  F   UNL     1       2.804   2.381  20.739  0.00  0.00    +0.000 F 
ATOM     34  F   UNL     1       0.878   3.173  21.342  0.00  0.00    +0.000 F 
ATOM     35  F   UNL     1       1.175   2.429  19.327  0.00  0.00    +0.000 F 
ENDBRANCH  31  32
ENDBRANCH  23  26
ENDBRANCH  21  23
ENDBRANCH  20  21
ENDBRANCH  19  20
ENDBRANCH   2  19
TORSDOF 11
ENDMDL
MODEL 7
REMARK VINA RESULT:      -7.6      1.303      1.528
REMARK  Name = 
REMARK  11 active torsions:
REMARK  status: ('A' for Active; 'I' for Inactive)
REMARK    1  A    between atoms: N_1  and  S_2
REMARK    2  A    between atoms: S_2  and  C_5
REMARK    3  A    between atoms: C_8  and  C_9
REMARK    4  A    between atoms: C_9  and  C_10
REMARK    5  A    between atoms: C_10  and  N_11
REMARK    6  A    between atoms: C_12  and  C_14
REMARK    7  A    between atoms: C_14  and  C_15
REMARK    8  A    between atoms: C_15  and  N_16
REMARK    9  A    between atoms: N_16  and  S_17
REMARK   10  A    between atoms: S_17  and  C_20
REMARK   11  A    between atoms: C_25  and  C_26
REMARK                            x       y       z     vdW  Elec       q    Type
REMARK                         _______ _______ _______ _____ _____    ______ ____
ROOT
ATOM      1  N   UNL     1       7.163   6.268  16.254  0.00  0.00    +0.000 N 
ATOM      2  C   UNL     1       7.319   4.900  16.313  0.00  0.00    +0.000 C 
ATOM      3  O   UNL     1       8.031   4.374  17.160  0.00  0.00    +0.000 OA
ATOM      4  H   UNL     1       6.444   6.679  15.672  0.00  0.00    +0.000 HD
ENDROOT
BRANCH   1   5
ATOM      5  C   UNL     1       7.847   7.083  17.241  0.00  0.00    +0.000 C 
BRANCH   5   6
ATOM      6  C   UNL     1       7.089   8.342  17.649  0.00  0.00    +0.000 C 
BRANCH   6  10
ATOM      7  C   UNL     1       9.604  11.641  18.802  0.00  0.00    +0.000 A 
ATOM      8  C   UNL     1       8.633  11.836  17.820  0.00  0.00    +0.000 A 
ATOM      9  C   UNL     1       7.821  10.765  17.441  0.00  0.00    +0.000 A 
ATOM     10  C   UNL     1       7.984   9.499  18.029  0.00  0.00    +0.000 A 
ATOM     11  C   UNL     1       8.968   9.323  19.010  0.00  0.00    +0.000 A 
ATOM     12  C   UNL     1       9.780  10.388  19.396  0.00  0.00    +0.000 A 
BRANCH   7  13
ATOM     13  S   UNL     1      10.574  13.006  19.369  0.00  0.00    +0.000 S 
ATOM     14  O   UNL     1      11.733  12.494  20.062  0.00  0.00    +0.000 OA
ATOM     15  O   UNL     1       9.704  14.007  19.936  0.00  0.00    +0.000 OA
BRANCH  13  16
ATOM     16  N   UNL     1      11.119  13.662  17.922  0.00  0.00    +0.000 NA
ATOM     17  H   UNL     1      11.001  12.976  17.175  0.00  0.00    +0.000 HD
ATOM     18  H   UNL     1      12.078  13.996  18.021  0.00  0.00    +0.000 HD
ENDBRANCH  13  16
ENDBRANCH   7  13
ENDBRANCH   6  10
ENDBRANCH   5   6
ENDBRANCH   1   5
BRANCH   2  19
ATOM     19  C   UNL     1       6.506   4.114  15.305  0.00  0.00    +0.000 C 
BRANCH  19  20
ATOM     20  C   UNL     1       5.036   4.000  15.704  0.00  0.00    +0.000 C 
BRANCH  20  21
ATOM     21  N   UNL     1       4.742   4.701  16.959  0.00  0.00    +0.000 NA
ATOM     22  H   UNL     1       4.301   5.621  16.930  0.00  0.00    +0.000 HD
BRANCH  21  23
ATOM     23  S   UNL     1       4.295   3.821  18.311  0.00  0.00    +0.000 S 
ATOM     24  O   UNL     1       3.532   2.703  17.807  0.00  0.00    +0.000 OA
ATOM     25  O   UNL     1       5.487   3.667  19.118  0.00  0.00    +0.000 OA
BRANCH  23  26
ATOM     26  C   UNL     1       3.163   4.828  19.248  0.00  0.00    +0.000 A 
ATOM     27  C   UNL     1       2.980   6.175  18.915  0.00  0.00    +0.000 A 
ATOM     28  C   UNL     1       2.162   6.999  19.694  0.00  0.00    +0.000 A 
ATOM     29  C   UNL     1       1.513   6.473  20.805  0.00  0.00    +0.000 A 
ATOM     30  C   UNL     1       1.663   5.127  21.125  0.00  0.00    +0.000 A 
ATOM     31  C   UNL     1       2.483   4.275  20.350  0.00  0.00    +0.000 A 
BRANCH  31  32
ATOM     32  C   UNL     1       2.552   2.826  20.780  0.00  0.00    +0.000 C 
ATOM     33  F   UNL     1       3.768   2.234  20.777  0.00  0.00    +0.000 F 
ATOM     34  F   UNL     1       2.056   2.655  22.039  0.00  0.00    +0.000 F 
ATOM     35  F   UNL     1       1.774   2.038  19.980  0.00  0.00    +0.000 F 
ENDBRANCH  31  32
ENDBRANCH  23  26
ENDBRANCH  21  23
ENDBRANCH  20  21
ENDBRANCH  19  20
ENDBRANCH   2  19
TORSDOF 11
ENDMDL
MODEL 8
REMARK VINA RESULT:      -7.6      5.257     10.439
REMARK  Name = 
REMARK  11 active torsions:
REMARK  status: ('A' for Active; 'I' for Inactive)
REMARK    1  A    between atoms: N_1  and  S_2
REMARK    2  A    between atoms: S_2  and  C_5
REMARK    3  A    between atoms: C_8  and  C_9
REMARK    4  A    between atoms: C_9  and  C_10
REMARK    5  A    between atoms: C_10  and  N_11
REMARK    6  A    between atoms: C_12  and  C_14
REMARK    7  A    between atoms: C_14  and  C_15
REMARK    8  A    between atoms: C_15  and  N_16
REMARK    9  A    between atoms: N_16  and  S_17
REMARK   10  A    between atoms: S_17  and  C_20
REMARK   11  A    between atoms: C_25  and  C_26
REMARK                            x       y       z     vdW  Elec       q    Type
REMARK                         _______ _______ _______ _____ _____    ______ ____
ROOT
ATOM      1  N   UNL     1       7.106   6.052  16.290  0.00  0.00    +0.000 N 
ATOM      2  C   UNL     1       6.756   7.025  17.200  0.00  0.00    +0.000 C 
ATOM      3  O   UNL     1       5.582   7.287  17.437  0.00  0.00    +0.000 OA
ATOM      4  H   UNL     1       8.060   5.723  16.230  0.00  0.00    +0.000 HD
ENDROOT
BRANCH   1   5
ATOM      5  C   UNL     1       6.045   5.317  15.625  0.00  0.00    +0.000 C 
BRANCH   5   6
ATOM      6  C   UNL     1       5.810   3.915  16.180  0.00  0.00    +0.000 C 
BRANCH   6  10
ATOM      7  C   UNL     1       2.801   3.815  19.257  0.00  0.00    +0.000 A 
ATOM      8  C   UNL     1       4.148   3.831  19.621  0.00  0.00    +0.000 A 
ATOM      9  C   UNL     1       5.124   3.856  18.624  0.00  0.00    +0.000 A 
ATOM     10  C   UNL     1       4.762   3.854  17.266  0.00  0.00    +0.000 A 
ATOM     11  C   UNL     1       3.405   3.833  16.921  0.00  0.00    +0.000 A 
ATOM     12  C   UNL     1       2.424   3.811  17.911  0.00  0.00    +0.000 A 
BRANCH   7  13
ATOM     13  S   UNL     1       1.547   3.884  20.501  0.00  0.00    +0.000 S 
ATOM     14  O   UNL     1       0.435   3.064  20.083  0.00  0.00    +0.000 OA
ATOM     15  O   UNL     1       1.390   5.247  20.945  0.00  0.00    +0.000 OA
BRANCH  13  16
ATOM     16  N   UNL     1       2.291   3.086  21.779  0.00  0.00    +0.000 NA
ATOM     17  H   UNL     1       1.768   2.237  21.996  0.00  0.00    +0.000 HD
ATOM     18  H   UNL     1       2.399   3.713  22.576  0.00  0.00    +0.000 HD
ENDBRANCH  13  16
ENDBRANCH   7  13
ENDBRANCH   6  10
ENDBRANCH   5   6
ENDBRANCH   1   5
BRANCH   2  19
ATOM     19  C   UNL     1       7.916   7.687  17.914  0.00  0.00    +0.000 C 
BRANCH  19  20
ATOM     20  C   UNL     1       7.937   9.202  17.712  0.00  0.00    +0.000 C 
BRANCH  20  21
ATOM     21  N   UNL     1       8.895   9.870  18.599  0.00  0.00    +0.000 NA
ATOM     22  H   UNL     1       9.634   9.324  19.044  0.00  0.00    +0.000 HD
BRANCH  21  23
ATOM     23  S   UNL     1       9.374  11.439  18.265  0.00  0.00    +0.000 S 
ATOM     24  O   UNL     1      10.726  11.330  17.769  0.00  0.00    +0.000 OA
ATOM     25  O   UNL     1       8.300  12.048  17.508  0.00  0.00    +0.000 OA
BRANCH  23  26
ATOM     26  C   UNL     1       9.470  12.306  19.817  0.00  0.00    +0.000 A 
ATOM     27  C   UNL     1       9.037  11.688  20.996  0.00  0.00    +0.000 A 
ATOM     28  C   UNL     1       9.024  12.386  22.207  0.00  0.00    +0.000 A 
ATOM     29  C   UNL     1       9.458  13.706  22.246  0.00  0.00    +0.000 A 
ATOM     30  C   UNL     1       9.921  14.319  21.085  0.00  0.00    +0.000 A 
ATOM     31  C   UNL     1       9.945  13.631  19.850  0.00  0.00    +0.000 A 
BRANCH  31  32
ATOM     32  C   UNL     1      10.490  14.392  18.661  0.00  0.00    +0.000 C 
ATOM     33  F   UNL     1       9.737  14.414  17.539  0.00  0.00    +0.000 F 
ATOM     34  F   UNL     1      10.736  15.697  18.973  0.00  0.00    +0.000 F 
ATOM     35  F   UNL     1      11.697  13.887  18.267  0.00  0.00    +0.000 F 
ENDBRANCH  31  32
ENDBRANCH  23  26
ENDBRANCH  21  23
ENDBRANCH  20  21
ENDBRANCH  19  20
ENDBRANCH   2  19
TORSDOF 11
ENDMDL
MODEL 9
REMARK VINA RESULT:      -7.6      1.008      1.162
REMARK  Name = 
REMARK  11 active torsions:
REMARK  status: ('A' for Active; 'I' for Inactive)
REMARK    1  A    between atoms: N_1  and  S_2
REMARK    2  A    between atoms: S_2  and  C_5
REMARK    3  A    between atoms: C_8  and  C_9
REMARK    4  A    between atoms: C_9  and  C_10
REMARK    5  A    between atoms: C_10  and  N_11
REMARK    6  A    between atoms: C_12  and  C_14
REMARK    7  A    between atoms: C_14  and  C_15
REMARK    8  A    between atoms: C_15  and  N_16
REMARK    9  A    between atoms: N_16  and  S_17
REMARK   10  A    between atoms: S_17  and  C_20
REMARK   11  A    between atoms: C_25  and  C_26
REMARK                            x       y       z     vdW  Elec       q    Type
REMARK                         _______ _______ _______ _____ _____    ______ ____
ROOT
ATOM      1  N   UNL     1       7.875   6.198  17.368  0.00  0.00    +0.000 N 
ATOM      2  C   UNL     1       6.811   6.040  16.506  0.00  0.00    +0.000 C 
ATOM      3  O   UNL     1       5.900   6.860  16.458  0.00  0.00    +0.000 OA
ATOM      4  H   UNL     1       8.699   5.619  17.278  0.00  0.00    +0.000 HD
ENDROOT
BRANCH   1   5
ATOM      5  C   UNL     1       7.910   7.380  18.211  0.00  0.00    +0.000 C 
BRANCH   5   6
ATOM      6  C   UNL     1       7.679   8.690  17.464  0.00  0.00    +0.000 C 
BRANCH   6  10
ATOM      7  C   UNL     1       9.679  12.061  19.245  0.00  0.00    +0.000 A 
ATOM      8  C   UNL     1       8.948  12.245  18.072  0.00  0.00    +0.000 A 
ATOM      9  C   UNL     1       8.304  11.151  17.490  0.00  0.00    +0.000 A 
ATOM     10  C   UNL     1       8.398   9.874  18.067  0.00  0.00    +0.000 A 
ATOM     11  C   UNL     1       9.142   9.708  19.243  0.00  0.00    +0.000 A 
ATOM     12  C   UNL     1       9.784  10.796  19.832  0.00  0.00    +0.000 A 
BRANCH   7  13
ATOM     13  S   UNL     1      10.419  13.448  20.054  0.00  0.00    +0.000 S 
ATOM     14  O   UNL     1       9.789  14.654  19.572  0.00  0.00    +0.000 OA
ATOM     15  O   UNL     1      11.851  13.273  20.087  0.00  0.00    +0.000 OA
BRANCH  13  16
ATOM     16  N   UNL     1       9.910  13.229  21.640  0.00  0.00    +0.000 NA
ATOM     17  H   UNL     1       9.700  12.242  21.794  0.00  0.00    +0.000 HD
ATOM     18  H   UNL     1       9.129  13.850  21.852  0.00  0.00    +0.000 HD
ENDBRANCH  13  16
ENDBRANCH   7  13
ENDBRANCH   6  10
ENDBRANCH   5   6
ENDBRANCH   1   5
BRANCH   2  19
ATOM     19  C   UNL     1       6.889   4.830  15.600  0.00  0.00    +0.000 C 
BRANCH  19  20
ATOM     20  C   UNL     1       5.888   3.743  15.992  0.00  0.00    +0.000 C 
BRANCH  20  21
ATOM     21  N   UNL     1       4.710   4.290  16.674  0.00  0.00    +0.000 NA
ATOM     22  H   UNL     1       3.918   4.621  16.122  0.00  0.00    +0.000 HD
BRANCH  21  23
ATOM     23  S   UNL     1       4.238   3.650  18.148  0.00  0.00    +0.000 S 
ATOM     24  O   UNL     1       3.374   2.539  17.825  0.00  0.00    +0.000 OA
ATOM     25  O   UNL     1       5.440   3.513  18.943  0.00  0.00    +0.000 OA
BRANCH  23  26
ATOM     26  C   UNL     1       3.220   4.870  18.953  0.00  0.00    +0.000 A 
ATOM     27  C   UNL     1       3.136   6.168  18.436  0.00  0.00    +0.000 A 
ATOM     28  C   UNL     1       2.412   7.158  19.105  0.00  0.00    +0.000 A 
ATOM     29  C   UNL     1       1.757   6.850  20.292  0.00  0.00    +0.000 A 
ATOM     30  C   UNL     1       1.809   5.555  20.797  0.00  0.00    +0.000 A 
ATOM     31  C   UNL     1       2.534   4.536  20.136  0.00  0.00    +0.000 A 
BRANCH  31  32
ATOM     32  C   UNL     1       2.499   3.161  20.766  0.00  0.00    +0.000 C 
ATOM     33  F   UNL     1       3.674   2.506  20.892  0.00  0.00    +0.000 F 
ATOM     34  F   UNL     1       1.955   3.199  22.017  0.00  0.00    +0.000 F 
ATOM     35  F   UNL     1       1.697   2.314  20.055  0.00  0.00    +0.000 F 
ENDBRANCH  31  32
ENDBRANCH  23  26
ENDBRANCH  21  23
ENDBRANCH  20  21
ENDBRANCH  19  20
ENDBRANCH   2  19
TORSDOF 11
ENDMDL
