MODEL 1
REMARK VINA RESULT:      -6.6      0.000      0.000
REMARK  Name = 
REMARK  3 active torsions:
REMARK  status: ('A' for Active; 'I' for Inactive)
REMARK    1  A    between atoms: C_1  and  O_2
REMARK    2  A    between atoms: O_2  and  C_3
REMARK    3  A    between atoms: N_11  and  C_12
REMARK                            x       y       z     vdW  Elec       q    Type
REMARK                         _______ _______ _______ _____ _____    ______ ____
ROOT
ATOM      1  C   UNL     1       2.970   5.428  17.849  0.00  0.00    +0.000 A 
ATOM      2  C   UNL     1       4.087   5.018  17.153  0.00  0.00    +0.000 A 
ATOM      3  C   UNL     1       4.389   3.722  16.726  0.00  0.00    +0.000 A 
ATOM      4  C   UNL     1       5.656   3.642  16.116  0.00  0.00    +0.000 A 
ATOM      5  C   UNL     1       6.513   4.763  15.933  0.00  0.00    +0.000 A 
ATOM      6  C   UNL     1       6.169   6.071  16.327  0.00  0.00    +0.000 A 
ATOM      7  C   UNL     1       4.916   6.175  16.959  0.00  0.00    +0.000 A 
ATOM      8  N   UNL     1       4.305   7.256  17.447  0.00  0.00    +0.000 NA
ATOM      9  N   UNL     1       3.133   6.818  17.997  0.00  0.00    +0.000 N 
ENDROOT
BRANCH   9  10
ATOM     10  C   UNL     1       2.297   7.776  18.669  0.00  0.00    +0.000 A 
ATOM     11  C   UNL     1       1.776   8.863  17.940  0.00  0.00    +0.000 A 
ATOM     12  C   UNL     1       0.976   9.828  18.563  0.00  0.00    +0.000 A 
ATOM     13  C   UNL     1       0.689   9.720  19.920  0.00  0.00    +0.000 A 
ATOM     14  I   UNL     1      -0.492  11.149  20.854  0.00  0.00    +0.000 I 
ATOM     15  C   UNL     1       1.195   8.652  20.656  0.00  0.00    +0.000 A 
ATOM     16  C   UNL     1       1.992   7.682  20.032  0.00  0.00    +0.000 A 
ENDBRANCH   9  10
BRANCH   1  18
ATOM     17  C   UNL     1       2.070   4.032  19.520  0.00  0.00    +0.000 C 
ATOM     18  O   UNL     1       1.892   4.794  18.333  0.00  0.00    +0.000 OA
ENDBRANCH   1  18
TORSDOF 2
ENDMDL
MODEL 2
REMARK VINA RESULT:      -6.5      0.083      1.139
REMARK  Name = 
REMARK  3 active torsions:
REMARK  status: ('A' for Active; 'I' for Inactive)
REMARK    1  A    between atoms: C_1  and  O_2
REMARK    2  A    between atoms: O_2  and  C_3
REMARK    3  A    between atoms: N_11  and  C_12
REMARK                            x       y       z     vdW  Elec       q    Type
REMARK                         _______ _______ _______ _____ _____    ______ ____
ROOT
ATOM      1  C   UNL     1       2.970   5.418  17.816  0.00  0.00    +0.000 A 
ATOM      2  C   UNL     1       4.084   4.978  17.132  0.00  0.00    +0.000 A 
ATOM      3  C   UNL     1       4.361   3.674  16.715  0.00  0.00    +0.000 A 
ATOM      4  C   UNL     1       5.631   3.561  16.118  0.00  0.00    +0.000 A 
ATOM      5  C   UNL     1       6.516   4.661  15.938  0.00  0.00    +0.000 A 
ATOM      6  C   UNL     1       6.198   5.979  16.323  0.00  0.00    +0.000 A 
ATOM      7  C   UNL     1       4.942   6.115  16.941  0.00  0.00    +0.000 A 
ATOM      8  N   UNL     1       4.351   7.213  17.418  0.00  0.00    +0.000 NA
ATOM      9  N   UNL     1       3.163   6.804  17.959  0.00  0.00    +0.000 N 
ENDROOT
BRANCH   9  10
ATOM     10  C   UNL     1       2.343   7.784  18.617  0.00  0.00    +0.000 A 
ATOM     11  C   UNL     1       2.069   7.640  19.991  0.00  0.00    +0.000 A 
ATOM     12  C   UNL     1       1.257   8.561  20.663  0.00  0.00    +0.000 A 
ATOM     13  C   UNL     1       0.708   9.635  19.970  0.00  0.00    +0.000 A 
ATOM     14  I   UNL     1      -0.502  11.004  20.956  0.00  0.00    +0.000 I 
ATOM     15  C   UNL     1       0.968   9.794  18.612  0.00  0.00    +0.000 A 
ATOM     16  C   UNL     1       1.786   8.875  17.939  0.00  0.00    +0.000 A 
ENDBRANCH   9  10
BRANCH   1  18
ATOM     17  C   UNL     1       2.025   4.042  19.478  0.00  0.00    +0.000 C 
ATOM     18  O   UNL     1       1.873   4.811  18.292  0.00  0.00    +0.000 OA
ENDBRANCH   1  18
TORSDOF 2
ENDMDL
MODEL 3
REMARK VINA RESULT:      -6.4      0.995      1.601
REMARK  Name = 
REMARK  3 active torsions:
REMARK  status: ('A' for Active; 'I' for Inactive)
REMARK    1  A    between atoms: C_1  and  O_2
REMARK    2  A    between atoms: O_2  and  C_3
REMARK    3  A    between atoms: N_11  and  C_12
REMARK                            x       y       z     vdW  Elec       q    Type
REMARK                         _______ _______ _______ _____ _____    ______ ____
ROOT
ATOM      1  C   UNL     1       2.548   5.833  18.738  0.00  0.00    +0.000 A 
ATOM      2  C   UNL     1       3.472   5.450  17.789  0.00  0.00    +0.000 A 
ATOM      3  C   UNL     1       3.827   4.146  17.432  0.00  0.00    +0.000 A 
ATOM      4  C   UNL     1       4.870   4.115  16.487  0.00  0.00    +0.000 A 
ATOM      5  C   UNL     1       5.470   5.284  15.939  0.00  0.00    +0.000 A 
ATOM      6  C   UNL     1       5.064   6.591  16.277  0.00  0.00    +0.000 A 
ATOM      7  C   UNL     1       4.038   6.649  17.236  0.00  0.00    +0.000 A 
ATOM      8  N   UNL     1       3.438   7.718  17.766  0.00  0.00    +0.000 NA
ATOM      9  N   UNL     1       2.543   7.239  18.683  0.00  0.00    +0.000 N 
ENDROOT
BRANCH   9  10
ATOM     10  C   UNL     1       1.799   8.188  19.466  0.00  0.00    +0.000 A 
ATOM     11  C   UNL     1       1.612   7.947  20.841  0.00  0.00    +0.000 A 
ATOM     12  C   UNL     1       0.875   8.836  21.632  0.00  0.00    +0.000 A 
ATOM     13  C   UNL     1       0.315   9.973  21.060  0.00  0.00    +0.000 A 
ATOM     14  I   UNL     1      -0.783  11.296  22.224  0.00  0.00    +0.000 I 
ATOM     15  C   UNL     1       0.491  10.228  19.702  0.00  0.00    +0.000 A 
ATOM     16  C   UNL     1       1.233   9.341  18.910  0.00  0.00    +0.000 A 
ENDBRANCH   9  10
BRANCH   1  18
ATOM     17  C   UNL     1       2.382   4.492  20.667  0.00  0.00    +0.000 C 
ATOM     18  O   UNL     1       1.752   5.163  19.584  0.00  0.00    +0.000 OA
ENDBRANCH   1  18
TORSDOF 2
ENDMDL
MODEL 4
REMARK VINA RESULT:      -6.4      4.207      5.252
REMARK  Name = 
REMARK  3 active torsions:
REMARK  status: ('A' for Active; 'I' for Inactive)
REMARK    1  A    between atoms: C_1  and  O_2
REMARK    2  A    between atoms: O_2  and  C_3
REMARK    3  A    between atoms: N_11  and  C_12
REMARK                            x       y       z     vdW  Elec       q    Type
REMARK                         _______ _______ _______ _____ _____    ______ ____
ROOT
ATOM      1  C   UNL     1       6.472   5.031  15.958  0.00  0.00    +0.000 A 
ATOM      2  C   UNL     1       6.852   4.873  14.642  0.00  0.00    +0.000 A 
ATOM      3  C   UNL     1       7.884   5.539  13.973  0.00  0.00    +0.000 A 
ATOM      4  C   UNL     1       7.942   5.199  12.608  0.00  0.00    +0.000 A 
ATOM      5  C   UNL     1       7.065   4.263  11.992  0.00  0.00    +0.000 A 
ATOM      6  C   UNL     1       6.062   3.566  12.695  0.00  0.00    +0.000 A 
ATOM      7  C   UNL     1       5.969   3.903  14.057  0.00  0.00    +0.000 A 
ATOM      8  N   UNL     1       5.135   3.433  14.987  0.00  0.00    +0.000 NA
ATOM      9  N   UNL     1       5.421   4.114  16.138  0.00  0.00    +0.000 N 
ENDROOT
BRANCH   9  10
ATOM     10  C   UNL     1       4.614   3.857  17.299  0.00  0.00    +0.000 A 
ATOM     11  C   UNL     1       3.230   3.649  17.141  0.00  0.00    +0.000 A 
ATOM     12  C   UNL     1       2.407   3.416  18.249  0.00  0.00    +0.000 A 
ATOM     13  C   UNL     1       2.955   3.392  19.527  0.00  0.00    +0.000 A 
ATOM     14  I   UNL     1       1.742   3.053  21.178  0.00  0.00    +0.000 I 
ATOM     15  C   UNL     1       4.322   3.595  19.702  0.00  0.00    +0.000 A 
ATOM     16  C   UNL     1       5.148   3.822  18.593  0.00  0.00    +0.000 A 
ENDBRANCH   9  10
BRANCH   1  18
ATOM     17  C   UNL     1       6.272   7.079  17.104  0.00  0.00    +0.000 C 
ATOM     18  O   UNL     1       6.900   5.812  16.961  0.00  0.00    +0.000 OA
ENDBRANCH   1  18
TORSDOF 2
ENDMDL
MODEL 5
REMARK VINA RESULT:      -6.3      3.692      5.219
REMARK  Name = 
REMARK  3 active torsions:
REMARK  status: ('A' for Active; 'I' for Inactive)
REMARK    1  A    between atoms: C_1  and  O_2
REMARK    2  A    between atoms: O_2  and  C_3
REMARK    3  A    between atoms: N_11  and  C_12
REMARK                            x       y       z     vdW  Elec       q    Type
REMARK                         _______ _______ _______ _____ _____    ______ ____
ROOT
ATOM      1  C   UNL     1       6.296   5.162  15.795  0.00  0.00    +0.000 A 
ATOM      2  C   UNL     1       6.736   4.935  14.508  0.00  0.00    +0.000 A 
ATOM      3  C   UNL     1       7.798   5.564  13.853  0.00  0.00    +0.000 A 
ATOM      4  C   UNL     1       7.919   5.152  12.512  0.00  0.00    +0.000 A 
ATOM      5  C   UNL     1       7.069   4.184  11.907  0.00  0.00    +0.000 A 
ATOM      6  C   UNL     1       6.033   3.526  12.599  0.00  0.00    +0.000 A 
ATOM      7  C   UNL     1       5.878   3.934  13.935  0.00  0.00    +0.000 A 
ATOM      8  N   UNL     1       5.001   3.514  14.850  0.00  0.00    +0.000 NA
ATOM      9  N   UNL     1       5.236   4.256  15.975  0.00  0.00    +0.000 N 
ENDROOT
BRANCH   9  10
ATOM     10  C   UNL     1       4.375   4.060  17.109  0.00  0.00    +0.000 A 
ATOM     11  C   UNL     1       4.389   2.819  17.776  0.00  0.00    +0.000 A 
ATOM     12  C   UNL     1       3.550   2.582  18.871  0.00  0.00    +0.000 A 
ATOM     13  C   UNL     1       2.687   3.580  19.311  0.00  0.00    +0.000 A 
ATOM     14  I   UNL     1       1.435   3.237  20.932  0.00  0.00    +0.000 I 
ATOM     15  C   UNL     1       2.660   4.813  18.665  0.00  0.00    +0.000 A 
ATOM     16  C   UNL     1       3.503   5.053  17.572  0.00  0.00    +0.000 A 
ENDBRANCH   9  10
BRANCH   1  18
ATOM     17  C   UNL     1       7.482   5.446  17.810  0.00  0.00    +0.000 C 
ATOM     18  O   UNL     1       6.679   5.995  16.774  0.00  0.00    +0.000 OA
ENDBRANCH   1  18
TORSDOF 2
ENDMDL
MODEL 6
REMARK VINA RESULT:      -6.2      3.012      6.112
REMARK  Name = 
REMARK  3 active torsions:
REMARK  status: ('A' for Active; 'I' for Inactive)
REMARK    1  A    between atoms: C_1  and  O_2
REMARK    2  A    between atoms: O_2  and  C_3
REMARK    3  A    between atoms: N_11  and  C_12
REMARK                            x       y       z     vdW  Elec       q    Type
REMARK                         _______ _______ _______ _____ _____    ______ ____
ROOT
ATOM      1  C   UNL     1       2.214   6.839  19.998  0.00  0.00    +0.000 A 
ATOM      2  C   UNL     1       1.454   7.911  20.415  0.00  0.00    +0.000 A 
ATOM      3  C   UNL     1       0.774   8.047  21.628  0.00  0.00    +0.000 A 
ATOM      4  C   UNL     1       0.022   9.236  21.691  0.00  0.00    +0.000 A 
ATOM      5  C   UNL     1      -0.014  10.199  20.644  0.00  0.00    +0.000 A 
ATOM      6  C   UNL     1       0.717  10.067  19.446  0.00  0.00    +0.000 A 
ATOM      7  C   UNL     1       1.460   8.877  19.350  0.00  0.00    +0.000 A 
ATOM      8  N   UNL     1       2.246   8.451  18.359  0.00  0.00    +0.000 NA
ATOM      9  N   UNL     1       2.700   7.217  18.733  0.00  0.00    +0.000 N 
ENDROOT
BRANCH   9  10
ATOM     10  C   UNL     1       3.521   6.485  17.807  0.00  0.00    +0.000 A 
ATOM     11  C   UNL     1       4.473   7.179  17.036  0.00  0.00    +0.000 A 
ATOM     12  C   UNL     1       5.275   6.506  16.108  0.00  0.00    +0.000 A 
ATOM     13  C   UNL     1       5.136   5.133  15.938  0.00  0.00    +0.000 A 
ATOM     14  I   UNL     1       6.319   4.125  14.561  0.00  0.00    +0.000 I 
ATOM     15  C   UNL     1       4.200   4.429  16.692  0.00  0.00    +0.000 A 
ATOM     16  C   UNL     1       3.399   5.102  17.626  0.00  0.00    +0.000 A 
ENDBRANCH   9  10
BRANCH   1  18
ATOM     17  C   UNL     1       1.503   4.673  20.590  0.00  0.00    +0.000 C 
ATOM     18  O   UNL     1       2.529   5.656  20.545  0.00  0.00    +0.000 OA
ENDBRANCH   1  18
TORSDOF 2
ENDMDL
MODEL 7
REMARK VINA RESULT:      -6.2      1.201      1.471
REMARK  Name = 
REMARK  3 active torsions:
REMARK  status: ('A' for Active; 'I' for Inactive)
REMARK    1  A    between atoms: C_1  and  O_2
REMARK    2  A    between atoms: O_2  and  C_3
REMARK    3  A    between atoms: N_11  and  C_12
REMARK                            x       y       z     vdW  Elec       q    Type
REMARK                         _______ _______ _______ _____ _____    ______ ____
ROOT
ATOM      1  C   UNL     1       2.595   5.888  19.372  0.00  0.00    +0.000 A 
ATOM      2  C   UNL     1       3.449   5.443  18.386  0.00  0.00    +0.000 A 
ATOM      3  C   UNL     1       3.917   4.139  18.195  0.00  0.00    +0.000 A 
ATOM      4  C   UNL     1       4.846   4.053  17.141  0.00  0.00    +0.000 A 
ATOM      5  C   UNL     1       5.239   5.166  16.346  0.00  0.00    +0.000 A 
ATOM      6  C   UNL     1       4.719   6.464  16.523  0.00  0.00    +0.000 A 
ATOM      7  C   UNL     1       3.804   6.581  17.584  0.00  0.00    +0.000 A 
ATOM      8  N   UNL     1       3.142   7.659  18.012  0.00  0.00    +0.000 NA
ATOM      9  N   UNL     1       2.416   7.256  19.098  0.00  0.00    +0.000 N 
ENDROOT
BRANCH   9  10
ATOM     10  C   UNL     1       1.653   8.244  19.811  0.00  0.00    +0.000 A 
ATOM     11  C   UNL     1       1.163   9.367  19.115  0.00  0.00    +0.000 A 
ATOM     12  C   UNL     1       0.436  10.362  19.778  0.00  0.00    +0.000 A 
ATOM     13  C   UNL     1       0.191  10.249  21.143  0.00  0.00    +0.000 A 
ATOM     14  I   UNL     1      -0.883  11.722  22.136  0.00  0.00    +0.000 I 
ATOM     15  C   UNL     1       0.667   9.146  21.847  0.00  0.00    +0.000 A 
ATOM     16  C   UNL     1       1.391   8.146  21.183  0.00  0.00    +0.000 A 
ENDBRANCH   9  10
BRANCH   1  18
ATOM     17  C   UNL     1       1.060   4.256  20.102  0.00  0.00    +0.000 C 
ATOM     18  O   UNL     1       1.982   5.294  20.407  0.00  0.00    +0.000 OA
ENDBRANCH   1  18
TORSDOF 2
ENDMDL
MODEL 8
REMARK VINA RESULT:      -6.1      1.860      3.570
REMARK  Name = 
REMARK  3 active torsions:
REMARK  status: ('A' for Active; 'I' for Inactive)
REMARK    1  A    between atoms: C_1  and  O_2
REMARK    2  A    between atoms: O_2  and  C_3
REMARK    3  A    between atoms: N_11  and  C_12
REMARK                            x       y       z     vdW  Elec       q    Type
REMARK                         _______ _______ _______ _____ _____    ______ ____
ROOT
ATOM      1  C   UNL     1       3.056   5.869  18.812  0.00  0.00    +0.000 A 
ATOM      2  C   UNL     1       3.119   4.661  19.473  0.00  0.00    +0.000 A 
ATOM      3  C   UNL     1       3.814   3.514  19.078  0.00  0.00    +0.000 A 
ATOM      4  C   UNL     1       3.592   2.428  19.946  0.00  0.00    +0.000 A 
ATOM      5  C   UNL     1       2.775   2.505  21.108  0.00  0.00    +0.000 A 
ATOM      6  C   UNL     1       2.121   3.684  21.517  0.00  0.00    +0.000 A 
ATOM      7  C   UNL     1       2.310   4.779  20.654  0.00  0.00    +0.000 A 
ATOM      8  N   UNL     1       1.832   6.022  20.752  0.00  0.00    +0.000 NA
ATOM      9  N   UNL     1       2.266   6.688  19.640  0.00  0.00    +0.000 N 
ENDROOT
BRANCH   9  10
ATOM     10  C   UNL     1       1.833   8.045  19.448  0.00  0.00    +0.000 A 
ATOM     11  C   UNL     1       1.221   8.728  20.516  0.00  0.00    +0.000 A 
ATOM     12  C   UNL     1       0.766  10.043  20.362  0.00  0.00    +0.000 A 
ATOM     13  C   UNL     1       0.914  10.689  19.139  0.00  0.00    +0.000 A 
ATOM     14  I   UNL     1       0.238  12.637  18.899  0.00  0.00    +0.000 I 
ATOM     15  C   UNL     1       1.517  10.029  18.072  0.00  0.00    +0.000 A 
ATOM     16  C   UNL     1       1.978   8.714  18.226  0.00  0.00    +0.000 A 
ENDBRANCH   9  10
BRANCH   1  18
ATOM     17  C   UNL     1       4.977   6.519  17.615  0.00  0.00    +0.000 C 
ATOM     18  O   UNL     1       3.570   6.326  17.660  0.00  0.00    +0.000 OA
ENDBRANCH   1  18
TORSDOF 2
ENDMDL
MODEL 9
REMARK VINA RESULT:      -6.1      3.318      7.083
REMARK  Name = 
REMARK  3 active torsions:
REMARK  status: ('A' for Active; 'I' for Inactive)
REMARK    1  A    between atoms: C_1  and  O_2
REMARK    2  A    between atoms: O_2  and  C_3
REMARK    3  A    between atoms: N_11  and  C_12
REMARK                            x       y       z     vdW  Elec       q    Type
REMARK                         _______ _______ _______ _____ _____    ______ ____
ROOT
ATOM      1  C   UNL     1       0.956   9.688  19.480  0.00  0.00    +0.000 A 
ATOM      2  C   UNL     1       0.251  10.102  20.590  0.00  0.00    +0.000 A 
ATOM      3  C   UNL     1      -0.489  11.279  20.732  0.00  0.00    +0.000 A 
ATOM      4  C   UNL     1      -1.012  11.429  22.031  0.00  0.00    +0.000 A 
ATOM      5  C   UNL     1      -0.828  10.472  23.068  0.00  0.00    +0.000 A 
ATOM      6  C   UNL     1      -0.118   9.267  22.890  0.00  0.00    +0.000 A 
ATOM      7  C   UNL     1       0.432   9.104  21.607  0.00  0.00    +0.000 A 
ATOM      8  N   UNL     1       1.153   8.090  21.121  0.00  0.00    +0.000 NA
ATOM      9  N   UNL     1       1.484   8.435  19.840  0.00  0.00    +0.000 N 
ENDROOT
BRANCH   9  10
ATOM     10  C   UNL     1       2.332   7.545  19.094  0.00  0.00    +0.000 A 
ATOM     11  C   UNL     1       2.495   6.219  19.538  0.00  0.00    +0.000 A 
ATOM     12  C   UNL     1       3.329   5.329  18.852  0.00  0.00    +0.000 A 
ATOM     13  C   UNL     1       4.011   5.753  17.716  0.00  0.00    +0.000 A 
ATOM     14  I   UNL     1       5.254   4.441  16.694  0.00  0.00    +0.000 I 
ATOM     15  C   UNL     1       3.861   7.061  17.262  0.00  0.00    +0.000 A 
ATOM     16  C   UNL     1       3.022   7.952  17.946  0.00  0.00    +0.000 A 
ENDBRANCH   9  10
BRANCH   1  18
ATOM     17  C   UNL     1       2.006  11.373  18.212  0.00  0.00    +0.000 C 
ATOM     18  O   UNL     1       1.177  10.220  18.268  0.00  0.00    +0.000 OA
ENDBRANCH   1  18
TORSDOF 2
ENDMDL
