MODEL 1
REMARK VINA RESULT:      -8.2      0.000      0.000
REMARK  Name = 
REMARK  3 active torsions:
REMARK  status: ('A' for Active; 'I' for Inactive)
REMARK    1  A    between atoms: C_1  and  C_2
REMARK    2  A    between atoms: N_4  and  C_5
REMARK    3  A    between atoms: C_13  and  C_14
REMARK                            x       y       z     vdW  Elec       q    Type
REMARK                         _______ _______ _______ _____ _____    ______ ____
ROOT
ATOM      1  C   UNL     1       1.550   2.970  21.208  0.00  0.00    +0.000 C 
ATOM      2  C   UNL     1       2.236   4.078  20.489  0.00  0.00    +0.000 A 
ATOM      3  N   UNL     1       1.614   5.257  20.374  0.00  0.00    +0.000 NA
ATOM      4  N   UNL     1       2.467   6.060  19.669  0.00  0.00    +0.000 N 
ATOM      5  C   UNL     1       3.641   5.376  19.365  0.00  0.00    +0.000 A 
ATOM      6  N   UNL     1       4.723   5.881  18.710  0.00  0.00    +0.000 NA
ATOM      7  C   UNL     1       5.721   5.056  18.564  0.00  0.00    +0.000 A 
ATOM      8  N   UNL     1       5.693   3.742  19.032  0.00  0.00    +0.000 N 
ATOM      9  C   UNL     1       4.620   3.201  19.699  0.00  0.00    +0.000 A 
ATOM     10  S   UNL     1       4.617   1.640  20.247  0.00  0.00    +0.000 S 
ATOM     11  C   UNL     1       3.511   4.100  19.883  0.00  0.00    +0.000 A 
ATOM     12  H   UNL     1       6.503   3.147  18.887  0.00  0.00    +0.000 HD
ENDROOT
BRANCH   4  13
ATOM     13  C   UNL     1       2.093   7.405  19.358  0.00  0.00    +0.000 A 
ATOM     14  C   UNL     1       1.510   8.208  20.352  0.00  0.00    +0.000 A 
ATOM     15  C   UNL     1       1.154   9.533  20.077  0.00  0.00    +0.000 A 
ATOM     16  C   UNL     1       1.367  10.067  18.809  0.00  0.00    +0.000 A 
ATOM     17  C   UNL     1       1.932   9.278  17.813  0.00  0.00    +0.000 A 
ATOM     18  C   UNL     1       2.293   7.955  18.084  0.00  0.00    +0.000 A 
ENDBRANCH   4  13
BRANCH   7  19
ATOM     19  C   UNL     1       7.013   5.481  17.863  0.00  0.00    +0.000 C 
ATOM     20  F   UNL     1       6.764   5.953  16.607  0.00  0.00    +0.000 F 
ATOM     21  F   UNL     1       7.664   6.473  18.524  0.00  0.00    +0.000 F 
ATOM     22  F   UNL     1       7.891   4.453  17.721  0.00  0.00    +0.000 F 
ENDBRANCH   7  19
TORSDOF 2
ENDMDL
MODEL 2
REMARK VINA RESULT:      -8.2      0.375      1.117
REMARK  Name = 
REMARK  3 active torsions:
REMARK  status: ('A' for Active; 'I' for Inactive)
REMARK    1  A    between atoms: C_1  and  C_2
REMARK    2  A    between atoms: N_4  and  C_5
REMARK    3  A    between atoms: C_13  and  C_14
REMARK                            x       y       z     vdW  Elec       q    Type
REMARK                         _______ _______ _______ _____ _____    ______ ____
ROOT
ATOM      1  C   UNL     1       1.725   3.056  21.468  0.00  0.00    +0.000 C 
ATOM      2  C   UNL     1       2.321   4.142  20.643  0.00  0.00    +0.000 A 
ATOM      3  N   UNL     1       1.692   5.321  20.572  0.00  0.00    +0.000 NA
ATOM      4  N   UNL     1       2.454   6.100  19.748  0.00  0.00    +0.000 N 
ATOM      5  C   UNL     1       3.582   5.403  19.323  0.00  0.00    +0.000 A 
ATOM      6  N   UNL     1       4.578   5.885  18.529  0.00  0.00    +0.000 NA
ATOM      7  C   UNL     1       5.549   5.052  18.286  0.00  0.00    +0.000 A 
ATOM      8  N   UNL     1       5.577   3.751  18.788  0.00  0.00    +0.000 N 
ATOM      9  C   UNL     1       4.591   3.232  19.594  0.00  0.00    +0.000 A 
ATOM     10  S   UNL     1       4.651   1.686  20.179  0.00  0.00    +0.000 S 
ATOM     11  C   UNL     1       3.513   4.142  19.887  0.00  0.00    +0.000 A 
ATOM     12  H   UNL     1       6.361   3.148  18.562  0.00  0.00    +0.000 HD
ENDROOT
BRANCH   4  13
ATOM     13  C   UNL     1       2.048   7.439  19.448  0.00  0.00    +0.000 A 
ATOM     14  C   UNL     1       2.227   7.940  18.149  0.00  0.00    +0.000 A 
ATOM     15  C   UNL     1       1.820   9.240  17.828  0.00  0.00    +0.000 A 
ATOM     16  C   UNL     1       1.239  10.053  18.797  0.00  0.00    +0.000 A 
ATOM     17  C   UNL     1       1.067   9.571  20.091  0.00  0.00    +0.000 A 
ATOM     18  C   UNL     1       1.469   8.272  20.416  0.00  0.00    +0.000 A 
ENDBRANCH   4  13
BRANCH   7  19
ATOM     19  C   UNL     1       6.749   5.452  17.422  0.00  0.00    +0.000 C 
ATOM     20  F   UNL     1       6.406   6.406  16.509  0.00  0.00    +0.000 F 
ATOM     21  F   UNL     1       7.769   5.970  18.153  0.00  0.00    +0.000 F 
ATOM     22  F   UNL     1       7.253   4.407  16.716  0.00  0.00    +0.000 F 
ENDBRANCH   7  19
TORSDOF 2
ENDMDL
MODEL 3
REMARK VINA RESULT:      -7.8      1.192      1.429
REMARK  Name = 
REMARK  3 active torsions:
REMARK  status: ('A' for Active; 'I' for Inactive)
REMARK    1  A    between atoms: C_1  and  C_2
REMARK    2  A    between atoms: N_4  and  C_5
REMARK    3  A    between atoms: C_13  and  C_14
REMARK                            x       y       z     vdW  Elec       q    Type
REMARK                         _______ _______ _______ _____ _____    ______ ____
ROOT
ATOM      1  C   UNL     1       2.069   3.418  21.578  0.00  0.00    +0.000 C 
ATOM      2  C   UNL     1       2.408   4.432  20.543  0.00  0.00    +0.000 A 
ATOM      3  N   UNL     1       1.865   5.652  20.630  0.00  0.00    +0.000 NA
ATOM      4  N   UNL     1       2.343   6.349  19.556  0.00  0.00    +0.000 N 
ATOM      5  C   UNL     1       3.211   5.558  18.808  0.00  0.00    +0.000 A 
ATOM      6  N   UNL     1       3.900   5.942  17.697  0.00  0.00    +0.000 NA
ATOM      7  C   UNL     1       4.675   5.032  17.180  0.00  0.00    +0.000 A 
ATOM      8  N   UNL     1       4.795   3.748  17.710  0.00  0.00    +0.000 N 
ATOM      9  C   UNL     1       4.118   3.327  18.830  0.00  0.00    +0.000 A 
ATOM     10  S   UNL     1       4.283   1.798  19.440  0.00  0.00    +0.000 S 
ATOM     11  C   UNL     1       3.265   4.322  19.426  0.00  0.00    +0.000 A 
ATOM     12  H   UNL     1       5.417   3.082  17.261  0.00  0.00    +0.000 HD
ENDROOT
BRANCH   4  13
ATOM     13  C   UNL     1       1.940   7.706  19.344  0.00  0.00    +0.000 A 
ATOM     14  C   UNL     1       1.359   8.426  20.400  0.00  0.00    +0.000 A 
ATOM     15  C   UNL     1       0.974   9.760  20.222  0.00  0.00    +0.000 A 
ATOM     16  C   UNL     1       1.157  10.384  18.991  0.00  0.00    +0.000 A 
ATOM     17  C   UNL     1       1.721   9.676  17.934  0.00  0.00    +0.000 A 
ATOM     18  C   UNL     1       2.110   8.345  18.108  0.00  0.00    +0.000 A 
ENDBRANCH   4  13
BRANCH   7  19
ATOM     19  C   UNL     1       5.525   5.318  15.939  0.00  0.00    +0.000 C 
ATOM     20  F   UNL     1       5.138   6.474  15.328  0.00  0.00    +0.000 F 
ATOM     21  F   UNL     1       6.844   5.460  16.231  0.00  0.00    +0.000 F 
ATOM     22  F   UNL     1       5.427   4.336  15.005  0.00  0.00    +0.000 F 
ENDBRANCH   7  19
TORSDOF 2
ENDMDL
MODEL 4
REMARK VINA RESULT:      -7.7      1.255      1.863
REMARK  Name = 
REMARK  3 active torsions:
REMARK  status: ('A' for Active; 'I' for Inactive)
REMARK    1  A    between atoms: C_1  and  C_2
REMARK    2  A    between atoms: N_4  and  C_5
REMARK    3  A    between atoms: C_13  and  C_14
REMARK                            x       y       z     vdW  Elec       q    Type
REMARK                         _______ _______ _______ _____ _____    ______ ____
ROOT
ATOM      1  C   UNL     1       1.997   3.274  21.460  0.00  0.00    +0.000 C 
ATOM      2  C   UNL     1       2.344   4.324  20.464  0.00  0.00    +0.000 A 
ATOM      3  N   UNL     1       1.825   5.549  20.607  0.00  0.00    +0.000 NA
ATOM      4  N   UNL     1       2.304   6.281  19.557  0.00  0.00    +0.000 N 
ATOM      5  C   UNL     1       3.149   5.505  18.767  0.00  0.00    +0.000 A 
ATOM      6  N   UNL     1       3.833   5.922  17.665  0.00  0.00    +0.000 NA
ATOM      7  C   UNL     1       4.586   5.020  17.103  0.00  0.00    +0.000 A 
ATOM      8  N   UNL     1       4.688   3.713  17.578  0.00  0.00    +0.000 N 
ATOM      9  C   UNL     1       4.015   3.259  18.688  0.00  0.00    +0.000 A 
ATOM     10  S   UNL     1       4.157   1.703  19.233  0.00  0.00    +0.000 S 
ATOM     11  C   UNL     1       3.186   4.244  19.334  0.00  0.00    +0.000 A 
ATOM     12  H   UNL     1       5.291   3.055  17.096  0.00  0.00    +0.000 HD
ENDROOT
BRANCH   4  13
ATOM     13  C   UNL     1       1.924   7.652  19.405  0.00  0.00    +0.000 A 
ATOM     14  C   UNL     1       2.085   8.279  18.159  0.00  0.00    +0.000 A 
ATOM     15  C   UNL     1       1.703   9.614  17.981  0.00  0.00    +0.000 A 
ATOM     16  C   UNL     1       1.167  10.336  19.043  0.00  0.00    +0.000 A 
ATOM     17  C   UNL     1       1.014   9.729  20.285  0.00  0.00    +0.000 A 
ATOM     18  C   UNL     1       1.390   8.395  20.467  0.00  0.00    +0.000 A 
ENDBRANCH   4  13
BRANCH   7  19
ATOM     19  C   UNL     1       5.428   5.340  15.865  0.00  0.00    +0.000 C 
ATOM     20  F   UNL     1       5.301   4.371  14.914  0.00  0.00    +0.000 F 
ATOM     21  F   UNL     1       5.065   6.508  15.274  0.00  0.00    +0.000 F 
ATOM     22  F   UNL     1       6.754   5.432  16.147  0.00  0.00    +0.000 F 
ENDBRANCH   7  19
TORSDOF 2
ENDMDL
MODEL 5
REMARK VINA RESULT:      -7.6      0.847      1.635
REMARK  Name = 
REMARK  3 active torsions:
REMARK  status: ('A' for Active; 'I' for Inactive)
REMARK    1  A    between atoms: C_1  and  C_2
REMARK    2  A    between atoms: N_4  and  C_5
REMARK    3  A    between atoms: C_13  and  C_14
REMARK                            x       y       z     vdW  Elec       q    Type
REMARK                         _______ _______ _______ _____ _____    ______ ____
ROOT
ATOM      1  C   UNL     1       1.057   2.489  19.417  0.00  0.00    +0.000 C 
ATOM      2  C   UNL     1       1.897   3.713  19.309  0.00  0.00    +0.000 A 
ATOM      3  N   UNL     1       1.306   4.912  19.368  0.00  0.00    +0.000 NA
ATOM      4  N   UNL     1       2.310   5.829  19.231  0.00  0.00    +0.000 N 
ATOM      5  C   UNL     1       3.541   5.190  19.110  0.00  0.00    +0.000 A 
ATOM      6  N   UNL     1       4.757   5.794  19.000  0.00  0.00    +0.000 NA
ATOM      7  C   UNL     1       5.776   4.985  18.926  0.00  0.00    +0.000 A 
ATOM      8  N   UNL     1       5.645   3.597  18.946  0.00  0.00    +0.000 N 
ATOM      9  C   UNL     1       4.435   2.954  19.060  0.00  0.00    +0.000 A 
ATOM     10  S   UNL     1       4.311   1.305  19.086  0.00  0.00    +0.000 S 
ATOM     11  C   UNL     1       3.296   3.830  19.157  0.00  0.00    +0.000 A 
ATOM     12  H   UNL     1       6.478   3.019  18.884  0.00  0.00    +0.000 HD
ENDROOT
BRANCH   4  13
ATOM     13  C   UNL     1       2.010   7.228  19.239  0.00  0.00    +0.000 A 
ATOM     14  C   UNL     1       2.178   7.977  18.063  0.00  0.00    +0.000 A 
ATOM     15  C   UNL     1       1.873   9.342  18.041  0.00  0.00    +0.000 A 
ATOM     16  C   UNL     1       1.406   9.975  19.190  0.00  0.00    +0.000 A 
ATOM     17  C   UNL     1       1.247   9.246  20.364  0.00  0.00    +0.000 A 
ATOM     18  C   UNL     1       1.547   7.881  20.390  0.00  0.00    +0.000 A 
ENDBRANCH   4  13
BRANCH   7  19
ATOM     19  C   UNL     1       7.209   5.513  18.813  0.00  0.00    +0.000 C 
ATOM     20  F   UNL     1       7.734   5.787  20.042  0.00  0.00    +0.000 F 
ATOM     21  F   UNL     1       8.049   4.622  18.227  0.00  0.00    +0.000 F 
ATOM     22  F   UNL     1       7.284   6.665  18.096  0.00  0.00    +0.000 F 
ENDBRANCH   7  19
TORSDOF 2
ENDMDL
MODEL 6
REMARK VINA RESULT:      -7.4      3.420      4.505
REMARK  Name = 
REMARK  3 active torsions:
REMARK  status: ('A' for Active; 'I' for Inactive)
REMARK    1  A    between atoms: C_1  and  C_2
REMARK    2  A    between atoms: N_4  and  C_5
REMARK    3  A    between atoms: C_13  and  C_14
REMARK                            x       y       z     vdW  Elec       q    Type
REMARK                         _______ _______ _______ _____ _____    ______ ____
ROOT
ATOM      1  C   UNL     1       5.550   6.926  16.229  0.00  0.00    +0.000 C 
ATOM      2  C   UNL     1       4.401   6.672  17.141  0.00  0.00    +0.000 A 
ATOM      3  N   UNL     1       3.775   7.715  17.699  0.00  0.00    +0.000 NA
ATOM      4  N   UNL     1       2.789   7.182  18.481  0.00  0.00    +0.000 N 
ATOM      5  C   UNL     1       2.790   5.792  18.387  0.00  0.00    +0.000 A 
ATOM      6  N   UNL     1       1.920   4.941  18.997  0.00  0.00    +0.000 NA
ATOM      7  C   UNL     1       2.102   3.677  18.738  0.00  0.00    +0.000 A 
ATOM      8  N   UNL     1       3.119   3.213  17.903  0.00  0.00    +0.000 N 
ATOM      9  C   UNL     1       4.012   4.044  17.268  0.00  0.00    +0.000 A 
ATOM     10  S   UNL     1       5.206   3.465  16.280  0.00  0.00    +0.000 S 
ATOM     11  C   UNL     1       3.820   5.446  17.531  0.00  0.00    +0.000 A 
ATOM     12  H   UNL     1       3.210   2.216  17.740  0.00  0.00    +0.000 HD
ENDROOT
BRANCH   4  13
ATOM     13  C   UNL     1       1.930   8.040  19.237  0.00  0.00    +0.000 A 
ATOM     14  C   UNL     1       1.326   9.140  18.607  0.00  0.00    +0.000 A 
ATOM     15  C   UNL     1       0.466   9.983  19.322  0.00  0.00    +0.000 A 
ATOM     16  C   UNL     1       0.209   9.743  20.668  0.00  0.00    +0.000 A 
ATOM     17  C   UNL     1       0.811   8.662  21.305  0.00  0.00    +0.000 A 
ATOM     18  C   UNL     1       1.667   7.816  20.596  0.00  0.00    +0.000 A 
ENDBRANCH   4  13
BRANCH   7  19
ATOM     19  C   UNL     1       1.195   2.599  19.338  0.00  0.00    +0.000 C 
ATOM     20  F   UNL     1       0.115   2.361  18.540  0.00  0.00    +0.000 F 
ATOM     21  F   UNL     1       1.830   1.409  19.491  0.00  0.00    +0.000 F 
ATOM     22  F   UNL     1       0.705   2.950  20.555  0.00  0.00    +0.000 F 
ENDBRANCH   7  19
TORSDOF 2
ENDMDL
MODEL 7
REMARK VINA RESULT:      -7.4      3.415      4.428
REMARK  Name = 
REMARK  3 active torsions:
REMARK  status: ('A' for Active; 'I' for Inactive)
REMARK    1  A    between atoms: C_1  and  C_2
REMARK    2  A    between atoms: N_4  and  C_5
REMARK    3  A    between atoms: C_13  and  C_14
REMARK                            x       y       z     vdW  Elec       q    Type
REMARK                         _______ _______ _______ _____ _____    ______ ____
ROOT
ATOM      1  C   UNL     1       5.548   6.979  16.265  0.00  0.00    +0.000 C 
ATOM      2  C   UNL     1       4.394   6.711  17.166  0.00  0.00    +0.000 A 
ATOM      3  N   UNL     1       3.752   7.746  17.721  0.00  0.00    +0.000 NA
ATOM      4  N   UNL     1       2.765   7.201  18.493  0.00  0.00    +0.000 N 
ATOM      5  C   UNL     1       2.781   5.812  18.396  0.00  0.00    +0.000 A 
ATOM      6  N   UNL     1       1.915   4.950  18.997  0.00  0.00    +0.000 NA
ATOM      7  C   UNL     1       2.112   3.689  18.737  0.00  0.00    +0.000 A 
ATOM      8  N   UNL     1       3.140   3.237  17.910  0.00  0.00    +0.000 N 
ATOM      9  C   UNL     1       4.031   4.078  17.285  0.00  0.00    +0.000 A 
ATOM     10  S   UNL     1       5.239   3.514  16.305  0.00  0.00    +0.000 S 
ATOM     11  C   UNL     1       3.822   5.478  17.548  0.00  0.00    +0.000 A 
ATOM     12  H   UNL     1       3.244   2.241  17.745  0.00  0.00    +0.000 HD
ENDROOT
BRANCH   4  13
ATOM     13  C   UNL     1       1.890   8.049  19.243  0.00  0.00    +0.000 A 
ATOM     14  C   UNL     1       1.660   7.774  20.601  0.00  0.00    +0.000 A 
ATOM     15  C   UNL     1       0.823   8.600  21.360  0.00  0.00    +0.000 A 
ATOM     16  C   UNL     1       0.204   9.700  20.773  0.00  0.00    +0.000 A 
ATOM     17  C   UNL     1       0.416   9.975  19.425  0.00  0.00    +0.000 A 
ATOM     18  C   UNL     1       1.253   9.155  18.664  0.00  0.00    +0.000 A 
ENDBRANCH   4  13
BRANCH   7  19
ATOM     19  C   UNL     1       1.211   2.600  19.326  0.00  0.00    +0.000 C 
ATOM     20  F   UNL     1       0.739   2.958  20.555  0.00  0.00    +0.000 F 
ATOM     21  F   UNL     1       0.122   2.350  18.554  0.00  0.00    +0.000 F 
ATOM     22  F   UNL     1       1.863   1.420  19.492  0.00  0.00    +0.000 F 
ENDBRANCH   7  19
TORSDOF 2
ENDMDL
MODEL 8
REMARK VINA RESULT:      -7.3      3.265      4.345
REMARK  Name = 
REMARK  3 active torsions:
REMARK  status: ('A' for Active; 'I' for Inactive)
REMARK    1  A    between atoms: C_1  and  C_2
REMARK    2  A    between atoms: N_4  and  C_5
REMARK    3  A    between atoms: C_13  and  C_14
REMARK                            x       y       z     vdW  Elec       q    Type
REMARK                         _______ _______ _______ _____ _____    ______ ____
ROOT
ATOM      1  C   UNL     1       4.954   7.031  16.112  0.00  0.00    +0.000 C 
ATOM      2  C   UNL     1       4.031   6.806  17.258  0.00  0.00    +0.000 A 
ATOM      3  N   UNL     1       3.352   7.846  17.756  0.00  0.00    +0.000 NA
ATOM      4  N   UNL     1       2.609   7.345  18.788  0.00  0.00    +0.000 N 
ATOM      5  C   UNL     1       2.814   5.973  18.915  0.00  0.00    +0.000 A 
ATOM      6  N   UNL     1       2.204   5.145  19.809  0.00  0.00    +0.000 NA
ATOM      7  C   UNL     1       2.537   3.889  19.720  0.00  0.00    +0.000 A 
ATOM      8  N   UNL     1       3.457   3.411  18.788  0.00  0.00    +0.000 N 
ATOM      9  C   UNL     1       4.088   4.217  17.869  0.00  0.00    +0.000 A 
ATOM     10  S   UNL     1       5.173   3.623  16.771  0.00  0.00    +0.000 S 
ATOM     11  C   UNL     1       3.725   5.609  17.941  0.00  0.00    +0.000 A 
ATOM     12  H   UNL     1       3.676   2.420  18.768  0.00  0.00    +0.000 HD
ENDROOT
BRANCH   4  13
ATOM     13  C   UNL     1       1.766   8.212  19.552  0.00  0.00    +0.000 A 
ATOM     14  C   UNL     1       1.216   9.352  18.944  0.00  0.00    +0.000 A 
ATOM     15  C   UNL     1       0.373  10.205  19.666  0.00  0.00    +0.000 A 
ATOM     16  C   UNL     1       0.078   9.934  20.999  0.00  0.00    +0.000 A 
ATOM     17  C   UNL     1       0.626   8.814  21.615  0.00  0.00    +0.000 A 
ATOM     18  C   UNL     1       1.466   7.957  20.898  0.00  0.00    +0.000 A 
ENDBRANCH   4  13
BRANCH   7  19
ATOM     19  C   UNL     1       1.926   2.833  20.646  0.00  0.00    +0.000 C 
ATOM     20  F   UNL     1       2.793   2.483  21.639  0.00  0.00    +0.000 F 
ATOM     21  F   UNL     1       0.795   3.268  21.259  0.00  0.00    +0.000 F 
ATOM     22  F   UNL     1       1.609   1.687  19.989  0.00  0.00    +0.000 F 
ENDBRANCH   7  19
TORSDOF 2
ENDMDL
MODEL 9
REMARK VINA RESULT:      -7.2      3.548      5.758
REMARK  Name = 
REMARK  3 active torsions:
REMARK  status: ('A' for Active; 'I' for Inactive)
REMARK    1  A    between atoms: C_1  and  C_2
REMARK    2  A    between atoms: N_4  and  C_5
REMARK    3  A    between atoms: C_13  and  C_14
REMARK                            x       y       z     vdW  Elec       q    Type
REMARK                         _______ _______ _______ _____ _____    ______ ____
ROOT
ATOM      1  C   UNL     1       2.373   9.360  18.180  0.00  0.00    +0.000 C 
ATOM      2  C   UNL     1       2.812   7.938  18.194  0.00  0.00    +0.000 A 
ATOM      3  N   UNL     1       3.601   7.494  17.209  0.00  0.00    +0.000 NA
ATOM      4  N   UNL     1       3.824   6.173  17.479  0.00  0.00    +0.000 N 
ATOM      5  C   UNL     1       3.185   5.801  18.659  0.00  0.00    +0.000 A 
ATOM      6  N   UNL     1       3.227   4.574  19.248  0.00  0.00    +0.000 NA
ATOM      7  C   UNL     1       2.569   4.470  20.367  0.00  0.00    +0.000 A 
ATOM      8  N   UNL     1       1.857   5.529  20.929  0.00  0.00    +0.000 N 
ATOM      9  C   UNL     1       1.795   6.781  20.364  0.00  0.00    +0.000 A 
ATOM     10  S   UNL     1       0.946   8.021  21.055  0.00  0.00    +0.000 S 
ATOM     11  C   UNL     1       2.528   6.922  19.132  0.00  0.00    +0.000 A 
ATOM     12  H   UNL     1       1.362   5.386  21.804  0.00  0.00    +0.000 HD
ENDROOT
BRANCH   4  13
ATOM     13  C   UNL     1       4.633   5.388  16.598  0.00  0.00    +0.000 A 
ATOM     14  C   UNL     1       5.369   6.024  15.585  0.00  0.00    +0.000 A 
ATOM     15  C   UNL     1       6.182   5.279  14.723  0.00  0.00    +0.000 A 
ATOM     16  C   UNL     1       6.263   3.896  14.857  0.00  0.00    +0.000 A 
ATOM     17  C   UNL     1       5.530   3.254  15.850  0.00  0.00    +0.000 A 
ATOM     18  C   UNL     1       4.719   3.993  16.715  0.00  0.00    +0.000 A 
ENDBRANCH   4  13
BRANCH   7  19
ATOM     19  C   UNL     1       2.534   3.158  21.155  0.00  0.00    +0.000 C 
ATOM     20  F   UNL     1       1.537   2.339  20.713  0.00  0.00    +0.000 F 
ATOM     21  F   UNL     1       3.689   2.452  21.044  0.00  0.00    +0.000 F 
ATOM     22  F   UNL     1       2.312   3.354  22.482  0.00  0.00    +0.000 F 
ENDBRANCH   7  19
TORSDOF 2
ENDMDL
