MODEL 1
REMARK VINA RESULT:      -9.1      0.000      0.000
REMARK  Name = 
REMARK  9 active torsions:
REMARK  status: ('A' for Active; 'I' for Inactive)
REMARK    1  A    between atoms: C_2  and  O_3
REMARK    2  A    between atoms: C_2  and  C_4
REMARK    3  A    between atoms: C_6  and  N_7
REMARK    4  A    between atoms: C_12  and  N_13
REMARK    5  A    between atoms: N_13  and  C_14
REMARK    6  A    between atoms: C_17  and  C_18
REMARK    7  A    between atoms: C_18  and  C_19
REMARK    8  A    between atoms: C_19  and  C_20
REMARK    9  A    between atoms: C_25  and  C_26
REMARK                            x       y       z     vdW  Elec       q    Type
REMARK                         _______ _______ _______ _____ _____    ______ ____
ROOT
ATOM      1  C   UNL     1       1.974   6.670  19.769  0.00  0.00    +0.000 A 
ATOM      2  C   UNL     1       2.085   6.384  18.409  0.00  0.00    +0.000 A 
ATOM      3  C   UNL     1       1.929   5.075  17.942  0.00  0.00    +0.000 A 
ATOM      4  C   UNL     1       1.701   4.012  18.829  0.00  0.00    +0.000 A 
ATOM      5  C   UNL     1       1.557   4.303  20.186  0.00  0.00    +0.000 A 
ATOM      6  C   UNL     1       1.741   5.606  20.650  0.00  0.00    +0.000 A 
ENDROOT
BRANCH   1   7
ATOM      7  N   UNL     1       2.230   8.001  20.206  0.00  0.00    +0.000 N 
ATOM      8  H   UNL     1       3.036   7.946  20.843  0.00  0.00    +0.000 HD
BRANCH   7  14
ATOM      9  C   UNL     1       0.660   9.902  19.867  0.00  0.00    +0.000 A 
ATOM     10  C   UNL     1      -0.255  10.830  20.405  0.00  0.00    +0.000 A 
ATOM     11  C   UNL     1      -0.584  10.782  21.762  0.00  0.00    +0.000 A 
ATOM     12  C   UNL     1      -0.062   9.776  22.576  0.00  0.00    +0.000 A 
ATOM     13  C   UNL     1       0.804   8.837  22.023  0.00  0.00    +0.000 A 
ATOM     14  C   UNL     1       1.271   8.934  20.702  0.00  0.00    +0.000 A 
BRANCH  11  15
ATOM     15  N   UNL     1      -1.499  11.769  22.351  0.00  0.00    +0.000 N 
ATOM     16  O   UNL     1      -2.385  12.228  21.617  0.00  0.00    +0.000 OA
ATOM     17  O   UNL     1      -1.324  12.080  23.534  0.00  0.00    +0.000 OA
ENDBRANCH  11  15
BRANCH   9  19
ATOM     18  O   UNL     1       2.051  10.141  17.950  0.00  0.00    +0.000 OA
ATOM     19  C   UNL     1       0.925  10.018  18.406  0.00  0.00    +0.000 C 
BRANCH  19  20
ATOM     20  O   UNL     1      -0.180  10.014  17.635  0.00  0.00    +0.000 OA
ATOM     21  H   UNL     1      -1.014   9.878  18.134  0.00  0.00    +0.000 HD
ENDBRANCH  19  20
ENDBRANCH   9  19
ENDBRANCH   7  14
ENDBRANCH   1   7
BRANCH   4  22
ATOM     22  C   UNL     1       1.631   2.573  18.371  0.00  0.00    +0.000 C 
BRANCH  22  23
ATOM     23  C   UNL     1       3.016   1.955  18.152  0.00  0.00    +0.000 C 
BRANCH  23  24
ATOM     24  C   UNL     1       4.111   2.979  18.034  0.00  0.00    +0.000 A 
ATOM     25  C   UNL     1       4.778   3.436  19.169  0.00  0.00    +0.000 A 
ATOM     26  C   UNL     1       5.757   4.418  19.048  0.00  0.00    +0.000 A 
ATOM     27  C   UNL     1       6.083   4.958  17.795  0.00  0.00    +0.000 A 
ATOM     28 CL   UNL     1       7.296   6.182  17.784  0.00  0.00    +0.000 Cl
ATOM     29  C   UNL     1       5.437   4.506  16.640  0.00  0.00    +0.000 A 
ATOM     30  C   UNL     1       4.453   3.504  16.780  0.00  0.00    +0.000 A 
BRANCH  29  31
ATOM     31  C   UNL     1       5.700   5.022  15.249  0.00  0.00    +0.000 C 
ATOM     32  F   UNL     1       6.998   5.078  14.853  0.00  0.00    +0.000 F 
ATOM     33  F   UNL     1       5.065   4.268  14.304  0.00  0.00    +0.000 F 
ATOM     34  F   UNL     1       5.215   6.287  15.082  0.00  0.00    +0.000 F 
ENDBRANCH  29  31
ENDBRANCH  23  24
ENDBRANCH  22  23
ENDBRANCH   4  22
TORSDOF 9
ENDMDL
MODEL 2
REMARK VINA RESULT:      -9.0      1.428      2.324
REMARK  Name = 
REMARK  9 active torsions:
REMARK  status: ('A' for Active; 'I' for Inactive)
REMARK    1  A    between atoms: C_2  and  O_3
REMARK    2  A    between atoms: C_2  and  C_4
REMARK    3  A    between atoms: C_6  and  N_7
REMARK    4  A    between atoms: C_12  and  N_13
REMARK    5  A    between atoms: N_13  and  C_14
REMARK    6  A    between atoms: C_17  and  C_18
REMARK    7  A    between atoms: C_18  and  C_19
REMARK    8  A    between atoms: C_19  and  C_20
REMARK    9  A    between atoms: C_25  and  C_26
REMARK                            x       y       z     vdW  Elec       q    Type
REMARK                         _______ _______ _______ _____ _____    ______ ____
ROOT
ATOM      1  C   UNL     1       1.828   6.731  19.908  0.00  0.00    +0.000 A 
ATOM      2  C   UNL     1       2.023   6.526  18.543  0.00  0.00    +0.000 A 
ATOM      3  C   UNL     1       1.979   5.237  18.003  0.00  0.00    +0.000 A 
ATOM      4  C   UNL     1       1.783   4.115  18.822  0.00  0.00    +0.000 A 
ATOM      5  C   UNL     1       1.554   4.322  20.183  0.00  0.00    +0.000 A 
ATOM      6  C   UNL     1       1.627   5.608  20.721  0.00  0.00    +0.000 A 
ENDROOT
BRANCH   1   7
ATOM      7  N   UNL     1       1.972   8.051  20.424  0.00  0.00    +0.000 N 
ATOM      8  H   UNL     1       2.233   7.947  21.414  0.00  0.00    +0.000 HD
BRANCH   7  14
ATOM      9  C   UNL     1       0.543   9.855  21.371  0.00  0.00    +0.000 A 
ATOM     10  C   UNL     1      -0.391  10.893  21.172  0.00  0.00    +0.000 A 
ATOM     11  C   UNL     1      -0.796  11.231  19.878  0.00  0.00    +0.000 A 
ATOM     12  C   UNL     1      -0.230  10.591  18.775  0.00  0.00    +0.000 A 
ATOM     13  C   UNL     1       0.726   9.601  18.982  0.00  0.00    +0.000 A 
ATOM     14  C   UNL     1       1.055   9.132  20.265  0.00  0.00    +0.000 A 
BRANCH  11  15
ATOM     15  N   UNL     1      -1.802  12.277  19.653  0.00  0.00    +0.000 N 
ATOM     16  O   UNL     1      -1.528  13.420  20.046  0.00  0.00    +0.000 OA
ATOM     17  O   UNL     1      -2.855  11.951  19.094  0.00  0.00    +0.000 OA
ENDBRANCH  11  15
BRANCH   9  19
ATOM     18  O   UNL     1       0.149   9.701  23.713  0.00  0.00    +0.000 OA
ATOM     19  C   UNL     1       0.932   9.588  22.784  0.00  0.00    +0.000 C 
BRANCH  19  20
ATOM     20  O   UNL     1       2.225   9.249  22.954  0.00  0.00    +0.000 OA
ATOM     21  H   UNL     1       2.387   8.674  23.733  0.00  0.00    +0.000 HD
ENDBRANCH  19  20
ENDBRANCH   9  19
ENDBRANCH   7  14
ENDBRANCH   1   7
BRANCH   4  22
ATOM     22  C   UNL     1       1.832   2.701  18.289  0.00  0.00    +0.000 C 
BRANCH  22  23
ATOM     23  C   UNL     1       3.255   2.134  18.254  0.00  0.00    +0.000 C 
BRANCH  23  24
ATOM     24  C   UNL     1       4.310   3.186  18.050  0.00  0.00    +0.000 A 
ATOM     25  C   UNL     1       5.001   3.716  19.137  0.00  0.00    +0.000 A 
ATOM     26  C   UNL     1       5.941   4.724  18.936  0.00  0.00    +0.000 A 
ATOM     27  C   UNL     1       6.202   5.216  17.648  0.00  0.00    +0.000 A 
ATOM     28 CL   UNL     1       7.371   6.477  17.536  0.00  0.00    +0.000 Cl
ATOM     29  C   UNL     1       5.531   4.690  16.539  0.00  0.00    +0.000 A 
ATOM     30  C   UNL     1       4.588   3.663  16.761  0.00  0.00    +0.000 A 
BRANCH  29  31
ATOM     31  C   UNL     1       5.726   5.150  15.118  0.00  0.00    +0.000 C 
ATOM     32  F   UNL     1       5.251   6.382  14.804  0.00  0.00    +0.000 F 
ATOM     33  F   UNL     1       7.047   5.172  14.774  0.00  0.00    +0.000 F 
ATOM     34  F   UNL     1       5.140   4.297  14.228  0.00  0.00    +0.000 F 
ENDBRANCH  29  31
ENDBRANCH  23  24
ENDBRANCH  22  23
ENDBRANCH   4  22
TORSDOF 9
ENDMDL
MODEL 3
REMARK VINA RESULT:      -8.9      1.472      2.400
REMARK  Name = 
REMARK  9 active torsions:
REMARK  status: ('A' for Active; 'I' for Inactive)
REMARK    1  A    between atoms: C_2  and  O_3
REMARK    2  A    between atoms: C_2  and  C_4
REMARK    3  A    between atoms: C_6  and  N_7
REMARK    4  A    between atoms: C_12  and  N_13
REMARK    5  A    between atoms: N_13  and  C_14
REMARK    6  A    between atoms: C_17  and  C_18
REMARK    7  A    between atoms: C_18  and  C_19
REMARK    8  A    between atoms: C_19  and  C_20
REMARK    9  A    between atoms: C_25  and  C_26
REMARK                            x       y       z     vdW  Elec       q    Type
REMARK                         _______ _______ _______ _____ _____    ______ ____
ROOT
ATOM      1  C   UNL     1       1.912   6.856  20.081  0.00  0.00    +0.000 A 
ATOM      2  C   UNL     1       1.598   5.736  20.851  0.00  0.00    +0.000 A 
ATOM      3  C   UNL     1       1.542   4.466  20.270  0.00  0.00    +0.000 A 
ATOM      4  C   UNL     1       1.756   4.288  18.895  0.00  0.00    +0.000 A 
ATOM      5  C   UNL     1       2.103   5.402  18.131  0.00  0.00    +0.000 A 
ATOM      6  C   UNL     1       2.130   6.672  18.710  0.00  0.00    +0.000 A 
ENDROOT
BRANCH   1   7
ATOM      7  N   UNL     1       1.868   8.139  20.698  0.00  0.00    +0.000 N 
ATOM      8  H   UNL     1       1.909   7.973  21.712  0.00  0.00    +0.000 HD
BRANCH   7  14
ATOM      9  C   UNL     1       0.207   9.847  21.417  0.00  0.00    +0.000 A 
ATOM     10  C   UNL     1      -0.714  10.860  21.080  0.00  0.00    +0.000 A 
ATOM     11  C   UNL     1      -0.876  11.242  19.746  0.00  0.00    +0.000 A 
ATOM     12  C   UNL     1      -0.081  10.674  18.750  0.00  0.00    +0.000 A 
ATOM     13  C   UNL     1       0.859   9.709  19.102  0.00  0.00    +0.000 A 
ATOM     14  C   UNL     1       0.953   9.194  20.405  0.00  0.00    +0.000 A 
BRANCH  11  15
ATOM     15  N   UNL     1      -1.863  12.263  19.370  0.00  0.00    +0.000 N 
ATOM     16  O   UNL     1      -1.616  13.435  19.686  0.00  0.00    +0.000 OA
ATOM     17  O   UNL     1      -2.877  11.888  18.768  0.00  0.00    +0.000 OA
ENDBRANCH  11  15
BRANCH   9  19
ATOM     18  O   UNL     1       1.395   9.546  23.457  0.00  0.00    +0.000 OA
ATOM     19  C   UNL     1       0.327   9.529  22.867  0.00  0.00    +0.000 C 
BRANCH  19  20
ATOM     20  O   UNL     1      -0.832   9.184  23.462  0.00  0.00    +0.000 OA
ATOM     21  H   UNL     1      -0.755   8.419  24.071  0.00  0.00    +0.000 HD
ENDBRANCH  19  20
ENDBRANCH   9  19
ENDBRANCH   7  14
ENDBRANCH   1   7
BRANCH   4  22
ATOM     22  C   UNL     1       1.602   2.946  18.215  0.00  0.00    +0.000 C 
BRANCH  22  23
ATOM     23  C   UNL     1       2.939   2.221  18.031  0.00  0.00    +0.000 C 
BRANCH  23  24
ATOM     24  C   UNL     1       4.108   3.158  17.887  0.00  0.00    +0.000 A 
ATOM     25  C   UNL     1       4.844   3.548  19.003  0.00  0.00    +0.000 A 
ATOM     26  C   UNL     1       5.893   4.453  18.859  0.00  0.00    +0.000 A 
ATOM     27  C   UNL     1       6.220   4.979  17.601  0.00  0.00    +0.000 A 
ATOM     28 CL   UNL     1       7.525   6.104  17.561  0.00  0.00    +0.000 Cl
ATOM     29  C   UNL     1       5.504   4.592  16.463  0.00  0.00    +0.000 A 
ATOM     30  C   UNL     1       4.449   3.668  16.627  0.00  0.00    +0.000 A 
BRANCH  29  31
ATOM     31  C   UNL     1       5.763   5.101  15.069  0.00  0.00    +0.000 C 
ATOM     32  F   UNL     1       7.060   5.179  14.677  0.00  0.00    +0.000 F 
ATOM     33  F   UNL     1       5.146   4.327  14.128  0.00  0.00    +0.000 F 
ATOM     34  F   UNL     1       5.254   6.355  14.889  0.00  0.00    +0.000 F 
ENDBRANCH  29  31
ENDBRANCH  23  24
ENDBRANCH  22  23
ENDBRANCH   4  22
TORSDOF 9
ENDMDL
MODEL 4
REMARK VINA RESULT:      -8.9      5.514      9.238
REMARK  Name = 
REMARK  9 active torsions:
REMARK  status: ('A' for Active; 'I' for Inactive)
REMARK    1  A    between atoms: C_2  and  O_3
REMARK    2  A    between atoms: C_2  and  C_4
REMARK    3  A    between atoms: C_6  and  N_7
REMARK    4  A    between atoms: C_12  and  N_13
REMARK    5  A    between atoms: N_13  and  C_14
REMARK    6  A    between atoms: C_17  and  C_18
REMARK    7  A    between atoms: C_18  and  C_19
REMARK    8  A    between atoms: C_19  and  C_20
REMARK    9  A    between atoms: C_25  and  C_26
REMARK                            x       y       z     vdW  Elec       q    Type
REMARK                         _______ _______ _______ _____ _____    ______ ____
ROOT
ATOM      1  C   UNL     1       3.324   5.774  19.176  0.00  0.00    +0.000 A 
ATOM      2  C   UNL     1       2.581   5.556  20.337  0.00  0.00    +0.000 A 
ATOM      3  C   UNL     1       1.706   6.535  20.816  0.00  0.00    +0.000 A 
ATOM      4  C   UNL     1       1.583   7.774  20.171  0.00  0.00    +0.000 A 
ATOM      5  C   UNL     1       2.299   7.981  18.992  0.00  0.00    +0.000 A 
ATOM      6  C   UNL     1       3.193   7.011  18.533  0.00  0.00    +0.000 A 
ENDROOT
BRANCH   1   7
ATOM      7  N   UNL     1       4.268   4.785  18.778  0.00  0.00    +0.000 N 
ATOM      8  H   UNL     1       4.871   4.616  19.595  0.00  0.00    +0.000 HD
BRANCH   7  14
ATOM      9  C   UNL     1       6.380   5.254  17.547  0.00  0.00    +0.000 A 
ATOM     10  C   UNL     1       7.099   5.268  16.335  0.00  0.00    +0.000 A 
ATOM     11  C   UNL     1       6.505   4.790  15.163  0.00  0.00    +0.000 A 
ATOM     12  C   UNL     1       5.225   4.235  15.200  0.00  0.00    +0.000 A 
ATOM     13  C   UNL     1       4.543   4.184  16.413  0.00  0.00    +0.000 A 
ATOM     14  C   UNL     1       5.044   4.782  17.581  0.00  0.00    +0.000 A 
BRANCH  11  15
ATOM     15  N   UNL     1       7.221   4.839  13.882  0.00  0.00    +0.000 N 
ATOM     16  O   UNL     1       8.171   5.630  13.793  0.00  0.00    +0.000 OA
ATOM     17  O   UNL     1       6.829   4.095  12.976  0.00  0.00    +0.000 OA
ENDBRANCH  11  15
BRANCH   9  19
ATOM     18  O   UNL     1       7.927   6.661  18.682  0.00  0.00    +0.000 OA
ATOM     19  C   UNL     1       7.107   5.760  18.744  0.00  0.00    +0.000 C 
BRANCH  19  20
ATOM     20  O   UNL     1       6.814   5.115  19.891  0.00  0.00    +0.000 OA
ATOM     21  H   UNL     1       7.480   4.443  20.151  0.00  0.00    +0.000 HD
ENDBRANCH  19  20
ENDBRANCH   9  19
ENDBRANCH   7  14
ENDBRANCH   1   7
BRANCH   4  22
ATOM     22  C   UNL     1       0.725   8.894  20.718  0.00  0.00    +0.000 C 
BRANCH  22  23
ATOM     23  C   UNL     1       0.854  10.186  19.905  0.00  0.00    +0.000 C 
BRANCH  23  24
ATOM     24  C   UNL     1      -0.464  10.704  19.399  0.00  0.00    +0.000 A 
ATOM     25  C   UNL     1      -1.224  11.580  20.171  0.00  0.00    +0.000 A 
ATOM     26  C   UNL     1      -2.464  12.013  19.709  0.00  0.00    +0.000 A 
ATOM     27  C   UNL     1      -2.962  11.577  18.472  0.00  0.00    +0.000 A 
ATOM     28 CL   UNL     1      -4.517  12.169  18.024  0.00  0.00    +0.000 Cl
ATOM     29  C   UNL     1      -2.212  10.708  17.673  0.00  0.00    +0.000 A 
ATOM     30  C   UNL     1      -0.954  10.286  18.154  0.00  0.00    +0.000 A 
BRANCH  29  31
ATOM     31  C   UNL     1      -2.654  10.170  16.337  0.00  0.00    +0.000 C 
ATOM     32  F   UNL     1      -2.845  11.077  15.345  0.00  0.00    +0.000 F 
ATOM     33  F   UNL     1      -1.757   9.269  15.836  0.00  0.00    +0.000 F 
ATOM     34  F   UNL     1      -3.831   9.485  16.434  0.00  0.00    +0.000 F 
ENDBRANCH  29  31
ENDBRANCH  23  24
ENDBRANCH  22  23
ENDBRANCH   4  22
TORSDOF 9
ENDMDL
MODEL 5
REMARK VINA RESULT:      -8.8      5.890      9.706
REMARK  Name = 
REMARK  9 active torsions:
REMARK  status: ('A' for Active; 'I' for Inactive)
REMARK    1  A    between atoms: C_2  and  O_3
REMARK    2  A    between atoms: C_2  and  C_4
REMARK    3  A    between atoms: C_6  and  N_7
REMARK    4  A    between atoms: C_12  and  N_13
REMARK    5  A    between atoms: N_13  and  C_14
REMARK    6  A    between atoms: C_17  and  C_18
REMARK    7  A    between atoms: C_18  and  C_19
REMARK    8  A    between atoms: C_19  and  C_20
REMARK    9  A    between atoms: C_25  and  C_26
REMARK                            x       y       z     vdW  Elec       q    Type
REMARK                         _______ _______ _______ _____ _____    ______ ____
ROOT
ATOM      1  C   UNL     1       3.639   5.766  18.379  0.00  0.00    +0.000 A 
ATOM      2  C   UNL     1       2.977   5.578  19.591  0.00  0.00    +0.000 A 
ATOM      3  C   UNL     1       2.149   6.577  20.112  0.00  0.00    +0.000 A 
ATOM      4  C   UNL     1       1.997   7.807  19.456  0.00  0.00    +0.000 A 
ATOM      5  C   UNL     1       2.633   7.983  18.226  0.00  0.00    +0.000 A 
ATOM      6  C   UNL     1       3.480   6.994  17.724  0.00  0.00    +0.000 A 
ENDROOT
BRANCH   1   7
ATOM      7  N   UNL     1       4.541   4.757  17.934  0.00  0.00    +0.000 N 
ATOM      8  H   UNL     1       5.108   4.495  18.752  0.00  0.00    +0.000 HD
BRANCH   7  14
ATOM      9  C   UNL     1       6.717   5.181  16.803  0.00  0.00    +0.000 A 
ATOM     10  C   UNL     1       7.474   5.244  15.615  0.00  0.00    +0.000 A 
ATOM     11  C   UNL     1       6.889   4.903  14.393  0.00  0.00    +0.000 A 
ATOM     12  C   UNL     1       5.575   4.434  14.350  0.00  0.00    +0.000 A 
ATOM     13  C   UNL     1       4.853   4.331  15.535  0.00  0.00    +0.000 A 
ATOM     14  C   UNL     1       5.354   4.798  16.762  0.00  0.00    +0.000 A 
BRANCH  11  15
ATOM     15  N   UNL     1       7.647   5.006  13.139  0.00  0.00    +0.000 N 
ATOM     16  O   UNL     1       8.562   5.840  13.098  0.00  0.00    +0.000 OA
ATOM     17  O   UNL     1       7.322   4.261  12.208  0.00  0.00    +0.000 OA
ENDBRANCH  11  15
BRANCH   9  19
ATOM     18  O   UNL     1       7.714   4.714  18.913  0.00  0.00    +0.000 OA
ATOM     19  C   UNL     1       7.437   5.538  18.056  0.00  0.00    +0.000 C 
BRANCH  19  20
ATOM     20  O   UNL     1       7.723   6.849  18.184  0.00  0.00    +0.000 OA
ATOM     21  H   UNL     1       7.948   7.120  19.099  0.00  0.00    +0.000 HD
ENDBRANCH  19  20
ENDBRANCH   9  19
ENDBRANCH   7  14
ENDBRANCH   1   7
BRANCH   4  22
ATOM     22  C   UNL     1       1.194   8.947  20.040  0.00  0.00    +0.000 C 
BRANCH  22  23
ATOM     23  C   UNL     1       1.028  10.115  19.062  0.00  0.00    +0.000 C 
BRANCH  23  24
ATOM     24  C   UNL     1      -0.313  10.789  19.161  0.00  0.00    +0.000 A 
ATOM     25  C   UNL     1      -0.543  11.767  20.125  0.00  0.00    +0.000 A 
ATOM     26  C   UNL     1      -1.804  12.347  20.235  0.00  0.00    +0.000 A 
ATOM     27  C   UNL     1      -2.851  11.958  19.385  0.00  0.00    +0.000 A 
ATOM     28 CL   UNL     1      -4.367  12.737  19.637  0.00  0.00    +0.000 Cl
ATOM     29  C   UNL     1      -2.640  10.988  18.400  0.00  0.00    +0.000 A 
ATOM     30  C   UNL     1      -1.353  10.416  18.298  0.00  0.00    +0.000 A 
BRANCH  29  31
ATOM     31  C   UNL     1      -3.692  10.490  17.444  0.00  0.00    +0.000 C 
ATOM     32  F   UNL     1      -3.331   9.482  16.609  0.00  0.00    +0.000 F 
ATOM     33  F   UNL     1      -4.797  10.034  18.105  0.00  0.00    +0.000 F 
ATOM     34  F   UNL     1      -4.148  11.488  16.633  0.00  0.00    +0.000 F 
ENDBRANCH  29  31
ENDBRANCH  23  24
ENDBRANCH  22  23
ENDBRANCH   4  22
TORSDOF 9
ENDMDL
MODEL 6
REMARK VINA RESULT:      -8.7      6.257     10.047
REMARK  Name = 
REMARK  9 active torsions:
REMARK  status: ('A' for Active; 'I' for Inactive)
REMARK    1  A    between atoms: C_2  and  O_3
REMARK    2  A    between atoms: C_2  and  C_4
REMARK    3  A    between atoms: C_6  and  N_7
REMARK    4  A    between atoms: C_12  and  N_13
REMARK    5  A    between atoms: N_13  and  C_14
REMARK    6  A    between atoms: C_17  and  C_18
REMARK    7  A    between atoms: C_18  and  C_19
REMARK    8  A    between atoms: C_19  and  C_20
REMARK    9  A    between atoms: C_25  and  C_26
REMARK                            x       y       z     vdW  Elec       q    Type
REMARK                         _______ _______ _______ _____ _____    ______ ____
ROOT
ATOM      1  C   UNL     1       3.733   5.598  18.307  0.00  0.00    +0.000 A 
ATOM      2  C   UNL     1       3.090   5.372  19.523  0.00  0.00    +0.000 A 
ATOM      3  C   UNL     1       2.258   6.348  20.081  0.00  0.00    +0.000 A 
ATOM      4  C   UNL     1       2.083   7.592  19.458  0.00  0.00    +0.000 A 
ATOM      5  C   UNL     1       2.700   7.806  18.224  0.00  0.00    +0.000 A 
ATOM      6  C   UNL     1       3.551   6.840  17.686  0.00  0.00    +0.000 A 
ENDROOT
BRANCH   1   7
ATOM      7  N   UNL     1       4.640   4.611  17.825  0.00  0.00    +0.000 N 
ATOM      8  H   UNL     1       5.245   4.362  18.618  0.00  0.00    +0.000 HD
BRANCH   7  14
ATOM      9  C   UNL     1       6.733   5.163  16.595  0.00  0.00    +0.000 A 
ATOM     10  C   UNL     1       7.439   5.241  15.377  0.00  0.00    +0.000 A 
ATOM     11  C   UNL     1       6.839   4.810  14.192  0.00  0.00    +0.000 A 
ATOM     12  C   UNL     1       5.566   4.238  14.216  0.00  0.00    +0.000 A 
ATOM     13  C   UNL     1       4.898   4.122  15.431  0.00  0.00    +0.000 A 
ATOM     14  C   UNL     1       5.404   4.672  16.621  0.00  0.00    +0.000 A 
BRANCH  11  15
ATOM     15  N   UNL     1       7.541   4.926  12.907  0.00  0.00    +0.000 N 
ATOM     16  O   UNL     1       8.368   5.842  12.793  0.00  0.00    +0.000 OA
ATOM     17  O   UNL     1       7.259   4.110  12.022  0.00  0.00    +0.000 OA
ENDBRANCH  11  15
BRANCH   9  19
ATOM     18  O   UNL     1       7.741   6.795  18.004  0.00  0.00    +0.000 OA
ATOM     19  C   UNL     1       7.467   5.622  17.807  0.00  0.00    +0.000 C 
BRANCH  19  20
ATOM     20  O   UNL     1       7.836   4.634  18.645  0.00  0.00    +0.000 OA
ATOM     21  H   UNL     1       7.282   4.569  19.453  0.00  0.00    +0.000 HD
ENDBRANCH  19  20
ENDBRANCH   9  19
ENDBRANCH   7  14
ENDBRANCH   1   7
BRANCH   4  22
ATOM     22  C   UNL     1       1.275   8.708  20.082  0.00  0.00    +0.000 C 
BRANCH  22  23
ATOM     23  C   UNL     1       0.807   9.743  19.054  0.00  0.00    +0.000 C 
BRANCH  23  24
ATOM     24  C   UNL     1      -0.269  10.655  19.576  0.00  0.00    +0.000 A 
ATOM     25  C   UNL     1      -1.038  11.417  18.699  0.00  0.00    +0.000 A 
ATOM     26  C   UNL     1      -1.998  12.292  19.200  0.00  0.00    +0.000 A 
ATOM     27  C   UNL     1      -2.202  12.419  20.583  0.00  0.00    +0.000 A 
ATOM     28 CL   UNL     1      -3.405  13.551  21.075  0.00  0.00    +0.000 Cl
ATOM     29  C   UNL     1      -1.451  11.655  21.483  0.00  0.00    +0.000 A 
ATOM     30  C   UNL     1      -0.488  10.767  20.956  0.00  0.00    +0.000 A 
BRANCH  29  31
ATOM     31  C   UNL     1      -1.580  11.720  22.982  0.00  0.00    +0.000 C 
ATOM     32  F   UNL     1      -2.835  11.628  23.492  0.00  0.00    +0.000 F 
ATOM     33  F   UNL     1      -0.868  10.727  23.591  0.00  0.00    +0.000 F 
ATOM     34  F   UNL     1      -1.070  12.883  23.481  0.00  0.00    +0.000 F 
ENDBRANCH  29  31
ENDBRANCH  23  24
ENDBRANCH  22  23
ENDBRANCH   4  22
TORSDOF 9
ENDMDL
MODEL 7
REMARK VINA RESULT:      -8.7      6.014      9.996
REMARK  Name = 
REMARK  9 active torsions:
REMARK  status: ('A' for Active; 'I' for Inactive)
REMARK    1  A    between atoms: C_2  and  O_3
REMARK    2  A    between atoms: C_2  and  C_4
REMARK    3  A    between atoms: C_6  and  N_7
REMARK    4  A    between atoms: C_12  and  N_13
REMARK    5  A    between atoms: N_13  and  C_14
REMARK    6  A    between atoms: C_17  and  C_18
REMARK    7  A    between atoms: C_18  and  C_19
REMARK    8  A    between atoms: C_19  and  C_20
REMARK    9  A    between atoms: C_25  and  C_26
REMARK                            x       y       z     vdW  Elec       q    Type
REMARK                         _______ _______ _______ _____ _____    ______ ____
ROOT
ATOM      1  C   UNL     1       2.411   7.113  19.278  0.00  0.00    +0.000 A 
ATOM      2  C   UNL     1       2.226   8.006  18.223  0.00  0.00    +0.000 A 
ATOM      3  C   UNL     1       1.549   9.213  18.423  0.00  0.00    +0.000 A 
ATOM      4  C   UNL     1       1.002   9.539  19.673  0.00  0.00    +0.000 A 
ATOM      5  C   UNL     1       1.217   8.662  20.737  0.00  0.00    +0.000 A 
ATOM      6  C   UNL     1       1.868   7.446  20.526  0.00  0.00    +0.000 A 
ENDROOT
BRANCH   1   7
ATOM      7  N   UNL     1       3.026   5.858  19.006  0.00  0.00    +0.000 N 
ATOM      8  H   UNL     1       3.433   5.537  19.895  0.00  0.00    +0.000 HD
BRANCH   7  14
ATOM      9  C   UNL     1       3.790   4.361  17.171  0.00  0.00    +0.000 A 
ATOM     10  C   UNL     1       4.702   4.085  16.132  0.00  0.00    +0.000 A 
ATOM     11  C   UNL     1       5.708   5.004  15.821  0.00  0.00    +0.000 A 
ATOM     12  C   UNL     1       5.774   6.226  16.490  0.00  0.00    +0.000 A 
ATOM     13  C   UNL     1       4.839   6.508  17.481  0.00  0.00    +0.000 A 
ATOM     14  C   UNL     1       3.904   5.556  17.923  0.00  0.00    +0.000 A 
BRANCH  11  15
ATOM     15  N   UNL     1       6.696   4.714  14.773  0.00  0.00    +0.000 N 
ATOM     16  O   UNL     1       6.419   3.814  13.967  0.00  0.00    +0.000 OA
ATOM     17  O   UNL     1       7.738   5.379  14.765  0.00  0.00    +0.000 OA
ENDBRANCH  11  15
BRANCH   9  19
ATOM     18  O   UNL     1       3.004   2.164  17.637  0.00  0.00    +0.000 OA
ATOM     19  C   UNL     1       2.739   3.333  17.408  0.00  0.00    +0.000 C 
BRANCH  19  20
ATOM     20  O   UNL     1       1.476   3.791  17.311  0.00  0.00    +0.000 OA
ATOM     21  H   UNL     1       0.816   3.098  17.095  0.00  0.00    +0.000 HD
ENDBRANCH  19  20
ENDBRANCH   9  19
ENDBRANCH   7  14
ENDBRANCH   1   7
BRANCH   4  22
ATOM     22  C   UNL     1       0.177  10.786  19.899  0.00  0.00    +0.000 C 
BRANCH  22  23
ATOM     23  C   UNL     1      -0.642  11.183  18.667  0.00  0.00    +0.000 C 
BRANCH  23  24
ATOM     24  C   UNL     1      -2.019  11.684  19.003  0.00  0.00    +0.000 A 
ATOM     25  C   UNL     1      -2.266  12.308  20.224  0.00  0.00    +0.000 A 
ATOM     26  C   UNL     1      -3.557  12.724  20.541  0.00  0.00    +0.000 A 
ATOM     27  C   UNL     1      -4.617  12.522  19.644  0.00  0.00    +0.000 A 
ATOM     28 CL   UNL     1      -6.168  13.063  20.164  0.00  0.00    +0.000 Cl
ATOM     29  C   UNL     1      -4.391  11.910  18.407  0.00  0.00    +0.000 A 
ATOM     30  C   UNL     1      -3.075  11.502  18.100  0.00  0.00    +0.000 A 
BRANCH  29  31
ATOM     31  C   UNL     1      -5.455  11.635  17.377  0.00  0.00    +0.000 C 
ATOM     32  F   UNL     1      -6.135  12.708  16.898  0.00  0.00    +0.000 F 
ATOM     33  F   UNL     1      -4.940  11.011  16.276  0.00  0.00    +0.000 F 
ATOM     34  F   UNL     1      -6.410  10.784  17.854  0.00  0.00    +0.000 F 
ENDBRANCH  29  31
ENDBRANCH  23  24
ENDBRANCH  22  23
ENDBRANCH   4  22
TORSDOF 9
ENDMDL
MODEL 8
REMARK VINA RESULT:      -8.7      6.457     10.126
REMARK  Name = 
REMARK  9 active torsions:
REMARK  status: ('A' for Active; 'I' for Inactive)
REMARK    1  A    between atoms: C_2  and  O_3
REMARK    2  A    between atoms: C_2  and  C_4
REMARK    3  A    between atoms: C_6  and  N_7
REMARK    4  A    between atoms: C_12  and  N_13
REMARK    5  A    between atoms: N_13  and  C_14
REMARK    6  A    between atoms: C_17  and  C_18
REMARK    7  A    between atoms: C_18  and  C_19
REMARK    8  A    between atoms: C_19  and  C_20
REMARK    9  A    between atoms: C_25  and  C_26
REMARK                            x       y       z     vdW  Elec       q    Type
REMARK                         _______ _______ _______ _____ _____    ______ ____
ROOT
ATOM      1  C   UNL     1       2.366   7.051  18.983  0.00  0.00    +0.000 A 
ATOM      2  C   UNL     1       2.113   7.969  17.965  0.00  0.00    +0.000 A 
ATOM      3  C   UNL     1       1.493   9.191  18.247  0.00  0.00    +0.000 A 
ATOM      4  C   UNL     1       1.070   9.506  19.546  0.00  0.00    +0.000 A 
ATOM      5  C   UNL     1       1.353   8.602  20.571  0.00  0.00    +0.000 A 
ATOM      6  C   UNL     1       1.947   7.373  20.281  0.00  0.00    +0.000 A 
ENDROOT
BRANCH   1   7
ATOM      7  N   UNL     1       2.916   5.784  18.634  0.00  0.00    +0.000 N 
ATOM      8  H   UNL     1       3.231   5.354  19.514  0.00  0.00    +0.000 HD
BRANCH   7  14
ATOM      9  C   UNL     1       4.011   4.231  17.028  0.00  0.00    +0.000 A 
ATOM     10  C   UNL     1       4.976   4.006  16.024  0.00  0.00    +0.000 A 
ATOM     11  C   UNL     1       5.765   5.063  15.562  0.00  0.00    +0.000 A 
ATOM     12  C   UNL     1       5.555   6.357  16.041  0.00  0.00    +0.000 A 
ATOM     13  C   UNL     1       4.568   6.575  16.997  0.00  0.00    +0.000 A 
ATOM     14  C   UNL     1       3.854   5.521  17.592  0.00  0.00    +0.000 A 
BRANCH  11  15
ATOM     15  N   UNL     1       6.806   4.840  14.551  0.00  0.00    +0.000 N 
ATOM     16  O   UNL     1       7.850   5.498  14.658  0.00  0.00    +0.000 OA
ATOM     17  O   UNL     1       6.573   4.016  13.659  0.00  0.00    +0.000 OA
ENDBRANCH  11  15
BRANCH   9  19
ATOM     18  O   UNL     1       1.983   3.055  17.437  0.00  0.00    +0.000 OA
ATOM     19  C   UNL     1       3.204   3.048  17.434  0.00  0.00    +0.000 C 
BRANCH  19  20
ATOM     20  O   UNL     1       3.929   1.985  17.834  0.00  0.00    +0.000 OA
ATOM     21  H   UNL     1       3.843   1.781  18.790  0.00  0.00    +0.000 HD
ENDBRANCH  19  20
ENDBRANCH   9  19
ENDBRANCH   7  14
ENDBRANCH   1   7
BRANCH   4  22
ATOM     22  C   UNL     1       0.306  10.771  19.868  0.00  0.00    +0.000 C 
BRANCH  22  23
ATOM     23  C   UNL     1      -0.267  11.447  18.618  0.00  0.00    +0.000 C 
BRANCH  23  24
ATOM     24  C   UNL     1      -1.762  11.319  18.505  0.00  0.00    +0.000 A 
ATOM     25  C   UNL     1      -2.328  10.451  17.574  0.00  0.00    +0.000 A 
ATOM     26  C   UNL     1      -3.713  10.378  17.449  0.00  0.00    +0.000 A 
ATOM     27  C   UNL     1      -4.550  11.171  18.248  0.00  0.00    +0.000 A 
ATOM     28 CL   UNL     1      -6.244  11.003  17.980  0.00  0.00    +0.000 Cl
ATOM     29  C   UNL     1      -4.005  12.041  19.199  0.00  0.00    +0.000 A 
ATOM     30  C   UNL     1      -2.599  12.095  19.318  0.00  0.00    +0.000 A 
BRANCH  29  31
ATOM     31  C   UNL     1      -4.807  12.943  20.099  0.00  0.00    +0.000 C 
ATOM     32  F   UNL     1      -4.107  13.764  20.923  0.00  0.00    +0.000 F 
ATOM     33  F   UNL     1      -5.631  13.765  19.383  0.00  0.00    +0.000 F 
ATOM     34  F   UNL     1      -5.636  12.230  20.916  0.00  0.00    +0.000 F 
ENDBRANCH  29  31
ENDBRANCH  23  24
ENDBRANCH  22  23
ENDBRANCH   4  22
TORSDOF 9
ENDMDL
MODEL 9
REMARK VINA RESULT:      -8.6      5.977      9.640
REMARK  Name = 
REMARK  9 active torsions:
REMARK  status: ('A' for Active; 'I' for Inactive)
REMARK    1  A    between atoms: C_2  and  O_3
REMARK    2  A    between atoms: C_2  and  C_4
REMARK    3  A    between atoms: C_6  and  N_7
REMARK    4  A    between atoms: C_12  and  N_13
REMARK    5  A    between atoms: N_13  and  C_14
REMARK    6  A    between atoms: C_17  and  C_18
REMARK    7  A    between atoms: C_18  and  C_19
REMARK    8  A    between atoms: C_19  and  C_20
REMARK    9  A    between atoms: C_25  and  C_26
REMARK                            x       y       z     vdW  Elec       q    Type
REMARK                         _______ _______ _______ _____ _____    ______ ____
ROOT
ATOM      1  C   UNL     1       4.035   4.595  18.496  0.00  0.00    +0.000 A 
ATOM      2  C   UNL     1       3.581   4.196  19.753  0.00  0.00    +0.000 A 
ATOM      3  C   UNL     1       2.673   4.985  20.466  0.00  0.00    +0.000 A 
ATOM      4  C   UNL     1       2.229   6.215  19.960  0.00  0.00    +0.000 A 
ATOM      5  C   UNL     1       2.657   6.600  18.688  0.00  0.00    +0.000 A 
ATOM      6  C   UNL     1       3.584   5.823  17.993  0.00  0.00    +0.000 A 
ENDROOT
BRANCH   1   7
ATOM      7  N   UNL     1       5.026   3.805  17.849  0.00  0.00    +0.000 N 
ATOM      8  H   UNL     1       5.669   3.487  18.587  0.00  0.00    +0.000 HD
BRANCH   7  14
ATOM      9  C   UNL     1       6.874   5.018  16.705  0.00  0.00    +0.000 A 
ATOM     10  C   UNL     1       7.544   5.362  15.513  0.00  0.00    +0.000 A 
ATOM     11  C   UNL     1       7.122   4.825  14.294  0.00  0.00    +0.000 A 
ATOM     12  C   UNL     1       6.081   3.896  14.258  0.00  0.00    +0.000 A 
ATOM     13  C   UNL     1       5.459   3.528  15.447  0.00  0.00    +0.000 A 
ATOM     14  C   UNL     1       5.755   4.149  16.672  0.00  0.00    +0.000 A 
BRANCH  11  15
ATOM     15  N   UNL     1       7.777   5.207  13.036  0.00  0.00    +0.000 N 
ATOM     16  O   UNL     1       8.699   6.032  13.105  0.00  0.00    +0.000 OA
ATOM     17  O   UNL     1       7.364   4.688  11.992  0.00  0.00    +0.000 OA
ENDBRANCH  11  15
BRANCH   9  19
ATOM     18  O   UNL     1       7.708   6.801  18.043  0.00  0.00    +0.000 OA
ATOM     19  C   UNL     1       7.415   5.619  17.955  0.00  0.00    +0.000 C 
BRANCH  19  20
ATOM     20  O   UNL     1       7.590   4.746  18.967  0.00  0.00    +0.000 OA
ATOM     21  H   UNL     1       7.438   5.132  19.856  0.00  0.00    +0.000 HD
ENDBRANCH  19  20
ENDBRANCH   9  19
ENDBRANCH   7  14
ENDBRANCH   1   7
BRANCH   4  22
ATOM     22  C   UNL     1       1.330   7.142  20.747  0.00  0.00    +0.000 C 
BRANCH  22  23
ATOM     23  C   UNL     1       1.388   8.588  20.244  0.00  0.00    +0.000 C 
BRANCH  23  24
ATOM     24  C   UNL     1       0.495   9.522  21.014  0.00  0.00    +0.000 A 
ATOM     25  C   UNL     1       0.240   9.302  22.366  0.00  0.00    +0.000 A 
ATOM     26  C   UNL     1      -0.626  10.148  23.053  0.00  0.00    +0.000 A 
ATOM     27  C   UNL     1      -1.249  11.223  22.401  0.00  0.00    +0.000 A 
ATOM     28 CL   UNL     1      -2.315  12.182  23.358  0.00  0.00    +0.000 Cl
ATOM     29  C   UNL     1      -0.999  11.471  21.047  0.00  0.00    +0.000 A 
ATOM     30  C   UNL     1      -0.112  10.608  20.369  0.00  0.00    +0.000 A 
BRANCH  29  31
ATOM     31  C   UNL     1      -1.620  12.586  20.248  0.00  0.00    +0.000 C 
ATOM     32  F   UNL     1      -2.852  13.005  20.638  0.00  0.00    +0.000 F 
ATOM     33  F   UNL     1      -0.838  13.706  20.254  0.00  0.00    +0.000 F 
ATOM     34  F   UNL     1      -1.751  12.250  18.932  0.00  0.00    +0.000 F 
ENDBRANCH  29  31
ENDBRANCH  23  24
ENDBRANCH  22  23
ENDBRANCH   4  22
TORSDOF 9
ENDMDL
