MODEL 1
REMARK VINA RESULT:      -6.6      0.000      0.000
REMARK  Name = 
REMARK  10 active torsions:
REMARK  status: ('A' for Active; 'I' for Inactive)
REMARK    1  A    between atoms: C_1  and  O_2
REMARK    2  A    between atoms: O_2  and  C_3
REMARK    3  A    between atoms: C_8  and  N_9
REMARK    4  A    between atoms: C_10  and  C_12
REMARK    5  A    between atoms: C_16  and  C_17
REMARK    6  A    between atoms: C_17  and  C_18
REMARK    7  A    between atoms: C_18  and  C_19
REMARK    8  A    between atoms: C_18  and  C_20
REMARK    9  A    between atoms: C_22  and  O_23
REMARK   10  A    between atoms: C_22  and  C_24
REMARK                            x       y       z     vdW  Elec       q    Type
REMARK                         _______ _______ _______ _____ _____    ______ ____
ROOT
ATOM      1  C   UNL     1       6.951   4.655  17.812  0.00  0.00    +0.000 C 
ATOM      2  O   UNL     1       7.905   4.502  18.577  0.00  0.00    +0.000 OA
ATOM      3  N   UNL     1       5.642   4.198  18.048  0.00  0.00    +0.000 N 
ATOM      4  N   UNL     1       5.371   3.608  19.287  0.00  0.00    +0.000 NA
ATOM      5  C   UNL     1       4.115   3.304  19.305  0.00  0.00    +0.000 C 
ATOM      6  C   UNL     1       3.376   3.534  18.038  0.00  0.00    +0.000 C 
ATOM      7  C   UNL     1       4.350   4.471  17.324  0.00  0.00    +0.000 C 
ENDROOT
BRANCH   1   9
ATOM      8  N   UNL     1       7.242   4.473  15.349  0.00  0.00    +0.000 N 
ATOM      9  C   UNL     1       7.262   5.322  16.455  0.00  0.00    +0.000 C 
ATOM     10  O   UNL     1       7.463   6.531  16.460  0.00  0.00    +0.000 OA
ATOM     11  H   UNL     1       7.191   3.477  15.530  0.00  0.00    +0.000 HD
BRANCH   8  17
ATOM     12  C   UNL     1       6.616   4.326  12.971  0.00  0.00    +0.000 A 
ATOM     13  C   UNL     1       6.898   4.627  11.623  0.00  0.00    +0.000 A 
ATOM     14  C   UNL     1       7.893   5.544  11.292  0.00  0.00    +0.000 A 
ATOM     15  C   UNL     1       8.610   6.172  12.296  0.00  0.00    +0.000 A 
ATOM     16  C   UNL     1       8.381   5.829  13.635  0.00  0.00    +0.000 A 
ATOM     17  C   UNL     1       7.421   4.875  13.995  0.00  0.00    +0.000 A 
BRANCH  12  19
ATOM     18  C   UNL     1       4.698   3.132  12.265  0.00  0.00    +0.000 C 
ATOM     19  O   UNL     1       5.591   3.481  13.336  0.00  0.00    +0.000 OA
ENDBRANCH  12  19
ENDBRANCH   8  17
ENDBRANCH   1   9
BRANCH   7  20
ATOM     20  C   UNL     1       3.864   5.963  17.462  0.00  0.00    +0.000 C 
ATOM     21  F   UNL     1       4.362   6.558  18.577  0.00  0.00    +0.000 F 
ATOM     22  F   UNL     1       4.217   6.735  16.407  0.00  0.00    +0.000 F 
ATOM     23  F   UNL     1       2.496   6.059  17.562  0.00  0.00    +0.000 F 
ENDBRANCH   7  20
BRANCH   7  24
ATOM     24  O   UNL     1       4.394   3.929  15.999  0.00  0.00    +0.000 OA
ATOM     25  H   UNL     1       3.797   4.472  15.451  0.00  0.00    +0.000 HD
ENDBRANCH   7  24
BRANCH   5  26
ATOM     26  C   UNL     1       3.421   2.705  20.501  0.00  0.00    +0.000 C 
BRANCH  26  27
ATOM     27  C   UNL     1       2.014   3.277  20.726  0.00  0.00    +0.000 C 
ATOM     28  C   UNL     1       1.296   2.572  21.883  0.00  0.00    +0.000 C 
ATOM     29  C   UNL     1       2.090   4.778  21.000  0.00  0.00    +0.000 C 
ENDBRANCH  26  27
ENDBRANCH   5  26
TORSDOF 7
ENDMDL
MODEL 2
REMARK VINA RESULT:      -6.4      6.828      8.891
REMARK  Name = 
REMARK  10 active torsions:
REMARK  status: ('A' for Active; 'I' for Inactive)
REMARK    1  A    between atoms: C_1  and  O_2
REMARK    2  A    between atoms: O_2  and  C_3
REMARK    3  A    between atoms: C_8  and  N_9
REMARK    4  A    between atoms: C_10  and  C_12
REMARK    5  A    between atoms: C_16  and  C_17
REMARK    6  A    between atoms: C_17  and  C_18
REMARK    7  A    between atoms: C_18  and  C_19
REMARK    8  A    between atoms: C_18  and  C_20
REMARK    9  A    between atoms: C_22  and  O_23
REMARK   10  A    between atoms: C_22  and  C_24
REMARK                            x       y       z     vdW  Elec       q    Type
REMARK                         _______ _______ _______ _____ _____    ______ ____
ROOT
ATOM      1  C   UNL     1      -0.118  10.269  18.772  0.00  0.00    +0.000 C 
ATOM      2  O   UNL     1      -0.886  10.207  17.810  0.00  0.00    +0.000 OA
ATOM      3  N   UNL     1      -0.383  10.944  19.977  0.00  0.00    +0.000 N 
ATOM      4  N   UNL     1      -1.651  11.508  20.143  0.00  0.00    +0.000 NA
ATOM      5  C   UNL     1      -1.690  12.034  21.323  0.00  0.00    +0.000 C 
ATOM      6  C   UNL     1      -0.416  12.007  22.085  0.00  0.00    +0.000 C 
ATOM      7  C   UNL     1       0.349  10.947  21.293  0.00  0.00    +0.000 C 
ENDROOT
BRANCH   1   9
ATOM      8  N   UNL     1       1.327   8.245  18.763  0.00  0.00    +0.000 N 
ATOM      9  C   UNL     1       1.273   9.627  18.579  0.00  0.00    +0.000 C 
ATOM     10  O   UNL     1       2.190  10.369  18.253  0.00  0.00    +0.000 OA
ATOM     11  H   UNL     1       0.510   7.798  19.161  0.00  0.00    +0.000 HD
BRANCH   8  17
ATOM     12  C   UNL     1       2.764   6.366  19.449  0.00  0.00    +0.000 A 
ATOM     13  C   UNL     1       3.978   5.659  19.322  0.00  0.00    +0.000 A 
ATOM     14  C   UNL     1       4.849   5.926  18.269  0.00  0.00    +0.000 A 
ATOM     15  C   UNL     1       4.519   6.890  17.332  0.00  0.00    +0.000 A 
ATOM     16  C   UNL     1       3.348   7.642  17.488  0.00  0.00    +0.000 A 
ATOM     17  C   UNL     1       2.477   7.430  18.564  0.00  0.00    +0.000 A 
BRANCH  12  19
ATOM     18  C   UNL     1       1.871   4.715  20.891  0.00  0.00    +0.000 C 
ATOM     19  O   UNL     1       1.846   6.078  20.435  0.00  0.00    +0.000 OA
ENDBRANCH  12  19
ENDBRANCH   8  17
ENDBRANCH   1   9
BRANCH   7  20
ATOM     20  C   UNL     1       0.286   9.563  22.042  0.00  0.00    +0.000 C 
ATOM     21  F   UNL     1       1.469   8.898  21.984  0.00  0.00    +0.000 F 
ATOM     22  F   UNL     1      -0.040   9.683  23.351  0.00  0.00    +0.000 F 
ATOM     23  F   UNL     1      -0.650   8.716  21.496  0.00  0.00    +0.000 F 
ENDBRANCH   7  20
BRANCH   7  24
ATOM     24  O   UNL     1       1.645  11.539  21.145  0.00  0.00    +0.000 OA
ATOM     25  H   UNL     1       1.704  12.259  21.801  0.00  0.00    +0.000 HD
ENDBRANCH   7  24
BRANCH   5  26
ATOM     26  C   UNL     1      -2.918  12.687  21.904  0.00  0.00    +0.000 C 
BRANCH  26  27
ATOM     27  C   UNL     1      -2.767  13.031  23.392  0.00  0.00    +0.000 C 
ATOM     28  C   UNL     1      -2.715  14.546  23.620  0.00  0.00    +0.000 C 
ATOM     29  C   UNL     1      -3.915  12.424  24.195  0.00  0.00    +0.000 C 
ENDBRANCH  26  27
ENDBRANCH   5  26
TORSDOF 7
ENDMDL
MODEL 3
REMARK VINA RESULT:      -6.4      2.189      7.216
REMARK  Name = 
REMARK  10 active torsions:
REMARK  status: ('A' for Active; 'I' for Inactive)
REMARK    1  A    between atoms: C_1  and  O_2
REMARK    2  A    between atoms: O_2  and  C_3
REMARK    3  A    between atoms: C_8  and  N_9
REMARK    4  A    between atoms: C_10  and  C_12
REMARK    5  A    between atoms: C_16  and  C_17
REMARK    6  A    between atoms: C_17  and  C_18
REMARK    7  A    between atoms: C_18  and  C_19
REMARK    8  A    between atoms: C_18  and  C_20
REMARK    9  A    between atoms: C_22  and  O_23
REMARK   10  A    between atoms: C_22  and  C_24
REMARK                            x       y       z     vdW  Elec       q    Type
REMARK                         _______ _______ _______ _____ _____    ______ ____
ROOT
ATOM      1  C   UNL     1       4.378   6.343  16.952  0.00  0.00    +0.000 C 
ATOM      2  O   UNL     1       3.878   7.356  16.460  0.00  0.00    +0.000 OA
ATOM      3  N   UNL     1       5.351   5.538  16.333  0.00  0.00    +0.000 N 
ATOM      4  N   UNL     1       5.868   5.966  15.106  0.00  0.00    +0.000 NA
ATOM      5  C   UNL     1       6.766   5.110  14.744  0.00  0.00    +0.000 C 
ATOM      6  C   UNL     1       6.906   3.914  15.611  0.00  0.00    +0.000 C 
ATOM      7  C   UNL     1       6.190   4.407  16.869  0.00  0.00    +0.000 C 
ENDROOT
BRANCH   1   9
ATOM      8  N   UNL     1       3.099   4.690  18.301  0.00  0.00    +0.000 N 
ATOM      9  C   UNL     1       3.810   5.891  18.314  0.00  0.00    +0.000 C 
ATOM     10  O   UNL     1       4.056   6.598  19.284  0.00  0.00    +0.000 OA
ATOM     11  H   UNL     1       2.872   4.297  17.396  0.00  0.00    +0.000 HD
BRANCH   8  17
ATOM     12  C   UNL     1       3.318   3.095  20.165  0.00  0.00    +0.000 A 
ATOM     13  C   UNL     1       2.717   2.359  21.206  0.00  0.00    +0.000 A 
ATOM     14  C   UNL     1       1.410   2.627  21.605  0.00  0.00    +0.000 A 
ATOM     15  C   UNL     1       0.693   3.632  20.977  0.00  0.00    +0.000 A 
ATOM     16  C   UNL     1       1.259   4.322  19.899  0.00  0.00    +0.000 A 
ATOM     17  C   UNL     1       2.554   4.041  19.444  0.00  0.00    +0.000 A 
BRANCH  12  19
ATOM     18  C   UNL     1       5.231   1.711  20.320  0.00  0.00    +0.000 C 
ATOM     19  O   UNL     1       4.632   2.906  19.795  0.00  0.00    +0.000 OA
ENDBRANCH  12  19
ENDBRANCH   8  17
ENDBRANCH   1   9
BRANCH   7  20
ATOM     20  C   UNL     1       7.243   4.871  17.944  0.00  0.00    +0.000 C 
ATOM     21  F   UNL     1       7.684   6.134  17.711  0.00  0.00    +0.000 F 
ATOM     22  F   UNL     1       6.757   4.845  19.208  0.00  0.00    +0.000 F 
ATOM     23  F   UNL     1       8.365   4.074  17.954  0.00  0.00    +0.000 F 
ENDBRANCH   7  20
BRANCH   7  24
ATOM     24  O   UNL     1       5.363   3.290  17.218  0.00  0.00    +0.000 OA
ATOM     25  H   UNL     1       5.954   2.521  17.316  0.00  0.00    +0.000 HD
ENDBRANCH   7  24
BRANCH   5  26
ATOM     26  C   UNL     1       7.602   5.257  13.499  0.00  0.00    +0.000 C 
BRANCH  26  27
ATOM     27  C   UNL     1       7.256   4.222  12.419  0.00  0.00    +0.000 C 
ATOM     28  C   UNL     1       5.880   3.590  12.661  0.00  0.00    +0.000 C 
ATOM     29  C   UNL     1       7.296   4.866  11.035  0.00  0.00    +0.000 C 
ENDBRANCH  26  27
ENDBRANCH   5  26
TORSDOF 7
ENDMDL
MODEL 4
REMARK VINA RESULT:      -6.4      2.217      7.148
REMARK  Name = 
REMARK  10 active torsions:
REMARK  status: ('A' for Active; 'I' for Inactive)
REMARK    1  A    between atoms: C_1  and  O_2
REMARK    2  A    between atoms: O_2  and  C_3
REMARK    3  A    between atoms: C_8  and  N_9
REMARK    4  A    between atoms: C_10  and  C_12
REMARK    5  A    between atoms: C_16  and  C_17
REMARK    6  A    between atoms: C_17  and  C_18
REMARK    7  A    between atoms: C_18  and  C_19
REMARK    8  A    between atoms: C_18  and  C_20
REMARK    9  A    between atoms: C_22  and  O_23
REMARK   10  A    between atoms: C_22  and  C_24
REMARK                            x       y       z     vdW  Elec       q    Type
REMARK                         _______ _______ _______ _____ _____    ______ ____
ROOT
ATOM      1  C   UNL     1       4.397   6.345  16.679  0.00  0.00    +0.000 C 
ATOM      2  O   UNL     1       3.924   7.358  16.161  0.00  0.00    +0.000 OA
ATOM      3  N   UNL     1       5.315   5.475  16.065  0.00  0.00    +0.000 N 
ATOM      4  N   UNL     1       5.810   5.831  14.806  0.00  0.00    +0.000 NA
ATOM      5  C   UNL     1       6.659   4.923  14.452  0.00  0.00    +0.000 C 
ATOM      6  C   UNL     1       6.777   3.758  15.364  0.00  0.00    +0.000 C 
ATOM      7  C   UNL     1       6.123   4.331  16.621  0.00  0.00    +0.000 C 
ENDROOT
BRANCH   1   9
ATOM      8  N   UNL     1       3.092   4.806  18.133  0.00  0.00    +0.000 N 
ATOM      9  C   UNL     1       3.854   5.973  18.076  0.00  0.00    +0.000 C 
ATOM     10  O   UNL     1       4.163   6.705  19.008  0.00  0.00    +0.000 OA
ATOM     11  H   UNL     1       2.818   4.388  17.252  0.00  0.00    +0.000 HD
BRANCH   8  17
ATOM     12  C   UNL     1       3.304   3.282  20.057  0.00  0.00    +0.000 A 
ATOM     13  C   UNL     1       2.706   2.615  21.145  0.00  0.00    +0.000 A 
ATOM     14  C   UNL     1       1.423   2.953  21.569  0.00  0.00    +0.000 A 
ATOM     15  C   UNL     1       0.728   3.958  20.920  0.00  0.00    +0.000 A 
ATOM     16  C   UNL     1       1.288   4.580  19.797  0.00  0.00    +0.000 A 
ATOM     17  C   UNL     1       2.556   4.227  19.318  0.00  0.00    +0.000 A 
BRANCH  12  19
ATOM     18  C   UNL     1       5.120   1.765  20.110  0.00  0.00    +0.000 C 
ATOM     19  O   UNL     1       4.597   3.025  19.658  0.00  0.00    +0.000 OA
ENDBRANCH  12  19
ENDBRANCH   8  17
ENDBRANCH   1   9
BRANCH   7  20
ATOM     20  C   UNL     1       7.228   4.792  17.644  0.00  0.00    +0.000 C 
ATOM     21  F   UNL     1       8.314   3.976  17.620  0.00  0.00    +0.000 F 
ATOM     22  F   UNL     1       7.671   6.051  17.414  0.00  0.00    +0.000 F 
ATOM     23  F   UNL     1       6.776   4.780  18.943  0.00  0.00    +0.000 F 
ENDBRANCH   7  20
BRANCH   7  24
ATOM     24  O   UNL     1       5.261   3.266  17.041  0.00  0.00    +0.000 OA
ATOM     25  H   UNL     1       5.190   2.647  16.290  0.00  0.00    +0.000 HD
ENDBRANCH   7  24
BRANCH   5  26
ATOM     26  C   UNL     1       7.459   4.984  13.177  0.00  0.00    +0.000 C 
BRANCH  26  27
ATOM     27  C   UNL     1       6.817   4.194  12.028  0.00  0.00    +0.000 C 
ATOM     28  C   UNL     1       7.638   2.951  11.667  0.00  0.00    +0.000 C 
ATOM     29  C   UNL     1       5.392   3.787  12.396  0.00  0.00    +0.000 C 
ENDBRANCH  26  27
ENDBRANCH   5  26
TORSDOF 7
ENDMDL
MODEL 5
REMARK VINA RESULT:      -6.3      7.805     10.866
REMARK  Name = 
REMARK  10 active torsions:
REMARK  status: ('A' for Active; 'I' for Inactive)
REMARK    1  A    between atoms: C_1  and  O_2
REMARK    2  A    between atoms: O_2  and  C_3
REMARK    3  A    between atoms: C_8  and  N_9
REMARK    4  A    between atoms: C_10  and  C_12
REMARK    5  A    between atoms: C_16  and  C_17
REMARK    6  A    between atoms: C_17  and  C_18
REMARK    7  A    between atoms: C_18  and  C_19
REMARK    8  A    between atoms: C_18  and  C_20
REMARK    9  A    between atoms: C_22  and  O_23
REMARK   10  A    between atoms: C_22  and  C_24
REMARK                            x       y       z     vdW  Elec       q    Type
REMARK                         _______ _______ _______ _____ _____    ______ ____
ROOT
ATOM      1  C   UNL     1       0.635   9.991  21.383  0.00  0.00    +0.000 C 
ATOM      2  O   UNL     1       0.739   9.261  22.370  0.00  0.00    +0.000 OA
ATOM      3  N   UNL     1       1.121   9.688  20.098  0.00  0.00    +0.000 N 
ATOM      4  N   UNL     1       1.680   8.423  19.893  0.00  0.00    +0.000 NA
ATOM      5  C   UNL     1       2.017   8.345  18.648  0.00  0.00    +0.000 C 
ATOM      6  C   UNL     1       1.846   9.587  17.853  0.00  0.00    +0.000 C 
ATOM      7  C   UNL     1       0.905  10.368  18.771  0.00  0.00    +0.000 C 
ENDROOT
BRANCH   1   9
ATOM      8  N   UNL     1      -1.373  11.377  21.865  0.00  0.00    +0.000 N 
ATOM      9  C   UNL     1       0.001  11.378  21.621  0.00  0.00    +0.000 C 
ATOM     10  O   UNL     1       0.752  12.345  21.609  0.00  0.00    +0.000 OA
ATOM     11  H   UNL     1      -1.871  10.509  21.708  0.00  0.00    +0.000 HD
BRANCH   8  17
ATOM     12  C   UNL     1      -3.006  13.105  21.219  0.00  0.00    +0.000 A 
ATOM     13  C   UNL     1      -3.664  14.317  21.507  0.00  0.00    +0.000 A 
ATOM     14  C   UNL     1      -3.573  14.892  22.773  0.00  0.00    +0.000 A 
ATOM     15  C   UNL     1      -2.834  14.266  23.760  0.00  0.00    +0.000 A 
ATOM     16  C   UNL     1      -2.122  13.097  23.463  0.00  0.00    +0.000 A 
ATOM     17  C   UNL     1      -2.156  12.522  22.186  0.00  0.00    +0.000 A 
BRANCH  12  19
ATOM     18  C   UNL     1      -4.488  12.332  19.543  0.00  0.00    +0.000 C 
ATOM     19  O   UNL     1      -3.134  12.470  20.002  0.00  0.00    +0.000 OA
ENDBRANCH  12  19
ENDBRANCH   8  17
ENDBRANCH   1   9
BRANCH   7  20
ATOM     20  C   UNL     1      -0.577  10.253  18.249  0.00  0.00    +0.000 C 
ATOM     21  F   UNL     1      -0.666   9.474  17.139  0.00  0.00    +0.000 F 
ATOM     22  F   UNL     1      -1.424   9.734  19.169  0.00  0.00    +0.000 F 
ATOM     23  F   UNL     1      -1.102  11.474  17.897  0.00  0.00    +0.000 F 
ENDBRANCH   7  20
BRANCH   7  24
ATOM     24  O   UNL     1       1.485  11.677  18.777  0.00  0.00    +0.000 OA
ATOM     25  H   UNL     1       2.005  11.760  17.956  0.00  0.00    +0.000 HD
ENDBRANCH   7  24
BRANCH   5  26
ATOM     26  C   UNL     1       2.599   7.106  18.019  0.00  0.00    +0.000 C 
BRANCH  26  27
ATOM     27  C   UNL     1       2.403   5.849  18.879  0.00  0.00    +0.000 C 
ATOM     28  C   UNL     1       1.863   4.676  18.052  0.00  0.00    +0.000 C 
ATOM     29  C   UNL     1       3.719   5.453  19.545  0.00  0.00    +0.000 C 
ENDBRANCH  26  27
ENDBRANCH   5  26
TORSDOF 7
ENDMDL
MODEL 6
REMARK VINA RESULT:      -6.2      3.493      7.544
REMARK  Name = 
REMARK  10 active torsions:
REMARK  status: ('A' for Active; 'I' for Inactive)
REMARK    1  A    between atoms: C_1  and  O_2
REMARK    2  A    between atoms: O_2  and  C_3
REMARK    3  A    between atoms: C_8  and  N_9
REMARK    4  A    between atoms: C_10  and  C_12
REMARK    5  A    between atoms: C_16  and  C_17
REMARK    6  A    between atoms: C_17  and  C_18
REMARK    7  A    between atoms: C_18  and  C_19
REMARK    8  A    between atoms: C_18  and  C_20
REMARK    9  A    between atoms: C_22  and  O_23
REMARK   10  A    between atoms: C_22  and  C_24
REMARK                            x       y       z     vdW  Elec       q    Type
REMARK                         _______ _______ _______ _____ _____    ______ ____
ROOT
ATOM      1  C   UNL     1       2.710   5.091  17.953  0.00  0.00    +0.000 C 
ATOM      2  O   UNL     1       1.715   4.512  17.512  0.00  0.00    +0.000 OA
ATOM      3  N   UNL     1       4.027   4.898  17.498  0.00  0.00    +0.000 N 
ATOM      4  N   UNL     1       4.221   4.059  16.396  0.00  0.00    +0.000 NA
ATOM      5  C   UNL     1       5.485   4.059  16.126  0.00  0.00    +0.000 C 
ATOM      6  C   UNL     1       6.348   4.803  17.077  0.00  0.00    +0.000 C 
ATOM      7  C   UNL     1       5.297   5.655  17.788  0.00  0.00    +0.000 C 
ENDROOT
BRANCH   1   9
ATOM      8  N   UNL     1       1.853   7.240  18.867  0.00  0.00    +0.000 N 
ATOM      9  C   UNL     1       2.478   6.027  19.158  0.00  0.00    +0.000 C 
ATOM     10  O   UNL     1       2.827   5.617  20.258  0.00  0.00    +0.000 OA
ATOM     11  H   UNL     1       1.749   7.484  17.889  0.00  0.00    +0.000 HD
BRANCH   8  17
ATOM     12  C   UNL     1       0.935   9.462  19.403  0.00  0.00    +0.000 A 
ATOM     13  C   UNL     1       0.692  10.475  20.352  0.00  0.00    +0.000 A 
ATOM     14  C   UNL     1       0.869  10.233  21.712  0.00  0.00    +0.000 A 
ATOM     15  C   UNL     1       1.282   8.982  22.139  0.00  0.00    +0.000 A 
ATOM     16  C   UNL     1       1.590   7.991  21.199  0.00  0.00    +0.000 A 
ATOM     17  C   UNL     1       1.468   8.222  19.823  0.00  0.00    +0.000 A 
BRANCH  12  19
ATOM     18  C   UNL     1      -0.650  10.014  17.734  0.00  0.00    +0.000 C 
ATOM     19  O   UNL     1       0.700   9.644  18.057  0.00  0.00    +0.000 OA
ENDBRANCH  12  19
ENDBRANCH   8  17
ENDBRANCH   1   9
BRANCH   7  20
ATOM     20  C   UNL     1       5.296   7.116  17.198  0.00  0.00    +0.000 C 
ATOM     21  F   UNL     1       4.920   7.137  15.894  0.00  0.00    +0.000 F 
ATOM     22  F   UNL     1       4.470   7.956  17.866  0.00  0.00    +0.000 F 
ATOM     23  F   UNL     1       6.542   7.697  17.242  0.00  0.00    +0.000 F 
ENDBRANCH   7  20
BRANCH   7  24
ATOM     24  O   UNL     1       5.659   5.518  19.167  0.00  0.00    +0.000 OA
ATOM     25  H   UNL     1       5.526   4.580  19.402  0.00  0.00    +0.000 HD
ENDBRANCH   7  24
BRANCH   5  26
ATOM     26  C   UNL     1       6.086   3.321  14.959  0.00  0.00    +0.000 C 
BRANCH  26  27
ATOM     27  C   UNL     1       6.101   4.151  13.667  0.00  0.00    +0.000 C 
ATOM     28  C   UNL     1       7.391   4.968  13.535  0.00  0.00    +0.000 C 
ATOM     29  C   UNL     1       5.935   3.242  12.452  0.00  0.00    +0.000 C 
ENDBRANCH  26  27
ENDBRANCH   5  26
TORSDOF 7
ENDMDL
MODEL 7
REMARK VINA RESULT:      -6.2      6.381      8.864
REMARK  Name = 
REMARK  10 active torsions:
REMARK  status: ('A' for Active; 'I' for Inactive)
REMARK    1  A    between atoms: C_1  and  O_2
REMARK    2  A    between atoms: O_2  and  C_3
REMARK    3  A    between atoms: C_8  and  N_9
REMARK    4  A    between atoms: C_10  and  C_12
REMARK    5  A    between atoms: C_16  and  C_17
REMARK    6  A    between atoms: C_17  and  C_18
REMARK    7  A    between atoms: C_18  and  C_19
REMARK    8  A    between atoms: C_18  and  C_20
REMARK    9  A    between atoms: C_22  and  O_23
REMARK   10  A    between atoms: C_22  and  C_24
REMARK                            x       y       z     vdW  Elec       q    Type
REMARK                         _______ _______ _______ _____ _____    ______ ____
ROOT
ATOM      1  C   UNL     1       1.309   9.432  21.682  0.00  0.00    +0.000 C 
ATOM      2  O   UNL     1       1.894   9.492  22.765  0.00  0.00    +0.000 OA
ATOM      3  N   UNL     1       0.864  10.540  20.940  0.00  0.00    +0.000 N 
ATOM      4  N   UNL     1       1.190  11.815  21.412  0.00  0.00    +0.000 NA
ATOM      5  C   UNL     1       0.724  12.673  20.565  0.00  0.00    +0.000 C 
ATOM      6  C   UNL     1      -0.089  12.112  19.457  0.00  0.00    +0.000 C 
ATOM      7  C   UNL     1       0.324  10.642  19.537  0.00  0.00    +0.000 C 
ENDROOT
BRANCH   1   9
ATOM      8  N   UNL     1       2.041   7.301  20.628  0.00  0.00    +0.000 N 
ATOM      9  C   UNL     1       0.971   8.017  21.165  0.00  0.00    +0.000 C 
ATOM     10  O   UNL     1      -0.185   7.635  21.300  0.00  0.00    +0.000 OA
ATOM     11  H   UNL     1       2.903   7.808  20.468  0.00  0.00    +0.000 HD
BRANCH   8  17
ATOM     12  C   UNL     1       2.248   5.654  18.808  0.00  0.00    +0.000 A 
ATOM     13  C   UNL     1       2.051   4.341  18.335  0.00  0.00    +0.000 A 
ATOM     14  C   UNL     1       1.704   3.314  19.209  0.00  0.00    +0.000 A 
ATOM     15  C   UNL     1       1.557   3.582  20.559  0.00  0.00    +0.000 A 
ATOM     16  C   UNL     1       1.685   4.895  21.027  0.00  0.00    +0.000 A 
ATOM     17  C   UNL     1       1.985   5.956  20.164  0.00  0.00    +0.000 A 
BRANCH  12  19
ATOM     18  C   UNL     1       4.036   6.589  17.572  0.00  0.00    +0.000 C 
ATOM     19  O   UNL     1       2.662   6.677  17.985  0.00  0.00    +0.000 OA
ENDBRANCH  12  19
ENDBRANCH   8  17
ENDBRANCH   1   9
BRANCH   7  20
ATOM     20  C   UNL     1       1.401  10.323  18.433  0.00  0.00    +0.000 C 
ATOM     21  F   UNL     1       1.843  11.449  17.814  0.00  0.00    +0.000 F 
ATOM     22  F   UNL     1       2.490   9.685  18.924  0.00  0.00    +0.000 F 
ATOM     23  F   UNL     1       0.905   9.514  17.437  0.00  0.00    +0.000 F 
ENDBRANCH   7  20
BRANCH   7  24
ATOM     24  O   UNL     1      -0.929   9.956  19.430  0.00  0.00    +0.000 OA
ATOM     25  H   UNL     1      -0.787   9.201  18.829  0.00  0.00    +0.000 HD
ENDBRANCH   7  24
BRANCH   5  26
ATOM     26  C   UNL     1       0.928  14.161  20.689  0.00  0.00    +0.000 C 
BRANCH  26  27
ATOM     27  C   UNL     1       1.142  14.852  19.335  0.00  0.00    +0.000 C 
ATOM     28  C   UNL     1      -0.020  15.790  18.989  0.00  0.00    +0.000 C 
ATOM     29  C   UNL     1       2.455  15.631  19.339  0.00  0.00    +0.000 C 
ENDBRANCH  26  27
ENDBRANCH   5  26
TORSDOF 7
ENDMDL
MODEL 8
REMARK VINA RESULT:      -6.1      6.884      8.912
REMARK  Name = 
REMARK  10 active torsions:
REMARK  status: ('A' for Active; 'I' for Inactive)
REMARK    1  A    between atoms: C_1  and  O_2
REMARK    2  A    between atoms: O_2  and  C_3
REMARK    3  A    between atoms: C_8  and  N_9
REMARK    4  A    between atoms: C_10  and  C_12
REMARK    5  A    between atoms: C_16  and  C_17
REMARK    6  A    between atoms: C_17  and  C_18
REMARK    7  A    between atoms: C_18  and  C_19
REMARK    8  A    between atoms: C_18  and  C_20
REMARK    9  A    between atoms: C_22  and  O_23
REMARK   10  A    between atoms: C_22  and  C_24
REMARK                            x       y       z     vdW  Elec       q    Type
REMARK                         _______ _______ _______ _____ _____    ______ ____
ROOT
ATOM      1  C   UNL     1      -0.117  10.238  18.792  0.00  0.00    +0.000 C 
ATOM      2  O   UNL     1      -0.889  10.180  17.833  0.00  0.00    +0.000 OA
ATOM      3  N   UNL     1      -0.378  10.903  20.003  0.00  0.00    +0.000 N 
ATOM      4  N   UNL     1      -1.647  11.463  20.179  0.00  0.00    +0.000 NA
ATOM      5  C   UNL     1      -1.682  11.980  21.364  0.00  0.00    +0.000 C 
ATOM      6  C   UNL     1      -0.404  11.951  22.118  0.00  0.00    +0.000 C 
ATOM      7  C   UNL     1       0.361  10.899  21.316  0.00  0.00    +0.000 C 
ENDROOT
BRANCH   1   9
ATOM      8  N   UNL     1       1.337   8.220  18.778  0.00  0.00    +0.000 N 
ATOM      9  C   UNL     1       1.274   9.601  18.588  0.00  0.00    +0.000 C 
ATOM     10  O   UNL     1       2.185  10.346  18.249  0.00  0.00    +0.000 OA
ATOM     11  H   UNL     1       0.525   7.771  19.186  0.00  0.00    +0.000 HD
BRANCH   8  17
ATOM     12  C   UNL     1       2.784   6.344  19.452  0.00  0.00    +0.000 A 
ATOM     13  C   UNL     1       3.998   5.642  19.317  0.00  0.00    +0.000 A 
ATOM     14  C   UNL     1       4.863   5.913  18.259  0.00  0.00    +0.000 A 
ATOM     15  C   UNL     1       4.525   6.878  17.326  0.00  0.00    +0.000 A 
ATOM     16  C   UNL     1       3.353   7.626  17.490  0.00  0.00    +0.000 A 
ATOM     17  C   UNL     1       2.489   7.409  18.570  0.00  0.00    +0.000 A 
BRANCH  12  19
ATOM     18  C   UNL     1       1.923   4.695  20.915  0.00  0.00    +0.000 C 
ATOM     19  O   UNL     1       1.872   6.050  20.442  0.00  0.00    +0.000 OA
ENDBRANCH  12  19
ENDBRANCH   8  17
ENDBRANCH   1   9
BRANCH   7  20
ATOM     20  C   UNL     1       0.304   9.509  22.055  0.00  0.00    +0.000 C 
ATOM     21  F   UNL     1       1.481   8.837  21.963  0.00  0.00    +0.000 F 
ATOM     22  F   UNL     1       0.011   9.621  23.372  0.00  0.00    +0.000 F 
ATOM     23  F   UNL     1      -0.651   8.673  21.524  0.00  0.00    +0.000 F 
ENDBRANCH   7  20
BRANCH   7  24
ATOM     24  O   UNL     1       1.654  11.496  21.165  0.00  0.00    +0.000 OA
ATOM     25  H   UNL     1       1.815  12.027  21.968  0.00  0.00    +0.000 HD
ENDBRANCH   7  24
BRANCH   5  26
ATOM     26  C   UNL     1      -2.908  12.625  21.954  0.00  0.00    +0.000 C 
BRANCH  26  27
ATOM     27  C   UNL     1      -3.872  13.168  20.889  0.00  0.00    +0.000 C 
ATOM     28  C   UNL     1      -5.285  12.599  21.062  0.00  0.00    +0.000 C 
ATOM     29  C   UNL     1      -3.916  14.694  20.944  0.00  0.00    +0.000 C 
ENDBRANCH  26  27
ENDBRANCH   5  26
TORSDOF 7
ENDMDL
MODEL 9
REMARK VINA RESULT:      -6.1      8.114     11.123
REMARK  Name = 
REMARK  10 active torsions:
REMARK  status: ('A' for Active; 'I' for Inactive)
REMARK    1  A    between atoms: C_1  and  O_2
REMARK    2  A    between atoms: O_2  and  C_3
REMARK    3  A    between atoms: C_8  and  N_9
REMARK    4  A    between atoms: C_10  and  C_12
REMARK    5  A    between atoms: C_16  and  C_17
REMARK    6  A    between atoms: C_17  and  C_18
REMARK    7  A    between atoms: C_18  and  C_19
REMARK    8  A    between atoms: C_18  and  C_20
REMARK    9  A    between atoms: C_22  and  O_23
REMARK   10  A    between atoms: C_22  and  C_24
REMARK                            x       y       z     vdW  Elec       q    Type
REMARK                         _______ _______ _______ _____ _____    ______ ____
ROOT
ATOM      1  C   UNL     1       0.596  10.374  21.406  0.00  0.00    +0.000 C 
ATOM      2  O   UNL     1       0.723   9.780  22.479  0.00  0.00    +0.000 OA
ATOM      3  N   UNL     1       1.035   9.897  20.159  0.00  0.00    +0.000 N 
ATOM      4  N   UNL     1       1.572   8.606  20.106  0.00  0.00    +0.000 NA
ATOM      5  C   UNL     1       1.867   8.359  18.873  0.00  0.00    +0.000 C 
ATOM      6  C   UNL     1       1.686   9.488  17.926  0.00  0.00    +0.000 C 
ATOM      7  C   UNL     1       0.785  10.398  18.761  0.00  0.00    +0.000 C 
ENDROOT
BRANCH   1   9
ATOM      8  N   UNL     1      -1.408  11.846  21.486  0.00  0.00    +0.000 N 
ATOM      9  C   UNL     1      -0.013  11.791  21.478  0.00  0.00    +0.000 C 
ATOM     10  O   UNL     1       0.767  12.731  21.555  0.00  0.00    +0.000 OA
ATOM     11  H   UNL     1      -1.906  10.988  21.282  0.00  0.00    +0.000 HD
BRANCH   8  17
ATOM     12  C   UNL     1      -3.188  13.117  22.619  0.00  0.00    +0.000 A 
ATOM     13  C   UNL     1      -4.044  14.237  22.652  0.00  0.00    +0.000 A 
ATOM     14  C   UNL     1      -3.846  15.309  21.785  0.00  0.00    +0.000 A 
ATOM     15  C   UNL     1      -2.795  15.279  20.885  0.00  0.00    +0.000 A 
ATOM     16  C   UNL     1      -1.982  14.142  20.800  0.00  0.00    +0.000 A 
ATOM     17  C   UNL     1      -2.187  13.030  21.625  0.00  0.00    +0.000 A 
BRANCH  12  19
ATOM     18  C   UNL     1      -4.265  12.295  24.559  0.00  0.00    +0.000 C 
ATOM     19  O   UNL     1      -3.310  12.073  23.509  0.00  0.00    +0.000 OA
ENDBRANCH  12  19
ENDBRANCH   8  17
ENDBRANCH   1   9
BRANCH   7  20
ATOM     20  C   UNL     1      -0.715  10.240  18.304  0.00  0.00    +0.000 C 
ATOM     21  F   UNL     1      -0.822   9.534  17.149  0.00  0.00    +0.000 F 
ATOM     22  F   UNL     1      -1.486   9.615  19.226  0.00  0.00    +0.000 F 
ATOM     23  F   UNL     1      -1.318  11.452  18.065  0.00  0.00    +0.000 F 
ENDBRANCH   7  20
BRANCH   7  24
ATOM     24  O   UNL     1       1.381  11.687  18.576  0.00  0.00    +0.000 OA
ATOM     25  H   UNL     1       1.224  11.941  17.647  0.00  0.00    +0.000 HD
ENDBRANCH   7  24
BRANCH   5  26
ATOM     26  C   UNL     1       2.413   7.038  18.396  0.00  0.00    +0.000 C 
BRANCH  26  27
ATOM     27  C   UNL     1       2.799   6.098  19.548  0.00  0.00    +0.000 C 
ATOM     28  C   UNL     1       1.829   4.917  19.663  0.00  0.00    +0.000 C 
ATOM     29  C   UNL     1       4.224   5.584  19.357  0.00  0.00    +0.000 C 
ENDBRANCH  26  27
ENDBRANCH   5  26
TORSDOF 7
ENDMDL
