MODEL 1
REMARK VINA RESULT:      -9.0      0.000      0.000
REMARK  Name = 
REMARK  6 active torsions:
REMARK  status: ('A' for Active; 'I' for Inactive)
REMARK    1  A    between atoms: C_1  and  C_2
REMARK    2  A    between atoms: C_2  and  O_3
REMARK    3  A    between atoms: O_3  and  C_4
REMARK    4  A    between atoms: C_4  and  C_6
REMARK    5  A    between atoms: C_12  and  C_13
REMARK    6  A    between atoms: C_22  and  C_23
REMARK                            x       y       z     vdW  Elec       q    Type
REMARK                         _______ _______ _______ _____ _____    ______ ____
ROOT
ATOM      1  C   UNL     1       6.795   4.690  16.095  0.00  0.00    +0.000 C 
ATOM      2  C   UNL     1       5.681   3.778  16.627  0.00  0.00    +0.000 C 
ATOM      3  C   UNL     1       4.281   4.394  16.551  0.00  0.00    +0.000 C 
ATOM      4  N   UNL     1       4.277   5.775  17.018  0.00  0.00    +0.000 N 
ATOM      5  C   UNL     1       3.473   6.153  18.080  0.00  0.00    +0.000 A 
ATOM      6  C   UNL     1       2.949   7.427  18.140  0.00  0.00    +0.000 A 
ATOM      7  C   UNL     1       2.126   7.723  19.203  0.00  0.00    +0.000 A 
ATOM      8  N   UNL     1       1.897   6.871  20.218  0.00  0.00    +0.000 NA
ATOM      9  C   UNL     1       2.419   5.650  20.076  0.00  0.00    +0.000 A 
ATOM     10  C   UNL     1       2.091   4.644  21.133  0.00  0.00    +0.000 C 
ATOM     11  N   UNL     1       3.174   5.252  19.033  0.00  0.00    +0.000 NA
ATOM     12  C   UNL     1       5.281   6.681  16.477  0.00  0.00    +0.000 C 
ATOM     13  C   UNL     1       6.670   6.090  16.713  0.00  0.00    +0.000 C 
ENDROOT
BRANCH   7  14
ATOM     14  C   UNL     1       1.418   9.044  19.201  0.00  0.00    +0.000 C 
ATOM     15  O   UNL     1       1.564   9.752  18.196  0.00  0.00    +0.000 OA
ATOM     16  N   UNL     1       0.594   9.420  20.267  0.00  0.00    +0.000 N 
ATOM     17  C   UNL     1      -0.162  10.665  20.149  0.00  0.00    +0.000 C 
ATOM     18  C   UNL     1      -0.140  11.452  21.458  0.00  0.00    +0.000 C 
ATOM     19  C   UNL     1      -0.572  10.589  22.643  0.00  0.00    +0.000 C 
ATOM     20  C   UNL     1       0.232   9.292  22.696  0.00  0.00    +0.000 C 
ATOM     21  C   UNL     1       0.154   8.553  21.365  0.00  0.00    +0.000 C 
ENDBRANCH   7  14
BRANCH   1  22
ATOM     22  C   UNL     1       6.893   4.843  14.581  0.00  0.00    +0.000 C 
ATOM     23  O   UNL     1       7.774   5.508  14.045  0.00  0.00    +0.000 OA
BRANCH  22  24
ATOM     24  O   UNL     1       5.864   4.261  13.915  0.00  0.00    +0.000 OA
BRANCH  24  26
ATOM     25  C   UNL     1       5.014   3.213  11.874  0.00  0.00    +0.000 C 
ATOM     26  C   UNL     1       6.223   3.533  12.730  0.00  0.00    +0.000 C 
ENDBRANCH  24  26
ENDBRANCH  22  24
ENDBRANCH   1  22
TORSDOF 4
ENDMDL
MODEL 2
REMARK VINA RESULT:      -8.5      1.421      1.923
REMARK  Name = 
REMARK  6 active torsions:
REMARK  status: ('A' for Active; 'I' for Inactive)
REMARK    1  A    between atoms: C_1  and  C_2
REMARK    2  A    between atoms: C_2  and  O_3
REMARK    3  A    between atoms: O_3  and  C_4
REMARK    4  A    between atoms: C_4  and  C_6
REMARK    5  A    between atoms: C_12  and  C_13
REMARK    6  A    between atoms: C_22  and  C_23
REMARK                            x       y       z     vdW  Elec       q    Type
REMARK                         _______ _______ _______ _____ _____    ______ ____
ROOT
ATOM      1  C   UNL     1       6.430   4.334  16.663  0.00  0.00    +0.000 C 
ATOM      2  C   UNL     1       5.093   3.581  16.679  0.00  0.00    +0.000 C 
ATOM      3  C   UNL     1       3.865   4.493  16.743  0.00  0.00    +0.000 C 
ATOM      4  N   UNL     1       4.033   5.551  17.732  0.00  0.00    +0.000 N 
ATOM      5  C   UNL     1       3.141   5.677  18.782  0.00  0.00    +0.000 A 
ATOM      6  C   UNL     1       2.856   6.917  19.313  0.00  0.00    +0.000 A 
ATOM      7  C   UNL     1       1.930   6.973  20.330  0.00  0.00    +0.000 A 
ATOM      8  N   UNL     1       1.377   5.880  20.885  0.00  0.00    +0.000 NA
ATOM      9  C   UNL     1       1.683   4.718  20.301  0.00  0.00    +0.000 A 
ATOM     10  C   UNL     1       0.998   3.495  20.822  0.00  0.00    +0.000 C 
ATOM     11  N   UNL     1       2.521   4.579  19.255  0.00  0.00    +0.000 NA
ATOM     12  C   UNL     1       5.264   6.328  17.696  0.00  0.00    +0.000 C 
ATOM     13  C   UNL     1       6.460   5.381  17.787  0.00  0.00    +0.000 C 
ENDROOT
BRANCH   7  14
ATOM     14  C   UNL     1       1.489   8.323  20.808  0.00  0.00    +0.000 C 
ATOM     15  O   UNL     1       1.621   8.557  22.016  0.00  0.00    +0.000 OA
ATOM     16  N   UNL     1       1.003   9.279  19.910  0.00  0.00    +0.000 N 
ATOM     17  C   UNL     1       0.704  10.616  20.421  0.00  0.00    +0.000 C 
ATOM     18  C   UNL     1      -0.601  11.153  19.835  0.00  0.00    +0.000 C 
ATOM     19  C   UNL     1      -0.611  11.070  18.309  0.00  0.00    +0.000 C 
ATOM     20  C   UNL     1      -0.263   9.661  17.837  0.00  0.00    +0.000 C 
ATOM     21  C   UNL     1       1.054   9.195  18.447  0.00  0.00    +0.000 C 
ENDBRANCH   7  14
BRANCH   1  22
ATOM     22  C   UNL     1       6.815   5.022  15.358  0.00  0.00    +0.000 C 
ATOM     23  O   UNL     1       7.718   5.852  15.295  0.00  0.00    +0.000 OA
BRANCH  22  24
ATOM     24  O   UNL     1       6.001   4.701  14.321  0.00  0.00    +0.000 OA
BRANCH  24  26
ATOM     25  C   UNL     1       5.639   3.316  12.337  0.00  0.00    +0.000 C 
ATOM     26  C   UNL     1       6.638   4.047  13.212  0.00  0.00    +0.000 C 
ENDBRANCH  24  26
ENDBRANCH  22  24
ENDBRANCH   1  22
TORSDOF 4
ENDMDL
MODEL 3
REMARK VINA RESULT:      -8.3      2.278      8.127
REMARK  Name = 
REMARK  6 active torsions:
REMARK  status: ('A' for Active; 'I' for Inactive)
REMARK    1  A    between atoms: C_1  and  C_2
REMARK    2  A    between atoms: C_2  and  O_3
REMARK    3  A    between atoms: O_3  and  C_4
REMARK    4  A    between atoms: C_4  and  C_6
REMARK    5  A    between atoms: C_12  and  C_13
REMARK    6  A    between atoms: C_22  and  C_23
REMARK                            x       y       z     vdW  Elec       q    Type
REMARK                         _______ _______ _______ _____ _____    ______ ____
ROOT
ATOM      1  C   UNL     1      -0.228  10.033  19.475  0.00  0.00    +0.000 C 
ATOM      2  C   UNL     1      -0.319   9.053  20.653  0.00  0.00    +0.000 C 
ATOM      3  C   UNL     1       1.037   8.533  21.137  0.00  0.00    +0.000 C 
ATOM      4  N   UNL     1       1.890   8.141  20.022  0.00  0.00    +0.000 N 
ATOM      5  C   UNL     1       2.369   6.846  19.928  0.00  0.00    +0.000 A 
ATOM      6  C   UNL     1       3.595   6.594  19.350  0.00  0.00    +0.000 A 
ATOM      7  C   UNL     1       4.028   5.287  19.326  0.00  0.00    +0.000 A 
ATOM      8  N   UNL     1       3.275   4.254  19.742  0.00  0.00    +0.000 NA
ATOM      9  C   UNL     1       2.110   4.579  20.311  0.00  0.00    +0.000 A 
ATOM     10  C   UNL     1       1.300   3.461  20.886  0.00  0.00    +0.000 C 
ATOM     11  N   UNL     1       1.644   5.836  20.444  0.00  0.00    +0.000 NA
ATOM     12  C   UNL     1       2.050   9.081  18.921  0.00  0.00    +0.000 C 
ATOM     13  C   UNL     1       0.672   9.453  18.374  0.00  0.00    +0.000 C 
ENDROOT
BRANCH   7  14
ATOM     14  C   UNL     1       5.422   5.015  18.851  0.00  0.00    +0.000 C 
ATOM     15  O   UNL     1       6.321   5.069  19.701  0.00  0.00    +0.000 OA
ATOM     16  N   UNL     1       5.673   4.663  17.520  0.00  0.00    +0.000 N 
ATOM     17  C   UNL     1       7.037   4.292  17.149  0.00  0.00    +0.000 C 
ATOM     18  C   UNL     1       7.431   4.902  15.806  0.00  0.00    +0.000 C 
ATOM     19  C   UNL     1       6.401   4.590  14.720  0.00  0.00    +0.000 C 
ATOM     20  C   UNL     1       4.995   4.972  15.176  0.00  0.00    +0.000 C 
ATOM     21  C   UNL     1       4.664   4.319  16.513  0.00  0.00    +0.000 C 
ENDBRANCH   7  14
BRANCH   1  22
ATOM     22  C   UNL     1       0.252  11.445  19.792  0.00  0.00    +0.000 C 
ATOM     23  O   UNL     1       0.255  11.896  20.933  0.00  0.00    +0.000 OA
BRANCH  22  24
ATOM     24  O   UNL     1       0.569  12.165  18.686  0.00  0.00    +0.000 OA
BRANCH  24  26
ATOM     25  C   UNL     1       1.657  14.356  18.655  0.00  0.00    +0.000 C 
ATOM     26  C   UNL     1       1.830  12.852  18.733  0.00  0.00    +0.000 C 
ENDBRANCH  24  26
ENDBRANCH  22  24
ENDBRANCH   1  22
TORSDOF 4
ENDMDL
MODEL 4
REMARK VINA RESULT:      -8.1      2.285      8.355
REMARK  Name = 
REMARK  6 active torsions:
REMARK  status: ('A' for Active; 'I' for Inactive)
REMARK    1  A    between atoms: C_1  and  C_2
REMARK    2  A    between atoms: C_2  and  O_3
REMARK    3  A    between atoms: O_3  and  C_4
REMARK    4  A    between atoms: C_4  and  C_6
REMARK    5  A    between atoms: C_12  and  C_13
REMARK    6  A    between atoms: C_22  and  C_23
REMARK                            x       y       z     vdW  Elec       q    Type
REMARK                         _______ _______ _______ _____ _____    ______ ____
ROOT
ATOM      1  C   UNL     1      -0.263  10.034  19.284  0.00  0.00    +0.000 C 
ATOM      2  C   UNL     1      -0.317   9.119  20.516  0.00  0.00    +0.000 C 
ATOM      3  C   UNL     1       1.055   8.647  21.003  0.00  0.00    +0.000 C 
ATOM      4  N   UNL     1       1.896   8.207  19.896  0.00  0.00    +0.000 N 
ATOM      5  C   UNL     1       2.394   6.916  19.865  0.00  0.00    +0.000 A 
ATOM      6  C   UNL     1       3.614   6.653  19.280  0.00  0.00    +0.000 A 
ATOM      7  C   UNL     1       4.067   5.353  19.320  0.00  0.00    +0.000 A 
ATOM      8  N   UNL     1       3.339   4.333  19.806  0.00  0.00    +0.000 NA
ATOM      9  C   UNL     1       2.179   4.671  20.377  0.00  0.00    +0.000 A 
ATOM     10  C   UNL     1       1.397   3.574  21.026  0.00  0.00    +0.000 C 
ATOM     11  N   UNL     1       1.694   5.926  20.449  0.00  0.00    +0.000 NA
ATOM     12  C   UNL     1       2.021   9.088  18.743  0.00  0.00    +0.000 C 
ATOM     13  C   UNL     1       0.628   9.408  18.201  0.00  0.00    +0.000 C 
ENDROOT
BRANCH   7  14
ATOM     14  C   UNL     1       5.458   5.076  18.836  0.00  0.00    +0.000 C 
ATOM     15  O   UNL     1       6.369   5.181  19.668  0.00  0.00    +0.000 OA
ATOM     16  N   UNL     1       5.693   4.668  17.519  0.00  0.00    +0.000 N 
ATOM     17  C   UNL     1       7.056   4.297  17.143  0.00  0.00    +0.000 C 
ATOM     18  C   UNL     1       7.421   4.849  15.767  0.00  0.00    +0.000 C 
ATOM     19  C   UNL     1       6.379   4.476  14.713  0.00  0.00    +0.000 C 
ATOM     20  C   UNL     1       4.975   4.861  15.174  0.00  0.00    +0.000 C 
ATOM     21  C   UNL     1       4.673   4.265  16.544  0.00  0.00    +0.000 C 
ENDBRANCH   7  14
BRANCH   1  22
ATOM     22  C   UNL     1       0.200  11.468  19.514  0.00  0.00    +0.000 C 
ATOM     23  O   UNL     1       0.427  12.240  18.588  0.00  0.00    +0.000 OA
BRANCH  22  24
ATOM     24  O   UNL     1       0.426  11.756  20.821  0.00  0.00    +0.000 OA
BRANCH  24  26
ATOM     25  C   UNL     1      -0.258  13.931  21.708  0.00  0.00    +0.000 C 
ATOM     26  C   UNL     1       0.852  13.101  21.095  0.00  0.00    +0.000 C 
ENDBRANCH  24  26
ENDBRANCH  22  24
ENDBRANCH   1  22
TORSDOF 4
ENDMDL
MODEL 5
REMARK VINA RESULT:      -7.5      2.078      7.907
REMARK  Name = 
REMARK  6 active torsions:
REMARK  status: ('A' for Active; 'I' for Inactive)
REMARK    1  A    between atoms: C_1  and  C_2
REMARK    2  A    between atoms: C_2  and  O_3
REMARK    3  A    between atoms: O_3  and  C_4
REMARK    4  A    between atoms: C_4  and  C_6
REMARK    5  A    between atoms: C_12  and  C_13
REMARK    6  A    between atoms: C_22  and  C_23
REMARK                            x       y       z     vdW  Elec       q    Type
REMARK                         _______ _______ _______ _____ _____    ______ ____
ROOT
ATOM      1  C   UNL     1      -0.054  10.182  20.711  0.00  0.00    +0.000 C 
ATOM      2  C   UNL     1       0.450   9.217  21.793  0.00  0.00    +0.000 C 
ATOM      3  C   UNL     1       1.770   8.525  21.446  0.00  0.00    +0.000 C 
ATOM      4  N   UNL     1       1.771   8.029  20.075  0.00  0.00    +0.000 N 
ATOM      5  C   UNL     1       1.964   6.684  19.816  0.00  0.00    +0.000 A 
ATOM      6  C   UNL     1       2.594   6.278  18.659  0.00  0.00    +0.000 A 
ATOM      7  C   UNL     1       2.788   4.926  18.484  0.00  0.00    +0.000 A 
ATOM      8  N   UNL     1       2.309   3.997  19.330  0.00  0.00    +0.000 NA
ATOM      9  C   UNL     1       1.733   4.468  20.440  0.00  0.00    +0.000 A 
ATOM     10  C   UNL     1       1.291   3.463  21.455  0.00  0.00    +0.000 C 
ATOM     11  N   UNL     1       1.568   5.774  20.727  0.00  0.00    +0.000 NA
ATOM     12  C   UNL     1       1.364   8.946  19.019  0.00  0.00    +0.000 C 
ATOM     13  C   UNL     1      -0.026   9.495  19.338  0.00  0.00    +0.000 C 
ENDROOT
BRANCH   7  14
ATOM     14  C   UNL     1       3.611   4.477  17.315  0.00  0.00    +0.000 C 
ATOM     15  O   UNL     1       3.178   3.517  16.665  0.00  0.00    +0.000 OA
ATOM     16  N   UNL     1       4.780   5.155  16.957  0.00  0.00    +0.000 N 
ATOM     17  C   UNL     1       5.471   4.743  15.737  0.00  0.00    +0.000 C 
ATOM     18  C   UNL     1       6.984   4.708  15.942  0.00  0.00    +0.000 C 
ATOM     19  C   UNL     1       7.507   6.023  16.520  0.00  0.00    +0.000 C 
ATOM     20  C   UNL     1       6.729   6.415  17.774  0.00  0.00    +0.000 C 
ATOM     21  C   UNL     1       5.230   6.444  17.494  0.00  0.00    +0.000 C 
ENDBRANCH   7  14
BRANCH   1  22
ATOM     22  C   UNL     1       0.670  11.519  20.591  0.00  0.00    +0.000 C 
ATOM     23  O   UNL     1       1.323  11.996  21.515  0.00  0.00    +0.000 OA
BRANCH  22  24
ATOM     24  O   UNL     1       0.432  12.155  19.417  0.00  0.00    +0.000 OA
BRANCH  24  26
ATOM     25  C   UNL     1       2.477  12.677  18.179  0.00  0.00    +0.000 C 
ATOM     26  C   UNL     1       1.366  13.191  19.072  0.00  0.00    +0.000 C 
ENDBRANCH  24  26
ENDBRANCH  22  24
ENDBRANCH   1  22
TORSDOF 4
ENDMDL
MODEL 6
REMARK VINA RESULT:      -7.3      1.743      8.672
REMARK  Name = 
REMARK  6 active torsions:
REMARK  status: ('A' for Active; 'I' for Inactive)
REMARK    1  A    between atoms: C_1  and  C_2
REMARK    2  A    between atoms: C_2  and  O_3
REMARK    3  A    between atoms: O_3  and  C_4
REMARK    4  A    between atoms: C_4  and  C_6
REMARK    5  A    between atoms: C_12  and  C_13
REMARK    6  A    between atoms: C_22  and  C_23
REMARK                            x       y       z     vdW  Elec       q    Type
REMARK                         _______ _______ _______ _____ _____    ______ ____
ROOT
ATOM      1  C   UNL     1       0.367   9.567  19.380  0.00  0.00    +0.000 C 
ATOM      2  C   UNL     1       0.554   8.221  20.094  0.00  0.00    +0.000 C 
ATOM      3  C   UNL     1       2.000   7.721  20.113  0.00  0.00    +0.000 C 
ATOM      4  N   UNL     1       2.636   7.866  18.809  0.00  0.00    +0.000 N 
ATOM      5  C   UNL     1       3.145   6.760  18.152  0.00  0.00    +0.000 A 
ATOM      6  C   UNL     1       4.245   6.881  17.329  0.00  0.00    +0.000 A 
ATOM      7  C   UNL     1       4.723   5.733  16.738  0.00  0.00    +0.000 A 
ATOM      8  N   UNL     1       4.115   4.539  16.847  0.00  0.00    +0.000 NA
ATOM      9  C   UNL     1       3.071   4.497  17.680  0.00  0.00    +0.000 A 
ATOM     10  C   UNL     1       2.440   3.160  17.910  0.00  0.00    +0.000 C 
ATOM     11  N   UNL     1       2.582   5.554  18.356  0.00  0.00    +0.000 NA
ATOM     12  C   UNL     1       2.533   9.155  18.139  0.00  0.00    +0.000 C 
ATOM     13  C   UNL     1       1.059   9.538  18.010  0.00  0.00    +0.000 C 
ENDROOT
BRANCH   7  14
ATOM     14  C   UNL     1       6.009   5.817  15.973  0.00  0.00    +0.000 C 
ATOM     15  O   UNL     1       6.847   6.632  16.379  0.00  0.00    +0.000 OA
ATOM     16  N   UNL     1       6.256   4.970  14.888  0.00  0.00    +0.000 N 
ATOM     17  C   UNL     1       7.575   5.018  14.260  0.00  0.00    +0.000 C 
ATOM     18  C   UNL     1       7.467   4.962  12.738  0.00  0.00    +0.000 C 
ATOM     19  C   UNL     1       6.618   3.779  12.274  0.00  0.00    +0.000 C 
ATOM     20  C   UNL     1       5.266   3.767  12.984  0.00  0.00    +0.000 C 
ATOM     21  C   UNL     1       5.449   3.809  14.497  0.00  0.00    +0.000 C 
ENDBRANCH   7  14
BRANCH   1  22
ATOM     22  C   UNL     1       0.835  10.811  20.127  0.00  0.00    +0.000 C 
ATOM     23  O   UNL     1       1.229  11.817  19.544  0.00  0.00    +0.000 OA
BRANCH  22  24
ATOM     24  O   UNL     1       0.865  10.649  21.474  0.00  0.00    +0.000 OA
BRANCH  24  26
ATOM     25  C   UNL     1      -0.846  10.152  23.150  0.00  0.00    +0.000 C 
ATOM     26  C   UNL     1      -0.268  11.170  22.188  0.00  0.00    +0.000 C 
ENDBRANCH  24  26
ENDBRANCH  22  24
ENDBRANCH   1  22
TORSDOF 4
ENDMDL
MODEL 7
REMARK VINA RESULT:      -7.3      2.248      8.132
REMARK  Name = 
REMARK  6 active torsions:
REMARK  status: ('A' for Active; 'I' for Inactive)
REMARK    1  A    between atoms: C_1  and  C_2
REMARK    2  A    between atoms: C_2  and  O_3
REMARK    3  A    between atoms: O_3  and  C_4
REMARK    4  A    between atoms: C_4  and  C_6
REMARK    5  A    between atoms: C_12  and  C_13
REMARK    6  A    between atoms: C_22  and  C_23
REMARK                            x       y       z     vdW  Elec       q    Type
REMARK                         _______ _______ _______ _____ _____    ______ ____
ROOT
ATOM      1  C   UNL     1      -0.356  10.185  20.517  0.00  0.00    +0.000 C 
ATOM      2  C   UNL     1      -0.044   9.175  21.630  0.00  0.00    +0.000 C 
ATOM      3  C   UNL     1       1.344   8.539  21.523  0.00  0.00    +0.000 C 
ATOM      4  N   UNL     1       1.640   8.123  20.157  0.00  0.00    +0.000 N 
ATOM      5  C   UNL     1       1.932   6.799  19.876  0.00  0.00    +0.000 A 
ATOM      6  C   UNL     1       2.796   6.477  18.852  0.00  0.00    +0.000 A 
ATOM      7  C   UNL     1       3.073   5.143  18.653  0.00  0.00    +0.000 A 
ATOM      8  N   UNL     1       2.470   4.155  19.337  0.00  0.00    +0.000 NA
ATOM      9  C   UNL     1       1.665   4.547  20.329  0.00  0.00    +0.000 A 
ATOM     10  C   UNL     1       1.067   3.474  21.182  0.00  0.00    +0.000 C 
ATOM     11  N   UNL     1       1.396   5.830  20.641  0.00  0.00    +0.000 NA
ATOM     12  C   UNL     1       1.418   9.086  19.087  0.00  0.00    +0.000 C 
ATOM     13  C   UNL     1      -0.027   9.578  19.146  0.00  0.00    +0.000 C 
ENDROOT
BRANCH   7  14
ATOM     14  C   UNL     1       4.130   4.784  17.654  0.00  0.00    +0.000 C 
ATOM     15  O   UNL     1       3.756   4.183  16.638  0.00  0.00    +0.000 OA
ATOM     16  N   UNL     1       5.462   5.163  17.850  0.00  0.00    +0.000 N 
ATOM     17  C   UNL     1       6.422   4.888  16.782  0.00  0.00    +0.000 C 
ATOM     18  C   UNL     1       7.743   4.369  17.346  0.00  0.00    +0.000 C 
ATOM     19  C   UNL     1       8.294   5.289  18.435  0.00  0.00    +0.000 C 
ATOM     20  C   UNL     1       7.239   5.561  19.503  0.00  0.00    +0.000 C 
ATOM     21  C   UNL     1       5.955   6.090  18.874  0.00  0.00    +0.000 C 
ENDBRANCH   7  14
BRANCH   1  22
ATOM     22  C   UNL     1       0.325  11.546  20.613  0.00  0.00    +0.000 C 
ATOM     23  O   UNL     1       1.032  11.859  21.566  0.00  0.00    +0.000 OA
BRANCH  22  24
ATOM     24  O   UNL     1      -0.013  12.388  19.605  0.00  0.00    +0.000 OA
BRANCH  24  26
ATOM     25  C   UNL     1       1.034  14.590  19.396  0.00  0.00    +0.000 C 
ATOM     26  C   UNL     1       1.074  13.122  19.019  0.00  0.00    +0.000 C 
ENDBRANCH  24  26
ENDBRANCH  22  24
ENDBRANCH   1  22
TORSDOF 4
ENDMDL
MODEL 8
REMARK VINA RESULT:      -7.2      2.260      8.315
REMARK  Name = 
REMARK  6 active torsions:
REMARK  status: ('A' for Active; 'I' for Inactive)
REMARK    1  A    between atoms: C_1  and  C_2
REMARK    2  A    between atoms: C_2  and  O_3
REMARK    3  A    between atoms: O_3  and  C_4
REMARK    4  A    between atoms: C_4  and  C_6
REMARK    5  A    between atoms: C_12  and  C_13
REMARK    6  A    between atoms: C_22  and  C_23
REMARK                            x       y       z     vdW  Elec       q    Type
REMARK                         _______ _______ _______ _____ _____    ______ ____
ROOT
ATOM      1  C   UNL     1      -0.445  10.140  20.722  0.00  0.00    +0.000 C 
ATOM      2  C   UNL     1      -0.064   9.125  21.810  0.00  0.00    +0.000 C 
ATOM      3  C   UNL     1       1.338   8.534  21.648  0.00  0.00    +0.000 C 
ATOM      4  N   UNL     1       1.600   8.145  20.267  0.00  0.00    +0.000 N 
ATOM      5  C   UNL     1       1.923   6.835  19.958  0.00  0.00    +0.000 A 
ATOM      6  C   UNL     1       2.761   6.553  18.901  0.00  0.00    +0.000 A 
ATOM      7  C   UNL     1       3.072   5.231  18.674  0.00  0.00    +0.000 A 
ATOM      8  N   UNL     1       2.523   4.216  19.364  0.00  0.00    +0.000 NA
ATOM      9  C   UNL     1       1.741   4.570  20.388  0.00  0.00    +0.000 A 
ATOM     10  C   UNL     1       1.205   3.467  21.245  0.00  0.00    +0.000 C 
ATOM     11  N   UNL     1       1.444   5.839  20.727  0.00  0.00    +0.000 NA
ATOM     12  C   UNL     1       1.313   9.114  19.219  0.00  0.00    +0.000 C 
ATOM     13  C   UNL     1      -0.144   9.560  19.332  0.00  0.00    +0.000 C 
ENDROOT
BRANCH   7  14
ATOM     14  C   UNL     1       4.105   4.917  17.635  0.00  0.00    +0.000 C 
ATOM     15  O   UNL     1       3.699   4.419  16.578  0.00  0.00    +0.000 OA
ATOM     16  N   UNL     1       5.453   5.229  17.845  0.00  0.00    +0.000 N 
ATOM     17  C   UNL     1       6.391   5.009  16.747  0.00  0.00    +0.000 C 
ATOM     18  C   UNL     1       7.697   4.395  17.248  0.00  0.00    +0.000 C 
ATOM     19  C   UNL     1       8.293   5.198  18.403  0.00  0.00    +0.000 C 
ATOM     20  C   UNL     1       7.258   5.419  19.504  0.00  0.00    +0.000 C 
ATOM     21  C   UNL     1       5.990   6.047  18.937  0.00  0.00    +0.000 C 
ENDBRANCH   7  14
BRANCH   1  22
ATOM     22  C   UNL     1       0.197  11.519  20.815  0.00  0.00    +0.000 C 
ATOM     23  O   UNL     1       1.224  11.723  21.455  0.00  0.00    +0.000 OA
BRANCH  22  24
ATOM     24  O   UNL     1      -0.531  12.492  20.212  0.00  0.00    +0.000 OA
BRANCH  24  26
ATOM     25  C   UNL     1      -2.902  12.352  19.625  0.00  0.00    +0.000 C 
ATOM     26  C   UNL     1      -1.874  12.653  20.697  0.00  0.00    +0.000 C 
ENDBRANCH  24  26
ENDBRANCH  22  24
ENDBRANCH   1  22
TORSDOF 4
ENDMDL
MODEL 9
REMARK VINA RESULT:      -7.1      1.926      8.645
REMARK  Name = 
REMARK  6 active torsions:
REMARK  status: ('A' for Active; 'I' for Inactive)
REMARK    1  A    between atoms: C_1  and  C_2
REMARK    2  A    between atoms: C_2  and  O_3
REMARK    3  A    between atoms: O_3  and  C_4
REMARK    4  A    between atoms: C_4  and  C_6
REMARK    5  A    between atoms: C_12  and  C_13
REMARK    6  A    between atoms: C_22  and  C_23
REMARK                            x       y       z     vdW  Elec       q    Type
REMARK                         _______ _______ _______ _____ _____    ______ ____
ROOT
ATOM      1  C   UNL     1       0.209   9.758  19.446  0.00  0.00    +0.000 C 
ATOM      2  C   UNL     1       0.403   8.434  20.199  0.00  0.00    +0.000 C 
ATOM      3  C   UNL     1       1.852   7.939  20.227  0.00  0.00    +0.000 C 
ATOM      4  N   UNL     1       2.480   8.046  18.915  0.00  0.00    +0.000 N 
ATOM      5  C   UNL     1       2.990   6.921  18.290  0.00  0.00    +0.000 A 
ATOM      6  C   UNL     1       4.084   7.020  17.458  0.00  0.00    +0.000 A 
ATOM      7  C   UNL     1       4.563   5.857  16.900  0.00  0.00    +0.000 A 
ATOM      8  N   UNL     1       3.959   4.665  17.048  0.00  0.00    +0.000 NA
ATOM      9  C   UNL     1       2.919   4.645  17.887  0.00  0.00    +0.000 A 
ATOM     10  C   UNL     1       2.294   3.314  18.161  0.00  0.00    +0.000 C 
ATOM     11  N   UNL     1       2.431   5.721  18.533  0.00  0.00    +0.000 NA
ATOM     12  C   UNL     1       2.370   9.314  18.207  0.00  0.00    +0.000 C 
ATOM     13  C   UNL     1       0.895   9.689  18.074  0.00  0.00    +0.000 C 
ENDROOT
BRANCH   7  14
ATOM     14  C   UNL     1       5.845   5.920  16.126  0.00  0.00    +0.000 C 
ATOM     15  O   UNL     1       6.674   6.764  16.491  0.00  0.00    +0.000 OA
ATOM     16  N   UNL     1       6.098   5.027  15.080  0.00  0.00    +0.000 N 
ATOM     17  C   UNL     1       7.414   5.062  14.446  0.00  0.00    +0.000 C 
ATOM     18  C   UNL     1       7.301   4.934  12.928  0.00  0.00    +0.000 C 
ATOM     19  C   UNL     1       6.465   3.721  12.523  0.00  0.00    +0.000 C 
ATOM     20  C   UNL     1       5.116   3.725  13.239  0.00  0.00    +0.000 C 
ATOM     21  C   UNL     1       5.304   3.839  14.747  0.00  0.00    +0.000 C 
ENDBRANCH   7  14
BRANCH   1  22
ATOM     22  C   UNL     1       0.678  11.025  20.152  0.00  0.00    +0.000 C 
ATOM     23  O   UNL     1       1.039  11.027  21.325  0.00  0.00    +0.000 OA
BRANCH  22  24
ATOM     24  O   UNL     1       0.554  12.141  19.391  0.00  0.00    +0.000 OA
BRANCH  24  26
ATOM     25  C   UNL     1      -1.543  13.200  20.075  0.00  0.00    +0.000 C 
ATOM     26  C   UNL     1      -0.029  13.279  20.046  0.00  0.00    +0.000 C 
ENDBRANCH  24  26
ENDBRANCH  22  24
ENDBRANCH   1  22
TORSDOF 4
ENDMDL
