MODEL 1
REMARK VINA RESULT:      -7.5      0.000      0.000
REMARK  Name = 
REMARK  13 active torsions:
REMARK  status: ('A' for Active; 'I' for Inactive)
REMARK    1  A    between atoms: C_1  and  N_2
REMARK    2  A    between atoms: N_2  and  C_3
REMARK    3  A    between atoms: N_2  and  C_15
REMARK    4  A    between atoms: C_3  and  C_4
REMARK    5  A    between atoms: C_4  and  C_5
REMARK    6  A    between atoms: C_5  and  C_6
REMARK    7  A    between atoms: C_6  and  O_7
REMARK    8  A    between atoms: O_7  and  C_8
REMARK    9  A    between atoms: C_15  and  C_16
REMARK   10  A    between atoms: C_16  and  O_17
REMARK   11  A    between atoms: C_16  and  C_18
REMARK   12  A    between atoms: C_16  and  C_24
REMARK   13  A    between atoms: C_18  and  N_19
REMARK                            x       y       z     vdW  Elec       q    Type
REMARK                         _______ _______ _______ _____ _____    ______ ____
ROOT
ATOM      1  C   UNL     1       5.779   5.818  16.387  0.00  0.00    +0.000 C 
ENDROOT
BRANCH   1   2
ATOM      2  C   UNL     1       4.652   5.868  17.434  0.00  0.00    +0.000 A 
ATOM      3  C   UNL     1       3.793   6.974  17.560  0.00  0.00    +0.000 A 
ATOM      4  C   UNL     1       2.855   7.049  18.597  0.00  0.00    +0.000 A 
ATOM      5  C   UNL     1       2.738   5.996  19.491  0.00  0.00    +0.000 A 
ATOM      6  F   UNL     1       1.838   6.068  20.482  0.00  0.00    +0.000 F 
ATOM      7  C   UNL     1       3.536   4.871  19.372  0.00  0.00    +0.000 A 
ATOM      8  C   UNL     1       4.486   4.820  18.355  0.00  0.00    +0.000 A 
ATOM      9  F   UNL     1       5.252   3.723  18.265  0.00  0.00    +0.000 F 
ENDBRANCH   1   2
BRANCH   1  10
ATOM     10  O   UNL     1       5.551   6.821  15.375  0.00  0.00    +0.000 OA
ATOM     11  H   UNL     1       5.229   7.617  15.853  0.00  0.00    +0.000 HD
ENDBRANCH   1  10
BRANCH   1  12
ATOM     12  C   UNL     1       7.197   6.021  17.077  0.00  0.00    +0.000 C 
BRANCH  12  14
ATOM     13  C   UNL     1       7.898   5.510  19.321  0.00  0.00    +0.000 C 
ATOM     14  N   UNL     1       7.325   6.576  18.467  0.00  0.00    +0.000 NA
BRANCH  14  15
ATOM     15  C   UNL     1       8.231   7.744  18.581  0.00  0.00    +0.000 C 
BRANCH  15  16
ATOM     16  C   UNL     1       8.004   8.854  17.557  0.00  0.00    +0.000 C 
BRANCH  16  17
ATOM     17  C   UNL     1       8.203  10.278  18.067  0.00  0.00    +0.000 C 
BRANCH  17  18
ATOM     18  C   UNL     1       9.541  10.473  18.777  0.00  0.00    +0.000 C 
BRANCH  18  19
ATOM     19  O   UNL     1      10.486  10.938  17.816  0.00  0.00    +0.000 OA
BRANCH  19  20
ATOM     20  C   UNL     1      10.926  12.218  18.013  0.00  0.00    +0.000 A 
ATOM     21  C   UNL     1      10.716  13.284  17.134  0.00  0.00    +0.000 A 
ATOM     22  C   UNL     1      11.195  14.557  17.451  0.00  0.00    +0.000 A 
ATOM     23  C   UNL     1      11.874  14.758  18.648  0.00  0.00    +0.000 A 
ATOM     24  F   UNL     1      12.333  15.978  18.947  0.00  0.00    +0.000 F 
ATOM     25  C   UNL     1      12.072  13.711  19.538  0.00  0.00    +0.000 A 
ATOM     26  C   UNL     1      11.593  12.440  19.222  0.00  0.00    +0.000 A 
ENDBRANCH  19  20
ENDBRANCH  18  19
ENDBRANCH  17  18
ENDBRANCH  16  17
ENDBRANCH  15  16
ENDBRANCH  14  15
ENDBRANCH  12  14
ENDBRANCH   1  12
BRANCH   1  27
ATOM     27  C   UNL     1       5.708   4.481  15.592  0.00  0.00    +0.000 C 
BRANCH  27  28
ATOM     28  N   UNL     1       6.387   4.485  14.305  0.00  0.00    +0.000 N 
ATOM     29  C   UNL     1       6.053   3.775  13.196  0.00  0.00    +0.000 A 
ATOM     30  N   UNL     1       6.906   4.035  12.231  0.00  0.00    +0.000 NA
ATOM     31  C   UNL     1       7.737   4.958  12.793  0.00  0.00    +0.000 A 
ATOM     32  N   UNL     1       7.442   5.296  14.049  0.00  0.00    +0.000 NA
ENDBRANCH  27  28
ENDBRANCH   1  27
TORSDOF 12
ENDMDL
MODEL 2
REMARK VINA RESULT:      -7.4      2.927      4.503
REMARK  Name = 
REMARK  13 active torsions:
REMARK  status: ('A' for Active; 'I' for Inactive)
REMARK    1  A    between atoms: C_1  and  N_2
REMARK    2  A    between atoms: N_2  and  C_3
REMARK    3  A    between atoms: N_2  and  C_15
REMARK    4  A    between atoms: C_3  and  C_4
REMARK    5  A    between atoms: C_4  and  C_5
REMARK    6  A    between atoms: C_5  and  C_6
REMARK    7  A    between atoms: C_6  and  O_7
REMARK    8  A    between atoms: O_7  and  C_8
REMARK    9  A    between atoms: C_15  and  C_16
REMARK   10  A    between atoms: C_16  and  O_17
REMARK   11  A    between atoms: C_16  and  C_18
REMARK   12  A    between atoms: C_16  and  C_24
REMARK   13  A    between atoms: C_18  and  N_19
REMARK                            x       y       z     vdW  Elec       q    Type
REMARK                         _______ _______ _______ _____ _____    ______ ____
ROOT
ATOM      1  C   UNL     1       3.004   6.219  18.670  0.00  0.00    +0.000 C 
ENDROOT
BRANCH   1   2
ATOM      2  C   UNL     1       2.264   7.440  19.245  0.00  0.00    +0.000 A 
ATOM      3  C   UNL     1       1.831   7.494  20.581  0.00  0.00    +0.000 A 
ATOM      4  C   UNL     1       1.055   8.561  21.049  0.00  0.00    +0.000 A 
ATOM      5  C   UNL     1       0.742   9.606  20.193  0.00  0.00    +0.000 A 
ATOM      6  F   UNL     1       0.001  10.629  20.642  0.00  0.00    +0.000 F 
ATOM      7  C   UNL     1       1.190   9.610  18.883  0.00  0.00    +0.000 A 
ATOM      8  C   UNL     1       1.936   8.529  18.420  0.00  0.00    +0.000 A 
ATOM      9  F   UNL     1       2.351   8.551  17.145  0.00  0.00    +0.000 F 
ENDBRANCH   1   2
BRANCH   1  10
ATOM     10  O   UNL     1       2.136   5.500  17.768  0.00  0.00    +0.000 OA
ATOM     11  H   UNL     1       1.270   5.966  17.801  0.00  0.00    +0.000 HD
ENDBRANCH   1  10
BRANCH   1  12
ATOM     12  C   UNL     1       4.340   6.666  17.933  0.00  0.00    +0.000 C 
BRANCH  12  14
ATOM     13  C   UNL     1       5.552   5.799  16.044  0.00  0.00    +0.000 C 
ATOM     14  N   UNL     1       5.379   5.667  17.509  0.00  0.00    +0.000 NA
BRANCH  14  15
ATOM     15  C   UNL     1       6.715   5.877  18.115  0.00  0.00    +0.000 C 
BRANCH  15  16
ATOM     16  C   UNL     1       7.621   6.866  17.384  0.00  0.00    +0.000 C 
BRANCH  16  17
ATOM     17  C   UNL     1       7.366   8.342  17.678  0.00  0.00    +0.000 C 
BRANCH  17  18
ATOM     18  C   UNL     1       8.562   9.031  18.332  0.00  0.00    +0.000 C 
BRANCH  18  19
ATOM     19  O   UNL     1       8.615  10.371  17.849  0.00  0.00    +0.000 OA
BRANCH  19  20
ATOM     20  C   UNL     1       9.271  11.252  18.664  0.00  0.00    +0.000 A 
ATOM     21  C   UNL     1       9.642  10.999  19.988  0.00  0.00    +0.000 A 
ATOM     22  C   UNL     1      10.330  11.969  20.720  0.00  0.00    +0.000 A 
ATOM     23  C   UNL     1      10.649  13.184  20.122  0.00  0.00    +0.000 A 
ATOM     24  F   UNL     1      11.305  14.112  20.826  0.00  0.00    +0.000 F 
ATOM     25  C   UNL     1      10.302  13.440  18.802  0.00  0.00    +0.000 A 
ATOM     26  C   UNL     1       9.616  12.471  18.071  0.00  0.00    +0.000 A 
ENDBRANCH  19  20
ENDBRANCH  18  19
ENDBRANCH  17  18
ENDBRANCH  16  17
ENDBRANCH  15  16
ENDBRANCH  14  15
ENDBRANCH  12  14
ENDBRANCH   1  12
BRANCH   1  27
ATOM     27  C   UNL     1       3.284   5.185  19.800  0.00  0.00    +0.000 C 
BRANCH  27  28
ATOM     28  N   UNL     1       2.859   3.823  19.516  0.00  0.00    +0.000 N 
ATOM     29  C   UNL     1       1.796   3.165  20.050  0.00  0.00    +0.000 A 
ATOM     30  N   UNL     1       1.737   1.948  19.557  0.00  0.00    +0.000 NA
ATOM     31  C   UNL     1       2.779   1.919  18.678  0.00  0.00    +0.000 A 
ATOM     32  N   UNL     1       3.477   3.052  18.588  0.00  0.00    +0.000 NA
ENDBRANCH  27  28
ENDBRANCH   1  27
TORSDOF 12
ENDMDL
MODEL 3
REMARK VINA RESULT:      -7.4      5.865      8.361
REMARK  Name = 
REMARK  13 active torsions:
REMARK  status: ('A' for Active; 'I' for Inactive)
REMARK    1  A    between atoms: C_1  and  N_2
REMARK    2  A    between atoms: N_2  and  C_3
REMARK    3  A    between atoms: N_2  and  C_15
REMARK    4  A    between atoms: C_3  and  C_4
REMARK    5  A    between atoms: C_4  and  C_5
REMARK    6  A    between atoms: C_5  and  C_6
REMARK    7  A    between atoms: C_6  and  O_7
REMARK    8  A    between atoms: O_7  and  C_8
REMARK    9  A    between atoms: C_15  and  C_16
REMARK   10  A    between atoms: C_16  and  O_17
REMARK   11  A    between atoms: C_16  and  C_18
REMARK   12  A    between atoms: C_16  and  C_24
REMARK   13  A    between atoms: C_18  and  N_19
REMARK                            x       y       z     vdW  Elec       q    Type
REMARK                         _______ _______ _______ _____ _____    ______ ____
ROOT
ATOM      1  C   UNL     1       4.049   4.880  18.333  0.00  0.00    +0.000 C 
ENDROOT
BRANCH   1   2
ATOM      2  C   UNL     1       4.959   4.929  17.093  0.00  0.00    +0.000 A 
ATOM      3  C   UNL     1       5.028   3.871  16.169  0.00  0.00    +0.000 A 
ATOM      4  C   UNL     1       5.951   3.886  15.117  0.00  0.00    +0.000 A 
ATOM      5  C   UNL     1       6.785   4.982  14.954  0.00  0.00    +0.000 A 
ATOM      6  F   UNL     1       7.667   4.997  13.945  0.00  0.00    +0.000 F 
ATOM      7  C   UNL     1       6.715   6.063  15.816  0.00  0.00    +0.000 A 
ATOM      8  C   UNL     1       5.814   6.024  16.878  0.00  0.00    +0.000 A 
ATOM      9  F   UNL     1       5.770   7.078  17.704  0.00  0.00    +0.000 F 
ENDBRANCH   1   2
BRANCH   1  10
ATOM     10  O   UNL     1       4.831   5.113  19.524  0.00  0.00    +0.000 OA
ATOM     11  H   UNL     1       5.632   5.600  19.228  0.00  0.00    +0.000 HD
ENDBRANCH   1  10
BRANCH   1  12
ATOM     12  C   UNL     1       2.873   5.943  18.210  0.00  0.00    +0.000 C 
BRANCH  12  14
ATOM     13  C   UNL     1       2.200   8.250  18.325  0.00  0.00    +0.000 C 
ATOM     14  N   UNL     1       2.801   7.145  19.107  0.00  0.00    +0.000 NA
BRANCH  14  15
ATOM     15  C   UNL     1       1.951   6.964  20.308  0.00  0.00    +0.000 C 
BRANCH  15  16
ATOM     16  C   UNL     1       1.023   8.130  20.639  0.00  0.00    +0.000 C 
BRANCH  16  17
ATOM     17  C   UNL     1       1.300   8.847  21.958  0.00  0.00    +0.000 C 
BRANCH  17  18
ATOM     18  C   UNL     1       0.086   9.607  22.486  0.00  0.00    +0.000 C 
BRANCH  18  19
ATOM     19  O   UNL     1       0.374  11.002  22.412  0.00  0.00    +0.000 OA
BRANCH  19  20
ATOM     20  C   UNL     1       0.166  11.569  21.185  0.00  0.00    +0.000 A 
ATOM     21  C   UNL     1       1.173  12.008  20.321  0.00  0.00    +0.000 A 
ATOM     22  C   UNL     1       0.842  12.553  19.079  0.00  0.00    +0.000 A 
ATOM     23  C   UNL     1      -0.494  12.650  18.705  0.00  0.00    +0.000 A 
ATOM     24  F   UNL     1      -0.809  13.175  17.516  0.00  0.00    +0.000 F 
ATOM     25  C   UNL     1      -1.503  12.200  19.546  0.00  0.00    +0.000 A 
ATOM     26  C   UNL     1      -1.172  11.654  20.786  0.00  0.00    +0.000 A 
ENDBRANCH  19  20
ENDBRANCH  18  19
ENDBRANCH  17  18
ENDBRANCH  16  17
ENDBRANCH  15  16
ENDBRANCH  14  15
ENDBRANCH  12  14
ENDBRANCH   1  12
BRANCH   1  27
ATOM     27  C   UNL     1       3.505   3.435  18.537  0.00  0.00    +0.000 C 
BRANCH  27  28
ATOM     28  N   UNL     1       2.639   3.253  19.692  0.00  0.00    +0.000 N 
ATOM     29  C   UNL     1       1.294   3.061  19.690  0.00  0.00    +0.000 A 
ATOM     30  N   UNL     1       0.863   2.946  20.926  0.00  0.00    +0.000 NA
ATOM     31  C   UNL     1       2.005   3.034  21.663  0.00  0.00    +0.000 A 
ATOM     32  N   UNL     1       3.126   3.187  20.955  0.00  0.00    +0.000 NA
ENDBRANCH  27  28
ENDBRANCH   1  27
TORSDOF 12
ENDMDL
MODEL 4
REMARK VINA RESULT:      -7.4      6.069      7.888
REMARK  Name = 
REMARK  13 active torsions:
REMARK  status: ('A' for Active; 'I' for Inactive)
REMARK    1  A    between atoms: C_1  and  N_2
REMARK    2  A    between atoms: N_2  and  C_3
REMARK    3  A    between atoms: N_2  and  C_15
REMARK    4  A    between atoms: C_3  and  C_4
REMARK    5  A    between atoms: C_4  and  C_5
REMARK    6  A    between atoms: C_5  and  C_6
REMARK    7  A    between atoms: C_6  and  O_7
REMARK    8  A    between atoms: O_7  and  C_8
REMARK    9  A    between atoms: C_15  and  C_16
REMARK   10  A    between atoms: C_16  and  O_17
REMARK   11  A    between atoms: C_16  and  C_18
REMARK   12  A    between atoms: C_16  and  C_24
REMARK   13  A    between atoms: C_18  and  N_19
REMARK                            x       y       z     vdW  Elec       q    Type
REMARK                         _______ _______ _______ _____ _____    ______ ____
ROOT
ATOM      1  C   UNL     1       3.473   4.177  17.869  0.00  0.00    +0.000 C 
ENDROOT
BRANCH   1   2
ATOM      2  C   UNL     1       2.719   3.600  19.079  0.00  0.00    +0.000 A 
ATOM      3  C   UNL     1       1.315   3.550  19.135  0.00  0.00    +0.000 A 
ATOM      4  C   UNL     1       0.649   3.133  20.294  0.00  0.00    +0.000 A 
ATOM      5  C   UNL     1       1.385   2.720  21.394  0.00  0.00    +0.000 A 
ATOM      6  F   UNL     1       0.747   2.318  22.502  0.00  0.00    +0.000 F 
ATOM      7  C   UNL     1       2.769   2.711  21.361  0.00  0.00    +0.000 A 
ATOM      8  C   UNL     1       3.421   3.157  20.213  0.00  0.00    +0.000 A 
ATOM      9  F   UNL     1       4.761   3.146  20.207  0.00  0.00    +0.000 F 
ENDBRANCH   1   2
BRANCH   1  10
ATOM     10  O   UNL     1       2.748   3.884  16.655  0.00  0.00    +0.000 OA
ATOM     11  H   UNL     1       1.940   3.400  16.936  0.00  0.00    +0.000 HD
ENDBRANCH   1  10
BRANCH   1  12
ATOM     12  C   UNL     1       3.690   5.743  18.035  0.00  0.00    +0.000 C 
BRANCH  12  14
ATOM     13  C   UNL     1       2.420   7.006  19.641  0.00  0.00    +0.000 C 
ATOM     14  N   UNL     1       2.532   6.685  18.200  0.00  0.00    +0.000 NA
BRANCH  14  15
ATOM     15  C   UNL     1       2.686   7.977  17.488  0.00  0.00    +0.000 C 
BRANCH  15  16
ATOM     16  C   UNL     1       2.223   9.212  18.259  0.00  0.00    +0.000 C 
BRANCH  16  17
ATOM     17  C   UNL     1       1.018   9.944  17.678  0.00  0.00    +0.000 C 
BRANCH  17  18
ATOM     18  C   UNL     1      -0.104  10.142  18.695  0.00  0.00    +0.000 C 
BRANCH  18  19
ATOM     19  O   UNL     1       0.450   9.971  19.998  0.00  0.00    +0.000 OA
BRANCH  19  20
ATOM     20  C   UNL     1      -0.311  10.474  21.018  0.00  0.00    +0.000 A 
ATOM     21  C   UNL     1      -0.331   9.980  22.325  0.00  0.00    +0.000 A 
ATOM     22  C   UNL     1      -1.133  10.590  23.292  0.00  0.00    +0.000 A 
ATOM     23  C   UNL     1      -1.905  11.694  22.947  0.00  0.00    +0.000 A 
ATOM     24  F   UNL     1      -2.675  12.274  23.875  0.00  0.00    +0.000 F 
ATOM     25  C   UNL     1      -1.880  12.205  21.657  0.00  0.00    +0.000 A 
ATOM     26  C   UNL     1      -1.078  11.597  20.692  0.00  0.00    +0.000 A 
ENDBRANCH  19  20
ENDBRANCH  18  19
ENDBRANCH  17  18
ENDBRANCH  16  17
ENDBRANCH  15  16
ENDBRANCH  14  15
ENDBRANCH  12  14
ENDBRANCH   1  12
BRANCH   1  27
ATOM     27  C   UNL     1       4.822   3.423  17.672  0.00  0.00    +0.000 C 
BRANCH  27  28
ATOM     28  N   UNL     1       5.752   4.043  16.742  0.00  0.00    +0.000 N 
ATOM     29  C   UNL     1       6.950   4.615  17.035  0.00  0.00    +0.000 A 
ATOM     30  N   UNL     1       7.500   5.076  15.934  0.00  0.00    +0.000 NA
ATOM     31  C   UNL     1       6.606   4.720  14.968  0.00  0.00    +0.000 A 
ATOM     32  N   UNL     1       5.535   4.054  15.404  0.00  0.00    +0.000 NA
ENDBRANCH  27  28
ENDBRANCH   1  27
TORSDOF 12
ENDMDL
MODEL 5
REMARK VINA RESULT:      -7.3      2.768      4.761
REMARK  Name = 
REMARK  13 active torsions:
REMARK  status: ('A' for Active; 'I' for Inactive)
REMARK    1  A    between atoms: C_1  and  N_2
REMARK    2  A    between atoms: N_2  and  C_3
REMARK    3  A    between atoms: N_2  and  C_15
REMARK    4  A    between atoms: C_3  and  C_4
REMARK    5  A    between atoms: C_4  and  C_5
REMARK    6  A    between atoms: C_5  and  C_6
REMARK    7  A    between atoms: C_6  and  O_7
REMARK    8  A    between atoms: O_7  and  C_8
REMARK    9  A    between atoms: C_15  and  C_16
REMARK   10  A    between atoms: C_16  and  O_17
REMARK   11  A    between atoms: C_16  and  C_18
REMARK   12  A    between atoms: C_16  and  C_24
REMARK   13  A    between atoms: C_18  and  N_19
REMARK                            x       y       z     vdW  Elec       q    Type
REMARK                         _______ _______ _______ _____ _____    ______ ____
ROOT
ATOM      1  C   UNL     1       3.001   6.177  18.388  0.00  0.00    +0.000 C 
ENDROOT
BRANCH   1   2
ATOM      2  C   UNL     1       2.331   7.548  18.593  0.00  0.00    +0.000 A 
ATOM      3  C   UNL     1       2.425   8.579  17.642  0.00  0.00    +0.000 A 
ATOM      4  C   UNL     1       1.911   9.855  17.903  0.00  0.00    +0.000 A 
ATOM      5  C   UNL     1       1.259  10.098  19.102  0.00  0.00    +0.000 A 
ATOM      6  F   UNL     1       0.766  11.319  19.350  0.00  0.00    +0.000 F 
ATOM      7  C   UNL     1       1.107   9.095  20.044  0.00  0.00    +0.000 A 
ATOM      8  C   UNL     1       1.649   7.837  19.787  0.00  0.00    +0.000 A 
ATOM      9  F   UNL     1       1.496   6.884  20.717  0.00  0.00    +0.000 F 
ENDBRANCH   1   2
BRANCH   1  10
ATOM     10  O   UNL     1       1.992   5.167  18.173  0.00  0.00    +0.000 OA
ATOM     11  H   UNL     1       2.200   4.442  18.802  0.00  0.00    +0.000 HD
ENDBRANCH   1  10
BRANCH   1  12
ATOM     12  C   UNL     1       4.023   6.227  17.171  0.00  0.00    +0.000 C 
BRANCH  12  14
ATOM     13  C   UNL     1       4.899   4.097  16.474  0.00  0.00    +0.000 C 
ATOM     14  N   UNL     1       5.256   5.370  17.143  0.00  0.00    +0.000 NA
BRANCH  14  15
ATOM     15  C   UNL     1       6.387   5.948  16.379  0.00  0.00    +0.000 C 
BRANCH  15  16
ATOM     16  C   UNL     1       7.450   6.659  17.214  0.00  0.00    +0.000 C 
BRANCH  16  17
ATOM     17  C   UNL     1       7.056   8.026  17.766  0.00  0.00    +0.000 C 
BRANCH  17  18
ATOM     18  C   UNL     1       8.187   9.049  17.679  0.00  0.00    +0.000 C 
BRANCH  18  19
ATOM     19  O   UNL     1       8.783   9.156  18.970  0.00  0.00    +0.000 OA
BRANCH  19  20
ATOM     20  C   UNL     1       9.372  10.362  19.234  0.00  0.00    +0.000 A 
ATOM     21  C   UNL     1       9.594  10.886  20.511  0.00  0.00    +0.000 A 
ATOM     22  C   UNL     1      10.226  12.122  20.661  0.00  0.00    +0.000 A 
ATOM     23  C   UNL     1      10.637  12.825  19.533  0.00  0.00    +0.000 A 
ATOM     24  F   UNL     1      11.239  14.010  19.679  0.00  0.00    +0.000 F 
ATOM     25  C   UNL     1      10.438  12.307  18.260  0.00  0.00    +0.000 A 
ATOM     26  C   UNL     1       9.809  11.072  18.111  0.00  0.00    +0.000 A 
ENDBRANCH  19  20
ENDBRANCH  18  19
ENDBRANCH  17  18
ENDBRANCH  16  17
ENDBRANCH  15  16
ENDBRANCH  14  15
ENDBRANCH  12  14
ENDBRANCH   1  12
BRANCH   1  27
ATOM     27  C   UNL     1       3.692   5.719  19.707  0.00  0.00    +0.000 C 
BRANCH  27  28
ATOM     28  N   UNL     1       3.307   4.400  20.185  0.00  0.00    +0.000 N 
ATOM     29  C   UNL     1       2.415   4.110  21.169  0.00  0.00    +0.000 A 
ATOM     30  N   UNL     1       2.338   2.807  21.324  0.00  0.00    +0.000 NA
ATOM     31  C   UNL     1       3.185   2.331  20.369  0.00  0.00    +0.000 A 
ATOM     32  N   UNL     1       3.777   3.262  19.619  0.00  0.00    +0.000 NA
ENDBRANCH  27  28
ENDBRANCH   1  27
TORSDOF 12
ENDMDL
MODEL 6
REMARK VINA RESULT:      -7.3      6.125      7.795
REMARK  Name = 
REMARK  13 active torsions:
REMARK  status: ('A' for Active; 'I' for Inactive)
REMARK    1  A    between atoms: C_1  and  N_2
REMARK    2  A    between atoms: N_2  and  C_3
REMARK    3  A    between atoms: N_2  and  C_15
REMARK    4  A    between atoms: C_3  and  C_4
REMARK    5  A    between atoms: C_4  and  C_5
REMARK    6  A    between atoms: C_5  and  C_6
REMARK    7  A    between atoms: C_6  and  O_7
REMARK    8  A    between atoms: O_7  and  C_8
REMARK    9  A    between atoms: C_15  and  C_16
REMARK   10  A    between atoms: C_16  and  O_17
REMARK   11  A    between atoms: C_16  and  C_18
REMARK   12  A    between atoms: C_16  and  C_24
REMARK   13  A    between atoms: C_18  and  N_19
REMARK                            x       y       z     vdW  Elec       q    Type
REMARK                         _______ _______ _______ _____ _____    ______ ____
ROOT
ATOM      1  C   UNL     1       3.380   4.092  17.579  0.00  0.00    +0.000 C 
ENDROOT
BRANCH   1   2
ATOM      2  C   UNL     1       2.708   3.526  18.842  0.00  0.00    +0.000 A 
ATOM      3  C   UNL     1       1.320   3.314  18.924  0.00  0.00    +0.000 A 
ATOM      4  C   UNL     1       0.717   2.913  20.122  0.00  0.00    +0.000 A 
ATOM      5  C   UNL     1       1.505   2.677  21.238  0.00  0.00    +0.000 A 
ATOM      6  F   UNL     1       0.927   2.291  22.385  0.00  0.00    +0.000 F 
ATOM      7  C   UNL     1       2.879   2.831  21.184  0.00  0.00    +0.000 A 
ATOM      8  C   UNL     1       3.466   3.260  19.995  0.00  0.00    +0.000 A 
ATOM      9  F   UNL     1       4.798   3.408  19.969  0.00  0.00    +0.000 F 
ENDBRANCH   1   2
BRANCH   1  10
ATOM     10  O   UNL     1       2.537   3.860  16.430  0.00  0.00    +0.000 OA
ATOM     11  H   UNL     1       2.019   4.686  16.305  0.00  0.00    +0.000 HD
ENDBRANCH   1  10
BRANCH   1  12
ATOM     12  C   UNL     1       3.686   5.643  17.752  0.00  0.00    +0.000 C 
BRANCH  12  14
ATOM     13  C   UNL     1       2.618   6.662  19.652  0.00  0.00    +0.000 C 
ATOM     14  N   UNL     1       2.620   6.614  18.171  0.00  0.00    +0.000 NA
BRANCH  14  15
ATOM     15  C   UNL     1       2.838   8.004  17.703  0.00  0.00    +0.000 C 
BRANCH  15  16
ATOM     16  C   UNL     1       1.596   8.893  17.679  0.00  0.00    +0.000 C 
BRANCH  16  17
ATOM     17  C   UNL     1       1.753  10.270  18.316  0.00  0.00    +0.000 C 
BRANCH  17  18
ATOM     18  C   UNL     1       0.415  10.956  18.582  0.00  0.00    +0.000 C 
BRANCH  18  19
ATOM     19  O   UNL     1      -0.291  10.185  19.551  0.00  0.00    +0.000 OA
BRANCH  19  20
ATOM     20  C   UNL     1      -0.807  10.903  20.594  0.00  0.00    +0.000 A 
ATOM     21  C   UNL     1      -1.594  12.052  20.469  0.00  0.00    +0.000 A 
ATOM     22  C   UNL     1      -2.086  12.692  21.608  0.00  0.00    +0.000 A 
ATOM     23  C   UNL     1      -1.794  12.176  22.866  0.00  0.00    +0.000 A 
ATOM     24  F   UNL     1      -2.264  12.793  23.956  0.00  0.00    +0.000 F 
ATOM     25  C   UNL     1      -1.029  11.026  23.004  0.00  0.00    +0.000 A 
ATOM     26  C   UNL     1      -0.539  10.386  21.866  0.00  0.00    +0.000 A 
ENDBRANCH  19  20
ENDBRANCH  18  19
ENDBRANCH  17  18
ENDBRANCH  16  17
ENDBRANCH  15  16
ENDBRANCH  14  15
ENDBRANCH  12  14
ENDBRANCH   1  12
BRANCH   1  27
ATOM     27  C   UNL     1       4.667   3.280  17.250  0.00  0.00    +0.000 C 
BRANCH  27  28
ATOM     28  N   UNL     1       5.638   3.965  16.411  0.00  0.00    +0.000 N 
ATOM     29  C   UNL     1       6.879   4.391  16.768  0.00  0.00    +0.000 A 
ATOM     30  N   UNL     1       7.457   4.974  15.742  0.00  0.00    +0.000 NA
ATOM     31  C   UNL     1       6.533   4.844  14.749  0.00  0.00    +0.000 A 
ATOM     32  N   UNL     1       5.416   4.202  15.095  0.00  0.00    +0.000 NA
ENDBRANCH  27  28
ENDBRANCH   1  27
TORSDOF 12
ENDMDL
MODEL 7
REMARK VINA RESULT:      -7.3      5.670      8.414
REMARK  Name = 
REMARK  13 active torsions:
REMARK  status: ('A' for Active; 'I' for Inactive)
REMARK    1  A    between atoms: C_1  and  N_2
REMARK    2  A    between atoms: N_2  and  C_3
REMARK    3  A    between atoms: N_2  and  C_15
REMARK    4  A    between atoms: C_3  and  C_4
REMARK    5  A    between atoms: C_4  and  C_5
REMARK    6  A    between atoms: C_5  and  C_6
REMARK    7  A    between atoms: C_6  and  O_7
REMARK    8  A    between atoms: O_7  and  C_8
REMARK    9  A    between atoms: C_15  and  C_16
REMARK   10  A    between atoms: C_16  and  O_17
REMARK   11  A    between atoms: C_16  and  C_18
REMARK   12  A    between atoms: C_16  and  C_24
REMARK   13  A    between atoms: C_18  and  N_19
REMARK                            x       y       z     vdW  Elec       q    Type
REMARK                         _______ _______ _______ _____ _____    ______ ____
ROOT
ATOM      1  C   UNL     1       5.142   4.633  18.901  0.00  0.00    +0.000 C 
ENDROOT
BRANCH   1   2
ATOM      2  C   UNL     1       5.641   4.713  17.447  0.00  0.00    +0.000 A 
ATOM      3  C   UNL     1       5.298   3.752  16.480  0.00  0.00    +0.000 A 
ATOM      4  C   UNL     1       5.860   3.778  15.199  0.00  0.00    +0.000 A 
ATOM      5  C   UNL     1       6.740   4.794  14.859  0.00  0.00    +0.000 A 
ATOM      6  F   UNL     1       7.277   4.820  13.631  0.00  0.00    +0.000 F 
ATOM      7  C   UNL     1       7.068   5.784  15.770  0.00  0.00    +0.000 A 
ATOM      8  C   UNL     1       6.525   5.731  17.052  0.00  0.00    +0.000 A 
ATOM      9  F   UNL     1       6.863   6.697  17.918  0.00  0.00    +0.000 F 
ENDBRANCH   1   2
BRANCH   1  10
ATOM     10  O   UNL     1       6.214   4.969  19.806  0.00  0.00    +0.000 OA
ATOM     11  H   UNL     1       6.180   4.299  20.524  0.00  0.00    +0.000 HD
ENDBRANCH   1  10
BRANCH   1  12
ATOM     12  C   UNL     1       3.893   5.592  19.120  0.00  0.00    +0.000 C 
BRANCH  12  14
ATOM     13  C   UNL     1       1.789   5.715  17.959  0.00  0.00    +0.000 C 
ATOM     14  N   UNL     1       3.178   6.230  17.964  0.00  0.00    +0.000 NA
BRANCH  14  15
ATOM     15  C   UNL     1       3.081   7.708  18.043  0.00  0.00    +0.000 C 
BRANCH  15  16
ATOM     16  C   UNL     1       1.899   8.248  18.844  0.00  0.00    +0.000 C 
BRANCH  16  17
ATOM     17  C   UNL     1       1.099   9.364  18.178  0.00  0.00    +0.000 C 
BRANCH  17  18
ATOM     18  C   UNL     1       1.257  10.709  18.884  0.00  0.00    +0.000 C 
BRANCH  18  19
ATOM     19  O   UNL     1       1.489  10.456  20.268  0.00  0.00    +0.000 OA
BRANCH  19  20
ATOM     20  C   UNL     1       0.471  10.830  21.101  0.00  0.00    +0.000 A 
ATOM     21  C   UNL     1      -0.306  11.983  20.954  0.00  0.00    +0.000 A 
ATOM     22  C   UNL     1      -1.336  12.252  21.857  0.00  0.00    +0.000 A 
ATOM     23  C   UNL     1      -1.589  11.364  22.897  0.00  0.00    +0.000 A 
ATOM     24  F   UNL     1      -2.575  11.626  23.762  0.00  0.00    +0.000 F 
ATOM     25  C   UNL     1      -0.836  10.207  23.043  0.00  0.00    +0.000 A 
ATOM     26  C   UNL     1       0.192   9.937  22.140  0.00  0.00    +0.000 A 
ENDBRANCH  19  20
ENDBRANCH  18  19
ENDBRANCH  17  18
ENDBRANCH  16  17
ENDBRANCH  15  16
ENDBRANCH  14  15
ENDBRANCH  12  14
ENDBRANCH   1  12
BRANCH   1  27
ATOM     27  C   UNL     1       4.811   3.156  19.269  0.00  0.00    +0.000 C 
BRANCH  27  28
ATOM     28  N   UNL     1       3.399   2.865  19.468  0.00  0.00    +0.000 N 
ATOM     29  C   UNL     1       2.657   3.113  20.578  0.00  0.00    +0.000 A 
ATOM     30  N   UNL     1       1.423   2.704  20.384  0.00  0.00    +0.000 NA
ATOM     31  C   UNL     1       1.447   2.241  19.103  0.00  0.00    +0.000 A 
ATOM     32  N   UNL     1       2.624   2.350  18.483  0.00  0.00    +0.000 NA
ENDBRANCH  27  28
ENDBRANCH   1  27
TORSDOF 12
ENDMDL
MODEL 8
REMARK VINA RESULT:      -7.3      6.275      8.659
REMARK  Name = 
REMARK  13 active torsions:
REMARK  status: ('A' for Active; 'I' for Inactive)
REMARK    1  A    between atoms: C_1  and  N_2
REMARK    2  A    between atoms: N_2  and  C_3
REMARK    3  A    between atoms: N_2  and  C_15
REMARK    4  A    between atoms: C_3  and  C_4
REMARK    5  A    between atoms: C_4  and  C_5
REMARK    6  A    between atoms: C_5  and  C_6
REMARK    7  A    between atoms: C_6  and  O_7
REMARK    8  A    between atoms: O_7  and  C_8
REMARK    9  A    between atoms: C_15  and  C_16
REMARK   10  A    between atoms: C_16  and  O_17
REMARK   11  A    between atoms: C_16  and  C_18
REMARK   12  A    between atoms: C_16  and  C_24
REMARK   13  A    between atoms: C_18  and  N_19
REMARK                            x       y       z     vdW  Elec       q    Type
REMARK                         _______ _______ _______ _____ _____    ______ ____
ROOT
ATOM      1  C   UNL     1       4.668   4.221  18.735  0.00  0.00    +0.000 C 
ENDROOT
BRANCH   1   2
ATOM      2  C   UNL     1       5.405   4.313  17.387  0.00  0.00    +0.000 A 
ATOM      3  C   UNL     1       6.776   4.614  17.299  0.00  0.00    +0.000 A 
ATOM      4  C   UNL     1       7.397   4.812  16.061  0.00  0.00    +0.000 A 
ATOM      5  C   UNL     1       6.660   4.667  14.895  0.00  0.00    +0.000 A 
ATOM      6  F   UNL     1       7.257   4.854  13.709  0.00  0.00    +0.000 F 
ATOM      7  C   UNL     1       5.319   4.327  14.940  0.00  0.00    +0.000 A 
ATOM      8  C   UNL     1       4.704   4.162  16.179  0.00  0.00    +0.000 A 
ATOM      9  F   UNL     1       3.403   3.840  16.197  0.00  0.00    +0.000 F 
ENDBRANCH   1   2
BRANCH   1  10
ATOM     10  O   UNL     1       5.573   3.750  19.756  0.00  0.00    +0.000 OA
ATOM     11  H   UNL     1       5.552   4.428  20.468  0.00  0.00    +0.000 HD
ENDBRANCH   1  10
BRANCH   1  12
ATOM     12  C   UNL     1       4.047   5.630  19.135  0.00  0.00    +0.000 C 
BRANCH  12  14
ATOM     13  C   UNL     1       2.028   6.622  19.988  0.00  0.00    +0.000 C 
ATOM     14  N   UNL     1       2.631   5.993  18.790  0.00  0.00    +0.000 NA
BRANCH  14  15
ATOM     15  C   UNL     1       2.501   6.972  17.685  0.00  0.00    +0.000 C 
BRANCH  15  16
ATOM     16  C   UNL     1       2.580   8.441  18.096  0.00  0.00    +0.000 C 
BRANCH  16  17
ATOM     17  C   UNL     1       1.283   9.236  17.970  0.00  0.00    +0.000 C 
BRANCH  17  18
ATOM     18  C   UNL     1       1.195  10.388  18.969  0.00  0.00    +0.000 C 
BRANCH  18  19
ATOM     19  O   UNL     1       1.010   9.831  20.269  0.00  0.00    +0.000 OA
BRANCH  19  20
ATOM     20  C   UNL     1       0.078  10.466  21.041  0.00  0.00    +0.000 A 
ATOM     21  C   UNL     1      -0.722  11.533  20.622  0.00  0.00    +0.000 A 
ATOM     22  C   UNL     1      -1.659  12.090  21.493  0.00  0.00    +0.000 A 
ATOM     23  C   UNL     1      -1.797  11.573  22.777  0.00  0.00    +0.000 A 
ATOM     24  F   UNL     1      -2.694  12.111  23.611  0.00  0.00    +0.000 F 
ATOM     25  C   UNL     1      -1.022  10.502  23.200  0.00  0.00    +0.000 A 
ATOM     26  C   UNL     1      -0.087   9.944  22.328  0.00  0.00    +0.000 A 
ENDBRANCH  19  20
ENDBRANCH  18  19
ENDBRANCH  17  18
ENDBRANCH  16  17
ENDBRANCH  15  16
ENDBRANCH  14  15
ENDBRANCH  12  14
ENDBRANCH   1  12
BRANCH   1  27
ATOM     27  C   UNL     1       3.583   3.106  18.674  0.00  0.00    +0.000 C 
BRANCH  27  28
ATOM     28  N   UNL     1       2.757   2.975  19.864  0.00  0.00    +0.000 N 
ATOM     29  C   UNL     1       3.178   2.764  21.139  0.00  0.00    +0.000 A 
ATOM     30  N   UNL     1       2.140   2.694  21.941  0.00  0.00    +0.000 NA
ATOM     31  C   UNL     1       1.087   2.912  21.105  0.00  0.00    +0.000 A 
ATOM     32  N   UNL     1       1.411   3.126  19.828  0.00  0.00    +0.000 NA
ENDBRANCH  27  28
ENDBRANCH   1  27
TORSDOF 12
ENDMDL
MODEL 9
REMARK VINA RESULT:      -7.3      1.790      2.229
REMARK  Name = 
REMARK  13 active torsions:
REMARK  status: ('A' for Active; 'I' for Inactive)
REMARK    1  A    between atoms: C_1  and  N_2
REMARK    2  A    between atoms: N_2  and  C_3
REMARK    3  A    between atoms: N_2  and  C_15
REMARK    4  A    between atoms: C_3  and  C_4
REMARK    5  A    between atoms: C_4  and  C_5
REMARK    6  A    between atoms: C_5  and  C_6
REMARK    7  A    between atoms: C_6  and  O_7
REMARK    8  A    between atoms: O_7  and  C_8
REMARK    9  A    between atoms: C_15  and  C_16
REMARK   10  A    between atoms: C_16  and  O_17
REMARK   11  A    between atoms: C_16  and  C_18
REMARK   12  A    between atoms: C_16  and  C_24
REMARK   13  A    between atoms: C_18  and  N_19
REMARK                            x       y       z     vdW  Elec       q    Type
REMARK                         _______ _______ _______ _____ _____    ______ ____
ROOT
ATOM      1  C   UNL     1       5.529   4.836  16.178  0.00  0.00    +0.000 C 
ENDROOT
BRANCH   1   2
ATOM      2  C   UNL     1       4.309   4.417  17.018  0.00  0.00    +0.000 A 
ATOM      3  C   UNL     1       3.996   3.069  17.269  0.00  0.00    +0.000 A 
ATOM      4  C   UNL     1       2.817   2.709  17.933  0.00  0.00    +0.000 A 
ATOM      5  C   UNL     1       1.961   3.699  18.391  0.00  0.00    +0.000 A 
ATOM      6  F   UNL     1       0.834   3.354  19.028  0.00  0.00    +0.000 F 
ATOM      7  C   UNL     1       2.258   5.038  18.203  0.00  0.00    +0.000 A 
ATOM      8  C   UNL     1       3.419   5.384  17.515  0.00  0.00    +0.000 A 
ATOM      9  F   UNL     1       3.681   6.687  17.338  0.00  0.00    +0.000 F 
ENDBRANCH   1   2
BRANCH   1  10
ATOM     10  O   UNL     1       5.182   5.957  15.337  0.00  0.00    +0.000 OA
ATOM     11  H   UNL     1       5.839   5.958  14.606  0.00  0.00    +0.000 HD
ENDBRANCH   1  10
BRANCH   1  12
ATOM     12  C   UNL     1       6.763   5.190  17.115  0.00  0.00    +0.000 C 
BRANCH  12  14
ATOM     13  C   UNL     1       7.737   5.812  19.225  0.00  0.00    +0.000 C 
ATOM     14  N   UNL     1       6.616   6.100  18.301  0.00  0.00    +0.000 NA
BRANCH  14  15
ATOM     15  C   UNL     1       6.692   7.545  17.979  0.00  0.00    +0.000 C 
BRANCH  15  16
ATOM     16  C   UNL     1       8.081   8.067  17.621  0.00  0.00    +0.000 C 
BRANCH  16  17
ATOM     17  C   UNL     1       8.727   8.994  18.646  0.00  0.00    +0.000 C 
BRANCH  17  18
ATOM     18  C   UNL     1       8.735  10.455  18.202  0.00  0.00    +0.000 C 
BRANCH  18  19
ATOM     19  O   UNL     1      10.027  10.992  18.479  0.00  0.00    +0.000 OA
BRANCH  19  20
ATOM     20  C   UNL     1      10.056  11.955  19.450  0.00  0.00    +0.000 A 
ATOM     21  C   UNL     1       9.337  11.911  20.648  0.00  0.00    +0.000 A 
ATOM     22  C   UNL     1       9.462  12.944  21.578  0.00  0.00    +0.000 A 
ATOM     23  C   UNL     1      10.309  14.014  21.308  0.00  0.00    +0.000 A 
ATOM     24  F   UNL     1      10.424  15.004  22.199  0.00  0.00    +0.000 F 
ATOM     25  C   UNL     1      11.042  14.060  20.129  0.00  0.00    +0.000 A 
ATOM     26  C   UNL     1      10.919  13.027  19.202  0.00  0.00    +0.000 A 
ENDBRANCH  19  20
ENDBRANCH  18  19
ENDBRANCH  17  18
ENDBRANCH  16  17
ENDBRANCH  15  16
ENDBRANCH  14  15
ENDBRANCH  12  14
ENDBRANCH   1  12
BRANCH   1  27
ATOM     27  C   UNL     1       5.880   3.715  15.155  0.00  0.00    +0.000 C 
BRANCH  27  28
ATOM     28  N   UNL     1       6.585   4.160  13.962  0.00  0.00    +0.000 N 
ATOM     29  C   UNL     1       6.400   3.726  12.688  0.00  0.00    +0.000 A 
ATOM     30  N   UNL     1       7.226   4.355  11.883  0.00  0.00    +0.000 NA
ATOM     31  C   UNL     1       7.882   5.209  12.718  0.00  0.00    +0.000 A 
ATOM     32  N   UNL     1       7.502   5.156  13.996  0.00  0.00    +0.000 NA
ENDBRANCH  27  28
ENDBRANCH   1  27
TORSDOF 12
ENDMDL
