MODEL 1
REMARK VINA RESULT:      -8.9      0.000      0.000
REMARK  Name = 
REMARK  3 active torsions:
REMARK  status: ('A' for Active; 'I' for Inactive)
REMARK    1  A    between atoms: C_2  and  C_3
REMARK    2  A    between atoms: C_2  and  C_11
REMARK    3  A    between atoms: C_4  and  C_5
REMARK                            x       y       z     vdW  Elec       q    Type
REMARK                         _______ _______ _______ _____ _____    ______ ____
ROOT
ATOM      1  C   UNL     1       5.198   4.638  18.549  0.00  0.00    +0.000 A 
ATOM      2  C   UNL     1       4.726   3.443  19.139  0.00  0.00    +0.000 A 
ATOM      3  C   UNL     1       3.484   3.392  19.802  0.00  0.00    +0.000 A 
ATOM      4  C   UNL     1       2.836   4.608  19.961  0.00  0.00    +0.000 A 
ATOM      5  C   UNL     1       3.270   5.729  19.279  0.00  0.00    +0.000 A 
ATOM      6  C   UNL     1       2.413   6.792  19.477  0.00  0.00    +0.000 A 
ATOM      7  C   UNL     1       2.340   7.811  18.544  0.00  0.00    +0.000 A 
ATOM      8  C   UNL     1       3.325   7.795  17.541  0.00  0.00    +0.000 A 
ATOM      9  C   UNL     1       4.380   6.857  17.550  0.00  0.00    +0.000 A 
ATOM     10  C   UNL     1       4.338   5.754  18.436  0.00  0.00    +0.000 A 
ATOM     11  C   UNL     1       1.578   6.504  20.673  0.00  0.00    +0.000 C 
ATOM     12  C   UNL     1       1.577   4.943  20.694  0.00  0.00    +0.000 C 
ENDROOT
BRANCH   1  14
ATOM     13  O   UNL     1       7.494   4.938  19.062  0.00  0.00    +0.000 OA
ATOM     14  C   UNL     1       6.642   4.748  18.198  0.00  0.00    +0.000 C 
BRANCH  14  15
ATOM     15  C   UNL     1       6.950   4.757  16.745  0.00  0.00    +0.000 C 
ATOM     16  C   UNL     1       6.143   4.186  15.839  0.00  0.00    +0.000 C 
BRANCH  16  17
ATOM     17  C   UNL     1       6.444   4.258  14.402  0.00  0.00    +0.000 A 
ATOM     18  C   UNL     1       5.802   3.412  13.492  0.00  0.00    +0.000 A 
ATOM     19  C   UNL     1       6.142   3.421  12.141  0.00  0.00    +0.000 A 
ATOM     20  C   UNL     1       7.138   4.280  11.683  0.00  0.00    +0.000 A 
ATOM     21  C   UNL     1       7.792   5.127  12.584  0.00  0.00    +0.000 A 
ATOM     22  C   UNL     1       7.450   5.112  13.939  0.00  0.00    +0.000 A 
ENDBRANCH  16  17
ENDBRANCH  14  15
ENDBRANCH   1  14
TORSDOF 3
ENDMDL
MODEL 2
REMARK VINA RESULT:      -8.8      0.166      1.040
REMARK  Name = 
REMARK  3 active torsions:
REMARK  status: ('A' for Active; 'I' for Inactive)
REMARK    1  A    between atoms: C_2  and  C_3
REMARK    2  A    between atoms: C_2  and  C_11
REMARK    3  A    between atoms: C_4  and  C_5
REMARK                            x       y       z     vdW  Elec       q    Type
REMARK                         _______ _______ _______ _____ _____    ______ ____
ROOT
ATOM      1  C   UNL     1       5.204   4.646  18.580  0.00  0.00    +0.000 A 
ATOM      2  C   UNL     1       4.749   3.416  19.109  0.00  0.00    +0.000 A 
ATOM      3  C   UNL     1       3.501   3.311  19.755  0.00  0.00    +0.000 A 
ATOM      4  C   UNL     1       2.828   4.507  19.962  0.00  0.00    +0.000 A 
ATOM      5  C   UNL     1       3.247   5.665  19.337  0.00  0.00    +0.000 A 
ATOM      6  C   UNL     1       2.368   6.702  19.574  0.00  0.00    +0.000 A 
ATOM      7  C   UNL     1       2.285   7.762  18.687  0.00  0.00    +0.000 A 
ATOM      8  C   UNL     1       3.281   7.810  17.695  0.00  0.00    +0.000 A 
ATOM      9  C   UNL     1       4.354   6.893  17.674  0.00  0.00    +0.000 A 
ATOM     10  C   UNL     1       4.323   5.749  18.509  0.00  0.00    +0.000 A 
ATOM     11  C   UNL     1       1.526   6.343  20.746  0.00  0.00    +0.000 C 
ATOM     12  C   UNL     1       1.555   4.784  20.695  0.00  0.00    +0.000 C 
ENDROOT
BRANCH   1  14
ATOM     13  O   UNL     1       7.452   5.206  19.087  0.00  0.00    +0.000 OA
ATOM     14  C   UNL     1       6.649   4.799  18.251  0.00  0.00    +0.000 C 
BRANCH  14  15
ATOM     15  C   UNL     1       7.011   4.568  16.829  0.00  0.00    +0.000 C 
ATOM     16  C   UNL     1       6.103   4.610  15.843  0.00  0.00    +0.000 C 
BRANCH  16  17
ATOM     17  C   UNL     1       6.498   4.433  14.439  0.00  0.00    +0.000 A 
ATOM     18  C   UNL     1       7.494   5.232  13.869  0.00  0.00    +0.000 A 
ATOM     19  C   UNL     1       7.816   5.123  12.518  0.00  0.00    +0.000 A 
ATOM     20  C   UNL     1       7.138   4.208  11.716  0.00  0.00    +0.000 A 
ATOM     21  C   UNL     1       6.135   3.407  12.273  0.00  0.00    +0.000 A 
ATOM     22  C   UNL     1       5.813   3.523  13.628  0.00  0.00    +0.000 A 
ENDBRANCH  16  17
ENDBRANCH  14  15
ENDBRANCH   1  14
TORSDOF 3
ENDMDL
MODEL 3
REMARK VINA RESULT:      -8.4      1.123      2.014
REMARK  Name = 
REMARK  3 active torsions:
REMARK  status: ('A' for Active; 'I' for Inactive)
REMARK    1  A    between atoms: C_2  and  C_3
REMARK    2  A    between atoms: C_2  and  C_11
REMARK    3  A    between atoms: C_4  and  C_5
REMARK                            x       y       z     vdW  Elec       q    Type
REMARK                         _______ _______ _______ _____ _____    ______ ____
ROOT
ATOM      1  C   UNL     1       4.576   3.944  18.189  0.00  0.00    +0.000 A 
ATOM      2  C   UNL     1       4.209   2.682  17.669  0.00  0.00    +0.000 A 
ATOM      3  C   UNL     1       2.992   2.067  18.023  0.00  0.00    +0.000 A 
ATOM      4  C   UNL     1       2.260   2.707  19.013  0.00  0.00    +0.000 A 
ATOM      5  C   UNL     1       2.591   3.987  19.414  0.00  0.00    +0.000 A 
ATOM      6  C   UNL     1       1.664   4.482  20.307  0.00  0.00    +0.000 A 
ATOM      7  C   UNL     1       1.491   5.848  20.447  0.00  0.00    +0.000 A 
ATOM      8  C   UNL     1       2.448   6.655  19.806  0.00  0.00    +0.000 A 
ATOM      9  C   UNL     1       3.570   6.101  19.152  0.00  0.00    +0.000 A 
ATOM     10  C   UNL     1       3.632   4.706  18.915  0.00  0.00    +0.000 A 
ATOM     11  C   UNL     1       0.884   3.340  20.854  0.00  0.00    +0.000 C 
ATOM     12  C   UNL     1       0.999   2.293  19.701  0.00  0.00    +0.000 C 
ENDROOT
BRANCH   1  14
ATOM     13  O   UNL     1       6.606   4.786  19.079  0.00  0.00    +0.000 OA
ATOM     14  C   UNL     1       5.998   4.378  18.092  0.00  0.00    +0.000 C 
BRANCH  14  15
ATOM     15  C   UNL     1       6.565   4.419  16.720  0.00  0.00    +0.000 C 
ATOM     16  C   UNL     1       5.828   4.149  15.633  0.00  0.00    +0.000 C 
BRANCH  16  17
ATOM     17  C   UNL     1       6.401   4.251  14.284  0.00  0.00    +0.000 A 
ATOM     18  C   UNL     1       7.408   5.179  14.002  0.00  0.00    +0.000 A 
ATOM     19  C   UNL     1       7.897   5.336  12.706  0.00  0.00    +0.000 A 
ATOM     20  C   UNL     1       7.378   4.561  11.671  0.00  0.00    +0.000 A 
ATOM     21  C   UNL     1       6.365   3.634  11.939  0.00  0.00    +0.000 A 
ATOM     22  C   UNL     1       5.876   3.483  13.240  0.00  0.00    +0.000 A 
ENDBRANCH  16  17
ENDBRANCH  14  15
ENDBRANCH   1  14
TORSDOF 3
ENDMDL
MODEL 4
REMARK VINA RESULT:      -8.3      1.021      1.715
REMARK  Name = 
REMARK  3 active torsions:
REMARK  status: ('A' for Active; 'I' for Inactive)
REMARK    1  A    between atoms: C_2  and  C_3
REMARK    2  A    between atoms: C_2  and  C_11
REMARK    3  A    between atoms: C_4  and  C_5
REMARK                            x       y       z     vdW  Elec       q    Type
REMARK                         _______ _______ _______ _____ _____    ______ ____
ROOT
ATOM      1  C   UNL     1       4.599   3.980  18.364  0.00  0.00    +0.000 A 
ATOM      2  C   UNL     1       4.319   2.632  18.042  0.00  0.00    +0.000 A 
ATOM      3  C   UNL     1       3.216   1.957  18.602  0.00  0.00    +0.000 A 
ATOM      4  C   UNL     1       2.523   2.648  19.585  0.00  0.00    +0.000 A 
ATOM      5  C   UNL     1       2.754   3.995  19.792  0.00  0.00    +0.000 A 
ATOM      6  C   UNL     1       1.874   4.512  20.719  0.00  0.00    +0.000 A 
ATOM      7  C   UNL     1       1.570   5.862  20.715  0.00  0.00    +0.000 A 
ATOM      8  C   UNL     1       2.367   6.666  19.879  0.00  0.00    +0.000 A 
ATOM      9  C   UNL     1       3.470   6.140  19.173  0.00  0.00    +0.000 A 
ATOM     10  C   UNL     1       3.657   4.738  19.096  0.00  0.00    +0.000 A 
ATOM     11  C   UNL     1       1.279   3.382  21.482  0.00  0.00    +0.000 C 
ATOM     12  C   UNL     1       1.389   2.211  20.456  0.00  0.00    +0.000 C 
ENDROOT
BRANCH   1  14
ATOM     13  O   UNL     1       6.564   5.203  18.880  0.00  0.00    +0.000 OA
ATOM     14  C   UNL     1       5.950   4.529  18.057  0.00  0.00    +0.000 C 
BRANCH  14  15
ATOM     15  C   UNL     1       6.421   4.330  16.663  0.00  0.00    +0.000 C 
ATOM     16  C   UNL     1       5.718   4.752  15.602  0.00  0.00    +0.000 C 
BRANCH  16  17
ATOM     17  C   UNL     1       6.235   4.591  14.236  0.00  0.00    +0.000 A 
ATOM     18  C   UNL     1       5.692   3.634  13.373  0.00  0.00    +0.000 A 
ATOM     19  C   UNL     1       6.231   3.422  12.106  0.00  0.00    +0.000 A 
ATOM     20  C   UNL     1       7.330   4.169  11.687  0.00  0.00    +0.000 A 
ATOM     21  C   UNL     1       7.887   5.124  12.544  0.00  0.00    +0.000 A 
ATOM     22  C   UNL     1       7.345   5.330  13.815  0.00  0.00    +0.000 A 
ENDBRANCH  16  17
ENDBRANCH  14  15
ENDBRANCH   1  14
TORSDOF 3
ENDMDL
MODEL 5
REMARK VINA RESULT:      -8.2      3.265      7.252
REMARK  Name = 
REMARK  3 active torsions:
REMARK  status: ('A' for Active; 'I' for Inactive)
REMARK    1  A    between atoms: C_2  and  C_3
REMARK    2  A    between atoms: C_2  and  C_11
REMARK    3  A    between atoms: C_4  and  C_5
REMARK                            x       y       z     vdW  Elec       q    Type
REMARK                         _______ _______ _______ _____ _____    ______ ____
ROOT
ATOM      1  C   UNL     1       2.604   6.552  18.844  0.00  0.00    +0.000 A 
ATOM      2  C   UNL     1       2.081   6.657  20.154  0.00  0.00    +0.000 A 
ATOM      3  C   UNL     1       1.600   5.528  20.846  0.00  0.00    +0.000 A 
ATOM      4  C   UNL     1       1.540   4.353  20.111  0.00  0.00    +0.000 A 
ATOM      5  C   UNL     1       2.159   4.262  18.880  0.00  0.00    +0.000 A 
ATOM      6  C   UNL     1       2.088   2.977  18.383  0.00  0.00    +0.000 A 
ATOM      7  C   UNL     1       3.027   2.530  17.470  0.00  0.00    +0.000 A 
ATOM      8  C   UNL     1       3.881   3.514  16.939  0.00  0.00    +0.000 A 
ATOM      9  C   UNL     1       3.719   4.883  17.243  0.00  0.00    +0.000 A 
ATOM     10  C   UNL     1       2.842   5.276  18.283  0.00  0.00    +0.000 A 
ATOM     11  C   UNL     1       1.021   2.249  19.119  0.00  0.00    +0.000 C 
ATOM     12  C   UNL     1       0.993   3.011  20.480  0.00  0.00    +0.000 C 
ENDROOT
BRANCH   1  14
ATOM     13  O   UNL     1       3.853   8.184  17.660  0.00  0.00    +0.000 OA
ATOM     14  C   UNL     1       2.748   7.787  18.023  0.00  0.00    +0.000 C 
BRANCH  14  15
ATOM     15  C   UNL     1       1.500   8.564  17.809  0.00  0.00    +0.000 C 
ATOM     16  C   UNL     1       1.136   9.570  18.616  0.00  0.00    +0.000 C 
BRANCH  16  17
ATOM     17  C   UNL     1      -0.075  10.358  18.348  0.00  0.00    +0.000 A 
ATOM     18  C   UNL     1      -0.253  11.618  18.929  0.00  0.00    +0.000 A 
ATOM     19  C   UNL     1      -1.435  12.333  18.743  0.00  0.00    +0.000 A 
ATOM     20  C   UNL     1      -2.458  11.791  17.970  0.00  0.00    +0.000 A 
ATOM     21  C   UNL     1      -2.295  10.529  17.389  0.00  0.00    +0.000 A 
ATOM     22  C   UNL     1      -1.110   9.813  17.582  0.00  0.00    +0.000 A 
ENDBRANCH  16  17
ENDBRANCH  14  15
ENDBRANCH   1  14
TORSDOF 3
ENDMDL
MODEL 6
REMARK VINA RESULT:      -8.1      3.245      7.142
REMARK  Name = 
REMARK  3 active torsions:
REMARK  status: ('A' for Active; 'I' for Inactive)
REMARK    1  A    between atoms: C_2  and  C_3
REMARK    2  A    between atoms: C_2  and  C_11
REMARK    3  A    between atoms: C_4  and  C_5
REMARK                            x       y       z     vdW  Elec       q    Type
REMARK                         _______ _______ _______ _____ _____    ______ ____
ROOT
ATOM      1  C   UNL     1       2.636   6.524  18.857  0.00  0.00    +0.000 A 
ATOM      2  C   UNL     1       2.100   6.634  20.160  0.00  0.00    +0.000 A 
ATOM      3  C   UNL     1       1.622   5.507  20.856  0.00  0.00    +0.000 A 
ATOM      4  C   UNL     1       1.578   4.326  20.130  0.00  0.00    +0.000 A 
ATOM      5  C   UNL     1       2.210   4.231  18.905  0.00  0.00    +0.000 A 
ATOM      6  C   UNL     1       2.154   2.941  18.417  0.00  0.00    +0.000 A 
ATOM      7  C   UNL     1       3.106   2.496  17.516  0.00  0.00    +0.000 A 
ATOM      8  C   UNL     1       3.957   3.482  16.987  0.00  0.00    +0.000 A 
ATOM      9  C   UNL     1       3.780   4.852  17.279  0.00  0.00    +0.000 A 
ATOM     10  C   UNL     1       2.890   5.246  18.308  0.00  0.00    +0.000 A 
ATOM     11  C   UNL     1       1.086   2.209  19.148  0.00  0.00    +0.000 C 
ATOM     12  C   UNL     1       1.039   2.982  20.504  0.00  0.00    +0.000 C 
ENDROOT
BRANCH   1  14
ATOM     13  O   UNL     1       3.881   8.142  17.650  0.00  0.00    +0.000 OA
ATOM     14  C   UNL     1       2.778   7.754  18.028  0.00  0.00    +0.000 C 
BRANCH  14  15
ATOM     15  C   UNL     1       1.533   8.537  17.824  0.00  0.00    +0.000 C 
ATOM     16  C   UNL     1       1.152   9.508  18.667  0.00  0.00    +0.000 C 
BRANCH  16  17
ATOM     17  C   UNL     1      -0.056  10.305  18.410  0.00  0.00    +0.000 A 
ATOM     18  C   UNL     1      -1.078   9.812  17.592  0.00  0.00    +0.000 A 
ATOM     19  C   UNL     1      -2.187  10.595  17.280  0.00  0.00    +0.000 A 
ATOM     20  C   UNL     1      -2.286  11.889  17.786  0.00  0.00    +0.000 A 
ATOM     21  C   UNL     1      -1.268  12.396  18.600  0.00  0.00    +0.000 A 
ATOM     22  C   UNL     1      -0.155  11.608  18.907  0.00  0.00    +0.000 A 
ENDBRANCH  16  17
ENDBRANCH  14  15
ENDBRANCH   1  14
TORSDOF 3
ENDMDL
MODEL 7
REMARK VINA RESULT:      -8.0      3.418      8.172
REMARK  Name = 
REMARK  3 active torsions:
REMARK  status: ('A' for Active; 'I' for Inactive)
REMARK    1  A    between atoms: C_2  and  C_3
REMARK    2  A    between atoms: C_2  and  C_11
REMARK    3  A    between atoms: C_4  and  C_5
REMARK                            x       y       z     vdW  Elec       q    Type
REMARK                         _______ _______ _______ _____ _____    ______ ____
ROOT
ATOM      1  C   UNL     1       2.400   6.610  19.248  0.00  0.00    +0.000 A 
ATOM      2  C   UNL     1       1.792   6.013  20.377  0.00  0.00    +0.000 A 
ATOM      3  C   UNL     1       1.708   4.613  20.512  0.00  0.00    +0.000 A 
ATOM      4  C   UNL     1       2.124   3.877  19.412  0.00  0.00    +0.000 A 
ATOM      5  C   UNL     1       2.812   4.484  18.380  0.00  0.00    +0.000 A 
ATOM      6  C   UNL     1       3.243   3.554  17.457  0.00  0.00    +0.000 A 
ATOM      7  C   UNL     1       4.336   3.824  16.653  0.00  0.00    +0.000 A 
ATOM      8  C   UNL     1       4.810   5.148  16.689  0.00  0.00    +0.000 A 
ATOM      9  C   UNL     1       4.144   6.156  17.419  0.00  0.00    +0.000 A 
ATOM     10  C   UNL     1       3.119   5.808  18.332  0.00  0.00    +0.000 A 
ATOM     11  C   UNL     1       2.466   2.301  17.656  0.00  0.00    +0.000 C 
ATOM     12  C   UNL     1       2.077   2.403  19.164  0.00  0.00    +0.000 C 
ENDROOT
BRANCH   1  14
ATOM     13  O   UNL     1       2.600   8.593  17.964  0.00  0.00    +0.000 OA
ATOM     14  C   UNL     1       2.141   8.049  18.965  0.00  0.00    +0.000 C 
BRANCH  14  15
ATOM     15  C   UNL     1       1.428   8.795  20.034  0.00  0.00    +0.000 C 
ATOM     16  C   UNL     1       0.409   9.625  19.770  0.00  0.00    +0.000 C 
BRANCH  16  17
ATOM     17  C   UNL     1      -0.314  10.307  20.852  0.00  0.00    +0.000 A 
ATOM     18  C   UNL     1      -0.896  11.562  20.645  0.00  0.00    +0.000 A 
ATOM     19  C   UNL     1      -1.512  12.248  21.689  0.00  0.00    +0.000 A 
ATOM     20  C   UNL     1      -1.552  11.683  22.961  0.00  0.00    +0.000 A 
ATOM     21  C   UNL     1      -0.968  10.431  23.183  0.00  0.00    +0.000 A 
ATOM     22  C   UNL     1      -0.348   9.748  22.133  0.00  0.00    +0.000 A 
ENDBRANCH  16  17
ENDBRANCH  14  15
ENDBRANCH   1  14
TORSDOF 3
ENDMDL
MODEL 8
REMARK VINA RESULT:      -8.0      3.369      8.120
REMARK  Name = 
REMARK  3 active torsions:
REMARK  status: ('A' for Active; 'I' for Inactive)
REMARK    1  A    between atoms: C_2  and  C_3
REMARK    2  A    between atoms: C_2  and  C_11
REMARK    3  A    between atoms: C_4  and  C_5
REMARK                            x       y       z     vdW  Elec       q    Type
REMARK                         _______ _______ _______ _____ _____    ______ ____
ROOT
ATOM      1  C   UNL     1       2.460   6.434  19.283  0.00  0.00    +0.000 A 
ATOM      2  C   UNL     1       1.861   5.799  20.395  0.00  0.00    +0.000 A 
ATOM      3  C   UNL     1       1.804   4.396  20.497  0.00  0.00    +0.000 A 
ATOM      4  C   UNL     1       2.235   3.693  19.381  0.00  0.00    +0.000 A 
ATOM      5  C   UNL     1       2.913   4.338  18.365  0.00  0.00    +0.000 A 
ATOM      6  C   UNL     1       3.362   3.438  17.421  0.00  0.00    +0.000 A 
ATOM      7  C   UNL     1       4.452   3.748  16.625  0.00  0.00    +0.000 A 
ATOM      8  C   UNL     1       4.900   5.080  16.693  0.00  0.00    +0.000 A 
ATOM      9  C   UNL     1       4.215   6.057  17.446  0.00  0.00    +0.000 A 
ATOM     10  C   UNL     1       3.195   5.668  18.349  0.00  0.00    +0.000 A 
ATOM     11  C   UNL     1       2.609   2.167  17.588  0.00  0.00    +0.000 C 
ATOM     12  C   UNL     1       2.216   2.225  19.098  0.00  0.00    +0.000 C 
ENDROOT
BRANCH   1  14
ATOM     13  O   UNL     1       2.634   8.454  18.052  0.00  0.00    +0.000 OA
ATOM     14  C   UNL     1       2.174   7.875  19.034  0.00  0.00    +0.000 C 
BRANCH  14  15
ATOM     15  C   UNL     1       1.433   8.578  20.112  0.00  0.00    +0.000 C 
ATOM     16  C   UNL     1       0.779   9.728  19.899  0.00  0.00    +0.000 C 
BRANCH  16  17
ATOM     17  C   UNL     1       0.008  10.373  20.971  0.00  0.00    +0.000 A 
ATOM     18  C   UNL     1      -0.129   9.761  22.222  0.00  0.00    +0.000 A 
ATOM     19  C   UNL     1      -0.926  10.328  23.214  0.00  0.00    +0.000 A 
ATOM     20  C   UNL     1      -1.601  11.521  22.964  0.00  0.00    +0.000 A 
ATOM     21  C   UNL     1      -1.477  12.139  21.714  0.00  0.00    +0.000 A 
ATOM     22  C   UNL     1      -0.680  11.564  20.721  0.00  0.00    +0.000 A 
ENDBRANCH  16  17
ENDBRANCH  14  15
ENDBRANCH   1  14
TORSDOF 3
ENDMDL
MODEL 9
REMARK VINA RESULT:      -8.0      4.432      6.876
REMARK  Name = 
REMARK  3 active torsions:
REMARK  status: ('A' for Active; 'I' for Inactive)
REMARK    1  A    between atoms: C_2  and  C_3
REMARK    2  A    between atoms: C_2  and  C_11
REMARK    3  A    between atoms: C_4  and  C_5
REMARK                            x       y       z     vdW  Elec       q    Type
REMARK                         _______ _______ _______ _____ _____    ______ ____
ROOT
ATOM      1  C   UNL     1       0.608   9.898  19.123  0.00  0.00    +0.000 A 
ATOM      2  C   UNL     1       0.909   9.960  20.504  0.00  0.00    +0.000 A 
ATOM      3  C   UNL     1       0.068  10.634  21.410  0.00  0.00    +0.000 A 
ATOM      4  C   UNL     1      -0.979  11.347  20.843  0.00  0.00    +0.000 A 
ATOM      5  C   UNL     1      -1.306  11.173  19.513  0.00  0.00    +0.000 A 
ATOM      6  C   UNL     1      -2.451  11.873  19.189  0.00  0.00    +0.000 A 
ATOM      7  C   UNL     1      -3.235  11.471  18.122  0.00  0.00    +0.000 A 
ATOM      8  C   UNL     1      -2.678  10.481  17.292  0.00  0.00    +0.000 A 
ATOM      9  C   UNL     1      -1.362  10.006  17.480  0.00  0.00    +0.000 A 
ATOM     10  C   UNL     1      -0.652  10.340  18.660  0.00  0.00    +0.000 A 
ATOM     11  C   UNL     1      -2.689  12.895  20.242  0.00  0.00    +0.000 C 
ATOM     12  C   UNL     1      -1.987  12.250  21.478  0.00  0.00    +0.000 C 
ENDROOT
BRANCH   1  14
ATOM     13  O   UNL     1       2.327  10.364  17.558  0.00  0.00    +0.000 OA
ATOM     14  C   UNL     1       1.683   9.513  18.167  0.00  0.00    +0.000 C 
BRANCH  14  15
ATOM     15  C   UNL     1       1.813   8.058  17.900  0.00  0.00    +0.000 C 
ATOM     16  C   UNL     1       2.976   7.405  18.045  0.00  0.00    +0.000 C 
BRANCH  16  17
ATOM     17  C   UNL     1       3.063   5.954  17.828  0.00  0.00    +0.000 A 
ATOM     18  C   UNL     1       4.215   5.380  17.280  0.00  0.00    +0.000 A 
ATOM     19  C   UNL     1       4.273   4.017  16.998  0.00  0.00    +0.000 A 
ATOM     20  C   UNL     1       3.169   3.208  17.260  0.00  0.00    +0.000 A 
ATOM     21  C   UNL     1       2.009   3.771  17.802  0.00  0.00    +0.000 A 
ATOM     22  C   UNL     1       1.955   5.140  18.080  0.00  0.00    +0.000 A 
ENDBRANCH  16  17
ENDBRANCH  14  15
ENDBRANCH   1  14
TORSDOF 3
ENDMDL
