MODEL 1
REMARK VINA RESULT:      -6.7      0.000      0.000
REMARK  Name = 
REMARK  5 active torsions:
REMARK  status: ('A' for Active; 'I' for Inactive)
REMARK    1  A    between atoms: C_1  and  C_2
REMARK    2  A    between atoms: C_2  and  C_3
REMARK    3  A    between atoms: C_3  and  C_4
REMARK    4  A    between atoms: C_5  and  C_6
REMARK    5  A    between atoms: N_13  and  O_14
REMARK                            x       y       z     vdW  Elec       q    Type
REMARK                         _______ _______ _______ _____ _____    ______ ____
ROOT
ATOM      1  C   UNL     1       5.435   4.286  15.051  0.00  0.00    +0.000 C 
ATOM      2  C   UNL     1       5.144   5.051  16.116  0.00  0.00    +0.000 C 
ENDROOT
BRANCH   2   3
ATOM      3  C   UNL     1       4.045   4.818  17.080  0.00  0.00    +0.000 A 
ATOM      4  C   UNL     1       3.534   5.830  17.905  0.00  0.00    +0.000 A 
ATOM      5  C   UNL     1       2.455   5.580  18.760  0.00  0.00    +0.000 A 
ATOM      6  C   UNL     1       1.874   4.319  18.784  0.00  0.00    +0.000 A 
ATOM      7  F   UNL     1       0.835   4.086  19.595  0.00  0.00    +0.000 F 
ATOM      8  C   UNL     1       2.354   3.301  17.971  0.00  0.00    +0.000 A 
ATOM      9  C   UNL     1       3.433   3.551  17.119  0.00  0.00    +0.000 A 
ENDBRANCH   2   3
BRANCH   1  10
ATOM     10  C   UNL     1       6.590   4.624  14.152  0.00  0.00    +0.000 C 
ATOM     11  N   UNL     1       7.476   5.499  14.550  0.00  0.00    +0.000 NA
BRANCH  10  13
ATOM     12  C   UNL     1       5.526   3.253  12.154  0.00  0.00    +0.000 C 
ATOM     13  C   UNL     1       6.723   3.942  12.777  0.00  0.00    +0.000 C 
ENDBRANCH  10  13
BRANCH  11  14
ATOM     14  O   UNL     1       8.480   5.697  13.593  0.00  0.00    +0.000 OA
ATOM     15  H   UNL     1       7.970   5.761  12.764  0.00  0.00    +0.000 HD
ENDBRANCH  11  14
ENDBRANCH   1  10
TORSDOF 4
ENDMDL
MODEL 2
REMARK VINA RESULT:      -6.6      0.564      1.364
REMARK  Name = 
REMARK  5 active torsions:
REMARK  status: ('A' for Active; 'I' for Inactive)
REMARK    1  A    between atoms: C_1  and  C_2
REMARK    2  A    between atoms: C_2  and  C_3
REMARK    3  A    between atoms: C_3  and  C_4
REMARK    4  A    between atoms: C_5  and  C_6
REMARK    5  A    between atoms: N_13  and  O_14
REMARK                            x       y       z     vdW  Elec       q    Type
REMARK                         _______ _______ _______ _____ _____    ______ ____
ROOT
ATOM      1  C   UNL     1       5.190   4.240  15.455  0.00  0.00    +0.000 C 
ATOM      2  C   UNL     1       4.849   5.045  16.475  0.00  0.00    +0.000 C 
ENDROOT
BRANCH   2   3
ATOM      3  C   UNL     1       3.735   4.822  17.424  0.00  0.00    +0.000 A 
ATOM      4  C   UNL     1       2.829   3.761  17.291  0.00  0.00    +0.000 A 
ATOM      5  C   UNL     1       1.826   3.552  18.244  0.00  0.00    +0.000 A 
ATOM      6  C   UNL     1       1.733   4.398  19.342  0.00  0.00    +0.000 A 
ATOM      7  F   UNL     1       0.780   4.189  20.258  0.00  0.00    +0.000 F 
ATOM      8  C   UNL     1       2.623   5.451  19.503  0.00  0.00    +0.000 A 
ATOM      9  C   UNL     1       3.623   5.660  18.550  0.00  0.00    +0.000 A 
ENDBRANCH   2   3
BRANCH   1  10
ATOM     10  C   UNL     1       6.355   4.574  14.567  0.00  0.00    +0.000 C 
ATOM     11  N   UNL     1       7.228   5.462  14.962  0.00  0.00    +0.000 NA
BRANCH  10  13
ATOM     12  C   UNL     1       5.284   3.457  12.419  0.00  0.00    +0.000 C 
ATOM     13  C   UNL     1       6.512   3.872  13.204  0.00  0.00    +0.000 C 
ENDBRANCH  10  13
BRANCH  11  14
ATOM     14  O   UNL     1       8.243   5.653  14.016  0.00  0.00    +0.000 OA
ATOM     15  H   UNL     1       8.539   6.562  14.207  0.00  0.00    +0.000 HD
ENDBRANCH  11  14
ENDBRANCH   1  10
TORSDOF 4
ENDMDL
MODEL 3
REMARK VINA RESULT:      -6.5      1.102      1.185
REMARK  Name = 
REMARK  5 active torsions:
REMARK  status: ('A' for Active; 'I' for Inactive)
REMARK    1  A    between atoms: C_1  and  C_2
REMARK    2  A    between atoms: C_2  and  C_3
REMARK    3  A    between atoms: C_3  and  C_4
REMARK    4  A    between atoms: C_5  and  C_6
REMARK    5  A    between atoms: N_13  and  O_14
REMARK                            x       y       z     vdW  Elec       q    Type
REMARK                         _______ _______ _______ _____ _____    ______ ____
ROOT
ATOM      1  C   UNL     1       5.042   4.513  15.529  0.00  0.00    +0.000 C 
ATOM      2  C   UNL     1       5.159   4.031  16.778  0.00  0.00    +0.000 C 
ENDROOT
BRANCH   2   3
ATOM      3  C   UNL     1       4.049   3.805  17.730  0.00  0.00    +0.000 A 
ATOM      4  C   UNL     1       4.223   3.850  19.120  0.00  0.00    +0.000 A 
ATOM      5  C   UNL     1       3.133   3.689  19.983  0.00  0.00    +0.000 A 
ATOM      6  C   UNL     1       1.862   3.493  19.459  0.00  0.00    +0.000 A 
ATOM      7  F   UNL     1       0.821   3.350  20.287  0.00  0.00    +0.000 F 
ATOM      8  C   UNL     1       1.660   3.454  18.086  0.00  0.00    +0.000 A 
ATOM      9  C   UNL     1       2.749   3.613  17.225  0.00  0.00    +0.000 A 
ENDBRANCH   2   3
BRANCH   1  10
ATOM     10  C   UNL     1       6.251   4.685  14.654  0.00  0.00    +0.000 C 
ATOM     11  N   UNL     1       7.152   5.576  14.974  0.00  0.00    +0.000 NA
BRANCH  10  13
ATOM     12  C   UNL     1       5.233   3.546  12.492  0.00  0.00    +0.000 C 
ATOM     13  C   UNL     1       6.421   3.815  13.394  0.00  0.00    +0.000 C 
ENDBRANCH  10  13
BRANCH  11  14
ATOM     14  O   UNL     1       8.206   5.606  14.053  0.00  0.00    +0.000 OA
ATOM     15  H   UNL     1       8.316   4.663  13.830  0.00  0.00    +0.000 HD
ENDBRANCH  11  14
ENDBRANCH   1  10
TORSDOF 4
ENDMDL
MODEL 4
REMARK VINA RESULT:      -6.3      1.180      1.880
REMARK  Name = 
REMARK  5 active torsions:
REMARK  status: ('A' for Active; 'I' for Inactive)
REMARK    1  A    between atoms: C_1  and  C_2
REMARK    2  A    between atoms: C_2  and  C_3
REMARK    3  A    between atoms: C_3  and  C_4
REMARK    4  A    between atoms: C_5  and  C_6
REMARK    5  A    between atoms: N_13  and  O_14
REMARK                            x       y       z     vdW  Elec       q    Type
REMARK                         _______ _______ _______ _____ _____    ______ ____
ROOT
ATOM      1  C   UNL     1       5.512   4.190  16.509  0.00  0.00    +0.000 C 
ATOM      2  C   UNL     1       4.170   4.129  16.477  0.00  0.00    +0.000 C 
ENDROOT
BRANCH   2   3
ATOM      3  C   UNL     1       3.294   3.666  17.576  0.00  0.00    +0.000 A 
ATOM      4  C   UNL     1       3.522   2.473  18.274  0.00  0.00    +0.000 A 
ATOM      5  C   UNL     1       2.702   2.103  19.347  0.00  0.00    +0.000 A 
ATOM      6  C   UNL     1       1.657   2.932  19.733  0.00  0.00    +0.000 A 
ATOM      7  F   UNL     1       0.882   2.581  20.765  0.00  0.00    +0.000 F 
ATOM      8  C   UNL     1       1.414   4.124  19.064  0.00  0.00    +0.000 A 
ATOM      9  C   UNL     1       2.232   4.492  17.992  0.00  0.00    +0.000 A 
ENDBRANCH   2   3
BRANCH   1  10
ATOM     10  C   UNL     1       6.289   4.692  15.325  0.00  0.00    +0.000 C 
ATOM     11  N   UNL     1       7.473   5.212  15.511  0.00  0.00    +0.000 NA
BRANCH  10  13
ATOM     12  C   UNL     1       6.127   3.479  12.979  0.00  0.00    +0.000 C 
ATOM     13  C   UNL     1       5.689   4.591  13.910  0.00  0.00    +0.000 C 
ENDBRANCH  10  13
BRANCH  11  14
ATOM     14  O   UNL     1       8.054   5.629  14.307  0.00  0.00    +0.000 OA
ATOM     15  H   UNL     1       7.282   5.936  13.797  0.00  0.00    +0.000 HD
ENDBRANCH  11  14
ENDBRANCH   1  10
TORSDOF 4
ENDMDL
MODEL 5
REMARK VINA RESULT:      -6.3      4.890      6.660
REMARK  Name = 
REMARK  5 active torsions:
REMARK  status: ('A' for Active; 'I' for Inactive)
REMARK    1  A    between atoms: C_1  and  C_2
REMARK    2  A    between atoms: C_2  and  C_3
REMARK    3  A    between atoms: C_3  and  C_4
REMARK    4  A    between atoms: C_5  and  C_6
REMARK    5  A    between atoms: N_13  and  O_14
REMARK                            x       y       z     vdW  Elec       q    Type
REMARK                         _______ _______ _______ _____ _____    ______ ____
ROOT
ATOM      1  C   UNL     1       2.731   4.585  18.969  0.00  0.00    +0.000 C 
ATOM      2  C   UNL     1       3.901   4.293  18.377  0.00  0.00    +0.000 C 
ENDROOT
BRANCH   2   3
ATOM      3  C   UNL     1       5.035   5.225  18.187  0.00  0.00    +0.000 A 
ATOM      4  C   UNL     1       6.258   5.075  18.854  0.00  0.00    +0.000 A 
ATOM      5  C   UNL     1       7.324   5.945  18.601  0.00  0.00    +0.000 A 
ATOM      6  C   UNL     1       7.175   6.963  17.668  0.00  0.00    +0.000 A 
ATOM      7  F   UNL     1       8.200   7.787  17.420  0.00  0.00    +0.000 F 
ATOM      8  C   UNL     1       5.978   7.129  16.985  0.00  0.00    +0.000 A 
ATOM      9  C   UNL     1       4.913   6.261  17.241  0.00  0.00    +0.000 A 
ENDBRANCH   2   3
BRANCH   1  10
ATOM     10  C   UNL     1       1.659   3.543  19.112  0.00  0.00    +0.000 C 
ATOM     11  N   UNL     1       1.327   2.819  18.075  0.00  0.00    +0.000 NA
BRANCH  10  13
ATOM     12  C   UNL     1       1.708   2.671  21.610  0.00  0.00    +0.000 C 
ATOM     13  C   UNL     1       0.962   3.333  20.469  0.00  0.00    +0.000 C 
ENDBRANCH  10  13
BRANCH  11  14
ATOM     14  O   UNL     1       0.314   1.902  18.382  0.00  0.00    +0.000 OA
ATOM     15  H   UNL     1      -0.013   1.648  17.499  0.00  0.00    +0.000 HD
ENDBRANCH  11  14
ENDBRANCH   1  10
TORSDOF 4
ENDMDL
MODEL 6
REMARK VINA RESULT:      -6.2      4.902      6.608
REMARK  Name = 
REMARK  5 active torsions:
REMARK  status: ('A' for Active; 'I' for Inactive)
REMARK    1  A    between atoms: C_1  and  C_2
REMARK    2  A    between atoms: C_2  and  C_3
REMARK    3  A    between atoms: C_3  and  C_4
REMARK    4  A    between atoms: C_5  and  C_6
REMARK    5  A    between atoms: N_13  and  O_14
REMARK                            x       y       z     vdW  Elec       q    Type
REMARK                         _______ _______ _______ _____ _____    ______ ____
ROOT
ATOM      1  C   UNL     1       2.742   4.577  18.893  0.00  0.00    +0.000 C 
ATOM      2  C   UNL     1       3.884   4.272  18.254  0.00  0.00    +0.000 C 
ENDROOT
BRANCH   2   3
ATOM      3  C   UNL     1       5.017   5.193  18.014  0.00  0.00    +0.000 A 
ATOM      4  C   UNL     1       4.907   6.337  17.211  0.00  0.00    +0.000 A 
ATOM      5  C   UNL     1       5.989   7.211  17.059  0.00  0.00    +0.000 A 
ATOM      6  C   UNL     1       7.183   6.951  17.718  0.00  0.00    +0.000 A 
ATOM      7  F   UNL     1       8.212   7.796  17.579  0.00  0.00    +0.000 F 
ATOM      8  C   UNL     1       7.317   5.831  18.527  0.00  0.00    +0.000 A 
ATOM      9  C   UNL     1       6.237   4.956  18.677  0.00  0.00    +0.000 A 
ENDBRANCH   2   3
BRANCH   1  10
ATOM     10  C   UNL     1       1.667   3.545  19.084  0.00  0.00    +0.000 C 
ATOM     11  N   UNL     1       1.258   2.848  18.056  0.00  0.00    +0.000 NA
BRANCH  10  13
ATOM     12  C   UNL     1       1.962   3.063  21.669  0.00  0.00    +0.000 C 
ATOM     13  C   UNL     1       1.058   3.314  20.479  0.00  0.00    +0.000 C 
ENDBRANCH  10  13
BRANCH  11  14
ATOM     14  O   UNL     1       0.256   1.937  18.409  0.00  0.00    +0.000 OA
ATOM     15  H   UNL     1       0.636   1.500  19.194  0.00  0.00    +0.000 HD
ENDBRANCH  11  14
ENDBRANCH   1  10
TORSDOF 4
ENDMDL
MODEL 7
REMARK VINA RESULT:      -6.1      4.862      6.707
REMARK  Name = 
REMARK  5 active torsions:
REMARK  status: ('A' for Active; 'I' for Inactive)
REMARK    1  A    between atoms: C_1  and  C_2
REMARK    2  A    between atoms: C_2  and  C_3
REMARK    3  A    between atoms: C_3  and  C_4
REMARK    4  A    between atoms: C_5  and  C_6
REMARK    5  A    between atoms: N_13  and  O_14
REMARK                            x       y       z     vdW  Elec       q    Type
REMARK                         _______ _______ _______ _____ _____    ______ ____
ROOT
ATOM      1  C   UNL     1       3.810   3.282  19.670  0.00  0.00    +0.000 C 
ATOM      2  C   UNL     1       3.713   3.997  18.536  0.00  0.00    +0.000 C 
ENDROOT
BRANCH   2   3
ATOM      3  C   UNL     1       4.818   4.287  17.594  0.00  0.00    +0.000 A 
ATOM      4  C   UNL     1       6.137   4.498  18.016  0.00  0.00    +0.000 A 
ATOM      5  C   UNL     1       7.161   4.711  17.087  0.00  0.00    +0.000 A 
ATOM      6  C   UNL     1       6.871   4.701  15.729  0.00  0.00    +0.000 A 
ATOM      7  F   UNL     1       7.855   4.894  14.842  0.00  0.00    +0.000 F 
ATOM      8  C   UNL     1       5.575   4.485  15.282  0.00  0.00    +0.000 A 
ATOM      9  C   UNL     1       4.552   4.275  16.211  0.00  0.00    +0.000 A 
ENDBRANCH   2   3
BRANCH   1  10
ATOM     10  C   UNL     1       2.607   3.048  20.538  0.00  0.00    +0.000 C 
ATOM     11  N   UNL     1       2.773   2.617  21.760  0.00  0.00    +0.000 NA
BRANCH  10  13
ATOM     12  C   UNL     1       0.606   2.401  18.930  0.00  0.00    +0.000 C 
ATOM     13  C   UNL     1       1.194   3.316  19.986  0.00  0.00    +0.000 C 
ENDBRANCH  10  13
BRANCH  11  14
ATOM     14  O   UNL     1       1.552   2.452  22.425  0.00  0.00    +0.000 OA
ATOM     15  H   UNL     1       1.432   1.484  22.407  0.00  0.00    +0.000 HD
ENDBRANCH  11  14
ENDBRANCH   1  10
TORSDOF 4
ENDMDL
MODEL 8
REMARK VINA RESULT:      -6.1      2.475      3.427
REMARK  Name = 
REMARK  5 active torsions:
REMARK  status: ('A' for Active; 'I' for Inactive)
REMARK    1  A    between atoms: C_1  and  C_2
REMARK    2  A    between atoms: C_2  and  C_3
REMARK    3  A    between atoms: C_3  and  C_4
REMARK    4  A    between atoms: C_5  and  C_6
REMARK    5  A    between atoms: N_13  and  O_14
REMARK                            x       y       z     vdW  Elec       q    Type
REMARK                         _______ _______ _______ _____ _____    ______ ____
ROOT
ATOM      1  C   UNL     1       5.698   4.694  18.011  0.00  0.00    +0.000 C 
ATOM      2  C   UNL     1       4.360   4.618  17.911  0.00  0.00    +0.000 C 
ENDROOT
BRANCH   2   3
ATOM      3  C   UNL     1       3.444   4.036  18.917  0.00  0.00    +0.000 A 
ATOM      4  C   UNL     1       3.870   3.118  19.886  0.00  0.00    +0.000 A 
ATOM      5  C   UNL     1       2.983   2.636  20.856  0.00  0.00    +0.000 A 
ATOM      6  C   UNL     1       1.668   3.081  20.867  0.00  0.00    +0.000 A 
ATOM      7  F   UNL     1       0.825   2.628  21.802  0.00  0.00    +0.000 F 
ATOM      8  C   UNL     1       1.221   3.998  19.924  0.00  0.00    +0.000 A 
ATOM      9  C   UNL     1       2.107   4.476  18.955  0.00  0.00    +0.000 A 
ENDBRANCH   2   3
BRANCH   1  10
ATOM     10  C   UNL     1       6.518   5.323  16.921  0.00  0.00    +0.000 C 
ATOM     11  N   UNL     1       6.816   4.623  15.858  0.00  0.00    +0.000 NA
BRANCH  10  13
ATOM     12  C   UNL     1       7.936   7.164  18.188  0.00  0.00    +0.000 C 
ATOM     13  C   UNL     1       6.999   6.780  17.061  0.00  0.00    +0.000 C 
ENDBRANCH  10  13
BRANCH  11  14
ATOM     14  O   UNL     1       7.583   5.359  14.947  0.00  0.00    +0.000 OA
ATOM     15  H   UNL     1       7.445   6.276  15.249  0.00  0.00    +0.000 HD
ENDBRANCH  11  14
ENDBRANCH   1  10
TORSDOF 4
ENDMDL
MODEL 9
REMARK VINA RESULT:      -6.1      1.034      1.360
REMARK  Name = 
REMARK  5 active torsions:
REMARK  status: ('A' for Active; 'I' for Inactive)
REMARK    1  A    between atoms: C_1  and  C_2
REMARK    2  A    between atoms: C_2  and  C_3
REMARK    3  A    between atoms: C_3  and  C_4
REMARK    4  A    between atoms: C_5  and  C_6
REMARK    5  A    between atoms: N_13  and  O_14
REMARK                            x       y       z     vdW  Elec       q    Type
REMARK                         _______ _______ _______ _____ _____    ______ ____
ROOT
ATOM      1  C   UNL     1       5.054   5.081  16.318  0.00  0.00    +0.000 C 
ATOM      2  C   UNL     1       4.397   3.931  16.548  0.00  0.00    +0.000 C 
ENDROOT
BRANCH   2   3
ATOM      3  C   UNL     1       3.384   3.706  17.603  0.00  0.00    +0.000 A 
ATOM      4  C   UNL     1       2.841   4.748  18.366  0.00  0.00    +0.000 A 
ATOM      5  C   UNL     1       1.842   4.497  19.314  0.00  0.00    +0.000 A 
ATOM      6  C   UNL     1       1.374   3.202  19.494  0.00  0.00    +0.000 A 
ATOM      7  F   UNL     1       0.411   2.967  20.393  0.00  0.00    +0.000 F 
ATOM      8  C   UNL     1       1.887   2.152  18.745  0.00  0.00    +0.000 A 
ATOM      9  C   UNL     1       2.886   2.403  17.800  0.00  0.00    +0.000 A 
ENDBRANCH   2   3
BRANCH   1  10
ATOM     10  C   UNL     1       6.054   5.185  15.202  0.00  0.00    +0.000 C 
ATOM     11  N   UNL     1       7.272   5.579  15.468  0.00  0.00    +0.000 NA
BRANCH  10  13
ATOM     12  C   UNL     1       5.983   3.468  13.190  0.00  0.00    +0.000 C 
ATOM     13  C   UNL     1       5.643   4.829  13.761  0.00  0.00    +0.000 C 
ENDBRANCH  10  13
BRANCH  11  14
ATOM     14  O   UNL     1       8.069   5.622  14.318  0.00  0.00    +0.000 OA
ATOM     15  H   UNL     1       7.470   6.023  13.662  0.00  0.00    +0.000 HD
ENDBRANCH  11  14
ENDBRANCH   1  10
TORSDOF 4
ENDMDL
