MODEL 1
REMARK VINA RESULT:      -8.9      0.000      0.000
REMARK  Name = 
REMARK  4 active torsions:
REMARK  status: ('A' for Active; 'I' for Inactive)
REMARK    1  A    between atoms: N_1  and  C_2
REMARK    2  A    between atoms: C_3  and  S_4
REMARK    3  A    between atoms: S_4  and  C_7
REMARK    4  A    between atoms: C_18  and  C_19
REMARK                            x       y       z     vdW  Elec       q    Type
REMARK                         _______ _______ _______ _____ _____    ______ ____
ROOT
ATOM      1  C   UNL     1       2.907   5.820  19.750  0.00  0.00    +0.000 A 
ATOM      2  C   UNL     1       3.606   5.513  18.637  0.00  0.00    +0.000 A 
ATOM      3  C   UNL     1       3.655   6.533  17.563  0.00  0.00    +0.000 A 
ATOM      4  N   UNL     1       3.088   7.703  17.588  0.00  0.00    +0.000 NA
ATOM      5  C   UNL     1       2.372   7.985  18.714  0.00  0.00    +0.000 A 
ATOM      6  C   UNL     1       1.630   9.083  19.064  0.00  0.00    +0.000 A 
ATOM      7  C   UNL     1       1.088   8.804  20.343  0.00  0.00    +0.000 A 
ATOM      8  N   UNL     1       1.486   7.599  20.781  0.00  0.00    +0.000 NA
ATOM      9  N   UNL     1       2.272   7.095  19.784  0.00  0.00    +0.000 N 
ENDROOT
BRANCH   7  10
ATOM     10  C   UNL     1       0.214   9.677  21.133  0.00  0.00    +0.000 A 
ATOM     11  C   UNL     1      -0.345  10.830  20.560  0.00  0.00    +0.000 A 
ATOM     12  C   UNL     1      -1.146  11.689  21.320  0.00  0.00    +0.000 A 
ATOM     13  C   UNL     1      -1.396  11.404  22.660  0.00  0.00    +0.000 A 
ATOM     14  C   UNL     1      -0.856  10.256  23.238  0.00  0.00    +0.000 A 
ATOM     15  C   UNL     1      -0.061   9.394  22.477  0.00  0.00    +0.000 A 
ENDBRANCH   7  10
BRANCH   1  16
ATOM     16  N   UNL     1       2.729   5.003  20.869  0.00  0.00    +0.000 N 
ATOM     17  H   UNL     1       3.374   5.211  21.640  0.00  0.00    +0.000 HD
ATOM     18  H   UNL     1       2.756   4.010  20.608  0.00  0.00    +0.000 HD
ENDBRANCH   1  16
BRANCH   2  19
ATOM     19  S   UNL     1       4.393   4.007  18.413  0.00  0.00    +0.000 S 
ATOM     20  O   UNL     1       5.316   3.753  19.508  0.00  0.00    +0.000 OA
ATOM     21  O   UNL     1       3.412   2.994  18.064  0.00  0.00    +0.000 OA
BRANCH  19  22
ATOM     22  C   UNL     1       5.383   4.265  16.948  0.00  0.00    +0.000 A 
ATOM     23  C   UNL     1       4.823   4.036  15.685  0.00  0.00    +0.000 A 
ATOM     24  C   UNL     1       5.573   4.313  14.539  0.00  0.00    +0.000 A 
ATOM     25  C   UNL     1       6.865   4.824  14.659  0.00  0.00    +0.000 A 
ATOM     26 CL   UNL     1       7.777   5.179  13.244  0.00  0.00    +0.000 Cl
ATOM     27  C   UNL     1       7.417   5.064  15.917  0.00  0.00    +0.000 A 
ATOM     28  C   UNL     1       6.675   4.790  17.069  0.00  0.00    +0.000 A 
ENDBRANCH  19  22
ENDBRANCH   2  19
TORSDOF 4
ENDMDL
MODEL 2
REMARK VINA RESULT:      -8.7      0.199      1.356
REMARK  Name = 
REMARK  4 active torsions:
REMARK  status: ('A' for Active; 'I' for Inactive)
REMARK    1  A    between atoms: N_1  and  C_2
REMARK    2  A    between atoms: C_3  and  S_4
REMARK    3  A    between atoms: S_4  and  C_7
REMARK    4  A    between atoms: C_18  and  C_19
REMARK                            x       y       z     vdW  Elec       q    Type
REMARK                         _______ _______ _______ _____ _____    ______ ____
ROOT
ATOM      1  C   UNL     1       2.927   6.000  19.688  0.00  0.00    +0.000 A 
ATOM      2  C   UNL     1       3.588   5.713  18.547  0.00  0.00    +0.000 A 
ATOM      3  C   UNL     1       3.575   6.740  17.478  0.00  0.00    +0.000 A 
ATOM      4  N   UNL     1       2.984   7.897  17.532  0.00  0.00    +0.000 NA
ATOM      5  C   UNL     1       2.308   8.159  18.687  0.00  0.00    +0.000 A 
ATOM      6  C   UNL     1       1.557   9.238  19.072  0.00  0.00    +0.000 A 
ATOM      7  C   UNL     1       1.071   8.942  20.370  0.00  0.00    +0.000 A 
ATOM      8  N   UNL     1       1.511   7.743  20.784  0.00  0.00    +0.000 NA
ATOM      9  N   UNL     1       2.267   7.261  19.754  0.00  0.00    +0.000 N 
ENDROOT
BRANCH   7  10
ATOM     10  C   UNL     1       0.210   9.792  21.198  0.00  0.00    +0.000 A 
ATOM     11  C   UNL     1      -0.075   9.436  22.526  0.00  0.00    +0.000 A 
ATOM     12  C   UNL     1      -0.928  10.221  23.308  0.00  0.00    +0.000 A 
ATOM     13  C   UNL     1      -1.506  11.368  22.770  0.00  0.00    +0.000 A 
ATOM     14  C   UNL     1      -1.222  11.739  21.457  0.00  0.00    +0.000 A 
ATOM     15  C   UNL     1      -0.364  10.958  20.676  0.00  0.00    +0.000 A 
ENDBRANCH   7  10
BRANCH   1  16
ATOM     16  N   UNL     1       2.810   5.173  20.808  0.00  0.00    +0.000 N 
ATOM     17  H   UNL     1       3.143   5.604  21.677  0.00  0.00    +0.000 HD
ATOM     18  H   UNL     1       3.253   4.262  20.641  0.00  0.00    +0.000 HD
ENDBRANCH   1  16
BRANCH   2  19
ATOM     19  S   UNL     1       4.397   4.225  18.283  0.00  0.00    +0.000 S 
ATOM     20  O   UNL     1       5.352   3.974  19.352  0.00  0.00    +0.000 OA
ATOM     21  O   UNL     1       3.427   3.198  17.945  0.00  0.00    +0.000 OA
BRANCH  19  22
ATOM     22  C   UNL     1       5.345   4.521  16.798  0.00  0.00    +0.000 A 
ATOM     23  C   UNL     1       6.654   5.009  16.898  0.00  0.00    +0.000 A 
ATOM     24  C   UNL     1       7.420   5.166  15.740  0.00  0.00    +0.000 A 
ATOM     25  C   UNL     1       6.883   4.828  14.498  0.00  0.00    +0.000 A 
ATOM     26 CL   UNL     1       7.837   5.008  13.078  0.00  0.00    +0.000 Cl
ATOM     27  C   UNL     1       5.583   4.331  14.401  0.00  0.00    +0.000 A 
ATOM     28  C   UNL     1       4.809   4.170  15.554  0.00  0.00    +0.000 A 
ENDBRANCH  19  22
ENDBRANCH   2  19
TORSDOF 4
ENDMDL
MODEL 3
REMARK VINA RESULT:      -8.1      0.663      1.152
REMARK  Name = 
REMARK  4 active torsions:
REMARK  status: ('A' for Active; 'I' for Inactive)
REMARK    1  A    between atoms: N_1  and  C_2
REMARK    2  A    between atoms: C_3  and  S_4
REMARK    3  A    between atoms: S_4  and  C_7
REMARK    4  A    between atoms: C_18  and  C_19
REMARK                            x       y       z     vdW  Elec       q    Type
REMARK                         _______ _______ _______ _____ _____    ______ ____
ROOT
ATOM      1  C   UNL     1       2.641   6.444  19.924  0.00  0.00    +0.000 A 
ATOM      2  C   UNL     1       3.366   6.106  18.837  0.00  0.00    +0.000 A 
ATOM      3  C   UNL     1       3.404   7.077  17.718  0.00  0.00    +0.000 A 
ATOM      4  N   UNL     1       2.803   8.229  17.679  0.00  0.00    +0.000 NA
ATOM      5  C   UNL     1       2.061   8.542  18.780  0.00  0.00    +0.000 A 
ATOM      6  C   UNL     1       1.283   9.633  19.067  0.00  0.00    +0.000 A 
ATOM      7  C   UNL     1       0.728   9.398  20.350  0.00  0.00    +0.000 A 
ATOM      8  N   UNL     1       1.153   8.226  20.849  0.00  0.00    +0.000 NA
ATOM      9  N   UNL     1       1.968   7.700  19.889  0.00  0.00    +0.000 N 
ENDROOT
BRANCH   7  10
ATOM     10  C   UNL     1      -0.184  10.280  21.084  0.00  0.00    +0.000 A 
ATOM     11  C   UNL     1      -0.897  11.285  20.412  0.00  0.00    +0.000 A 
ATOM     12  C   UNL     1      -1.736  12.157  21.113  0.00  0.00    +0.000 A 
ATOM     13  C   UNL     1      -1.870  12.034  22.494  0.00  0.00    +0.000 A 
ATOM     14  C   UNL     1      -1.176  11.033  23.173  0.00  0.00    +0.000 A 
ATOM     15  C   UNL     1      -0.342  10.157  22.471  0.00  0.00    +0.000 A 
ENDBRANCH   7  10
BRANCH   1  16
ATOM     16  N   UNL     1       2.468   5.675  21.077  0.00  0.00    +0.000 N 
ATOM     17  H   UNL     1       1.977   6.165  21.832  0.00  0.00    +0.000 HD
ATOM     18  H   UNL     1       3.362   5.283  21.396  0.00  0.00    +0.000 HD
ENDBRANCH   1  16
BRANCH   2  19
ATOM     19  S   UNL     1       4.199   4.615  18.696  0.00  0.00    +0.000 S 
ATOM     20  O   UNL     1       5.183   4.484  19.759  0.00  0.00    +0.000 OA
ATOM     21  O   UNL     1       3.242   3.543  18.481  0.00  0.00    +0.000 OA
BRANCH  19  22
ATOM     22  C   UNL     1       5.106   4.785  17.166  0.00  0.00    +0.000 A 
ATOM     23  C   UNL     1       6.337   5.453  17.162  0.00  0.00    +0.000 A 
ATOM     24  C   UNL     1       7.082   5.519  15.982  0.00  0.00    +0.000 A 
ATOM     25  C   UNL     1       6.601   4.911  14.821  0.00  0.00    +0.000 A 
ATOM     26 CL   UNL     1       7.530   4.981  13.375  0.00  0.00    +0.000 Cl
ATOM     27  C   UNL     1       5.381   4.236  14.829  0.00  0.00    +0.000 A 
ATOM     28  C   UNL     1       4.629   4.166  16.005  0.00  0.00    +0.000 A 
ENDBRANCH  19  22
ENDBRANCH   2  19
TORSDOF 4
ENDMDL
MODEL 4
REMARK VINA RESULT:      -8.1      5.051      7.052
REMARK  Name = 
REMARK  4 active torsions:
REMARK  status: ('A' for Active; 'I' for Inactive)
REMARK    1  A    between atoms: N_1  and  C_2
REMARK    2  A    between atoms: C_3  and  S_4
REMARK    3  A    between atoms: S_4  and  C_7
REMARK    4  A    between atoms: C_18  and  C_19
REMARK                            x       y       z     vdW  Elec       q    Type
REMARK                         _______ _______ _______ _____ _____    ______ ____
ROOT
ATOM      1  C   UNL     1       6.191   6.433  16.654  0.00  0.00    +0.000 A 
ATOM      2  C   UNL     1       6.161   5.113  16.933  0.00  0.00    +0.000 A 
ATOM      3  C   UNL     1       7.041   4.629  18.022  0.00  0.00    +0.000 A 
ATOM      4  N   UNL     1       7.846   5.356  18.739  0.00  0.00    +0.000 NA
ATOM      5  C   UNL     1       7.875   6.683  18.429  0.00  0.00    +0.000 A 
ATOM      6  C   UNL     1       8.613   7.718  18.941  0.00  0.00    +0.000 A 
ATOM      7  C   UNL     1       8.241   8.872  18.207  0.00  0.00    +0.000 A 
ATOM      8  N   UNL     1       7.303   8.578  17.293  0.00  0.00    +0.000 NA
ATOM      9  N   UNL     1       7.078   7.238  17.426  0.00  0.00    +0.000 N 
ENDROOT
BRANCH   7  10
ATOM     10  C   UNL     1       8.768  10.228  18.384  0.00  0.00    +0.000 A 
ATOM     11  C   UNL     1       9.727  10.497  19.374  0.00  0.00    +0.000 A 
ATOM     12  C   UNL     1      10.202  11.796  19.574  0.00  0.00    +0.000 A 
ATOM     13  C   UNL     1       9.724  12.842  18.788  0.00  0.00    +0.000 A 
ATOM     14  C   UNL     1       8.781  12.588  17.794  0.00  0.00    +0.000 A 
ATOM     15  C   UNL     1       8.309  11.287  17.588  0.00  0.00    +0.000 A 
ENDBRANCH   7  10
BRANCH   1  16
ATOM     16  N   UNL     1       5.451   7.089  15.667  0.00  0.00    +0.000 N 
ATOM     17  H   UNL     1       5.774   6.898  14.712  0.00  0.00    +0.000 HD
ATOM     18  H   UNL     1       5.397   8.097  15.856  0.00  0.00    +0.000 HD
ENDBRANCH   1  16
BRANCH   2  19
ATOM     19  S   UNL     1       5.186   3.997  16.071  0.00  0.00    +0.000 S 
ATOM     20  O   UNL     1       4.653   4.618  14.868  0.00  0.00    +0.000 OA
ATOM     21  O   UNL     1       5.882   2.727  15.963  0.00  0.00    +0.000 OA
BRANCH  19  22
ATOM     22  C   UNL     1       3.803   3.715  17.167  0.00  0.00    +0.000 A 
ATOM     23  C   UNL     1       3.576   2.432  17.678  0.00  0.00    +0.000 A 
ATOM     24  C   UNL     1       2.542   2.229  18.596  0.00  0.00    +0.000 A 
ATOM     25  C   UNL     1       1.752   3.304  19.004  0.00  0.00    +0.000 A 
ATOM     26 CL   UNL     1       0.491   3.052  20.146  0.00  0.00    +0.000 Cl
ATOM     27  C   UNL     1       1.987   4.585  18.502  0.00  0.00    +0.000 A 
ATOM     28  C   UNL     1       3.019   4.796  17.584  0.00  0.00    +0.000 A 
ENDBRANCH  19  22
ENDBRANCH   2  19
TORSDOF 4
ENDMDL
MODEL 5
REMARK VINA RESULT:      -8.0      5.168      8.526
REMARK  Name = 
REMARK  4 active torsions:
REMARK  status: ('A' for Active; 'I' for Inactive)
REMARK    1  A    between atoms: N_1  and  C_2
REMARK    2  A    between atoms: C_3  and  S_4
REMARK    3  A    between atoms: S_4  and  C_7
REMARK    4  A    between atoms: C_18  and  C_19
REMARK                            x       y       z     vdW  Elec       q    Type
REMARK                         _______ _______ _______ _____ _____    ______ ____
ROOT
ATOM      1  C   UNL     1       0.988   9.291  20.024  0.00  0.00    +0.000 A 
ATOM      2  C   UNL     1       1.039  10.321  19.153  0.00  0.00    +0.000 A 
ATOM      3  C   UNL     1       1.778  10.102  17.887  0.00  0.00    +0.000 A 
ATOM      4  N   UNL     1       2.387   9.010  17.531  0.00  0.00    +0.000 NA
ATOM      5  C   UNL     1       2.338   7.989  18.434  0.00  0.00    +0.000 A 
ATOM      6  C   UNL     1       2.885   6.733  18.411  0.00  0.00    +0.000 A 
ATOM      7  C   UNL     1       2.527   6.121  19.638  0.00  0.00    +0.000 A 
ATOM      8  N   UNL     1       1.776   6.947  20.385  0.00  0.00    +0.000 NA
ATOM      9  N   UNL     1       1.661   8.092  19.650  0.00  0.00    +0.000 N 
ENDROOT
BRANCH   7  10
ATOM     10  C   UNL     1       2.888   4.772  20.082  0.00  0.00    +0.000 A 
ATOM     11  C   UNL     1       3.947   4.081  19.472  0.00  0.00    +0.000 A 
ATOM     12  C   UNL     1       4.270   2.778  19.863  0.00  0.00    +0.000 A 
ATOM     13  C   UNL     1       3.537   2.151  20.867  0.00  0.00    +0.000 A 
ATOM     14  C   UNL     1       2.490   2.829  21.489  0.00  0.00    +0.000 A 
ATOM     15  C   UNL     1       2.170   4.134  21.103  0.00  0.00    +0.000 A 
ENDBRANCH   7  10
BRANCH   1  16
ATOM     16  N   UNL     1       0.355   9.290  21.270  0.00  0.00    +0.000 N 
ATOM     17  H   UNL     1      -0.314  10.057  21.394  0.00  0.00    +0.000 HD
ATOM     18  H   UNL     1       1.042   9.256  22.032  0.00  0.00    +0.000 HD
ENDBRANCH   1  16
BRANCH   2  19
ATOM     19  S   UNL     1       0.323  11.847  19.465  0.00  0.00    +0.000 S 
ATOM     20  O   UNL     1       0.379  12.148  20.887  0.00  0.00    +0.000 OA
ATOM     21  O   UNL     1       0.826  12.822  18.515  0.00  0.00    +0.000 OA
BRANCH  19  22
ATOM     22  C   UNL     1      -1.397  11.593  19.054  0.00  0.00    +0.000 A 
ATOM     23  C   UNL     1      -2.383  12.338  19.713  0.00  0.00    +0.000 A 
ATOM     24  C   UNL     1      -3.721  12.195  19.337  0.00  0.00    +0.000 A 
ATOM     25  C   UNL     1      -4.064  11.323  18.303  0.00  0.00    +0.000 A 
ATOM     26 CL   UNL     1      -5.711  11.164  17.833  0.00  0.00    +0.000 Cl
ATOM     27  C   UNL     1      -3.080  10.591  17.640  0.00  0.00    +0.000 A 
ATOM     28  C   UNL     1      -1.739  10.727  18.010  0.00  0.00    +0.000 A 
ENDBRANCH  19  22
ENDBRANCH   2  19
TORSDOF 4
ENDMDL
MODEL 6
REMARK VINA RESULT:      -8.0      4.878      9.018
REMARK  Name = 
REMARK  4 active torsions:
REMARK  status: ('A' for Active; 'I' for Inactive)
REMARK    1  A    between atoms: N_1  and  C_2
REMARK    2  A    between atoms: C_3  and  S_4
REMARK    3  A    between atoms: S_4  and  C_7
REMARK    4  A    between atoms: C_18  and  C_19
REMARK                            x       y       z     vdW  Elec       q    Type
REMARK                         _______ _______ _______ _____ _____    ______ ____
ROOT
ATOM      1  C   UNL     1       1.567  10.029  18.824  0.00  0.00    +0.000 A 
ATOM      2  C   UNL     1       0.827  10.363  19.902  0.00  0.00    +0.000 A 
ATOM      3  C   UNL     1       0.661   9.336  20.957  0.00  0.00    +0.000 A 
ATOM      4  N   UNL     1       1.161   8.136  20.946  0.00  0.00    +0.000 NA
ATOM      5  C   UNL     1       1.890   7.812  19.840  0.00  0.00    +0.000 A 
ATOM      6  C   UNL     1       2.522   6.651  19.479  0.00  0.00    +0.000 A 
ATOM      7  C   UNL     1       3.096   6.891  18.206  0.00  0.00    +0.000 A 
ATOM      8  N   UNL     1       2.851   8.146  17.798  0.00  0.00    +0.000 NA
ATOM      9  N   UNL     1       2.111   8.712  18.796  0.00  0.00    +0.000 N 
ENDROOT
BRANCH   7  10
ATOM     10  C   UNL     1       3.869   5.940  17.402  0.00  0.00    +0.000 A 
ATOM     11  C   UNL     1       3.682   4.558  17.558  0.00  0.00    +0.000 A 
ATOM     12  C   UNL     1       4.446   3.645  16.824  0.00  0.00    +0.000 A 
ATOM     13  C   UNL     1       5.406   4.106  15.926  0.00  0.00    +0.000 A 
ATOM     14  C   UNL     1       5.594   5.476  15.752  0.00  0.00    +0.000 A 
ATOM     15  C   UNL     1       4.826   6.388  16.481  0.00  0.00    +0.000 A 
ENDBRANCH   7  10
BRANCH   1  16
ATOM     16  N   UNL     1       1.840  10.841  17.721  0.00  0.00    +0.000 N 
ATOM     17  H   UNL     1       1.901  10.329  16.835  0.00  0.00    +0.000 HD
ATOM     18  H   UNL     1       2.673  11.418  17.886  0.00  0.00    +0.000 HD
ENDBRANCH   1  16
BRANCH   2  19
ATOM     19  S   UNL     1       0.063  11.888  20.075  0.00  0.00    +0.000 S 
ATOM     20  O   UNL     1      -0.094  12.216  21.483  0.00  0.00    +0.000 OA
ATOM     21  O   UNL     1       0.695  12.851  19.190  0.00  0.00    +0.000 OA
BRANCH  19  22
ATOM     22  C   UNL     1      -1.576  11.612  19.419  0.00  0.00    +0.000 A 
ATOM     23  C   UNL     1      -2.647  12.384  19.886  0.00  0.00    +0.000 A 
ATOM     24  C   UNL     1      -3.913  12.221  19.318  0.00  0.00    +0.000 A 
ATOM     25  C   UNL     1      -4.099  11.301  18.285  0.00  0.00    +0.000 A 
ATOM     26 CL   UNL     1      -5.656  11.116  17.578  0.00  0.00    +0.000 Cl
ATOM     27  C   UNL     1      -3.029  10.541  17.813  0.00  0.00    +0.000 A 
ATOM     28  C   UNL     1      -1.760  10.698  18.376  0.00  0.00    +0.000 A 
ENDBRANCH  19  22
ENDBRANCH   2  19
TORSDOF 4
ENDMDL
MODEL 7
REMARK VINA RESULT:      -8.0      5.164      8.487
REMARK  Name = 
REMARK  4 active torsions:
REMARK  status: ('A' for Active; 'I' for Inactive)
REMARK    1  A    between atoms: N_1  and  C_2
REMARK    2  A    between atoms: C_3  and  S_4
REMARK    3  A    between atoms: S_4  and  C_7
REMARK    4  A    between atoms: C_18  and  C_19
REMARK                            x       y       z     vdW  Elec       q    Type
REMARK                         _______ _______ _______ _____ _____    ______ ____
ROOT
ATOM      1  C   UNL     1       1.029   9.315  20.028  0.00  0.00    +0.000 A 
ATOM      2  C   UNL     1       1.103  10.344  19.157  0.00  0.00    +0.000 A 
ATOM      3  C   UNL     1       1.828  10.107  17.886  0.00  0.00    +0.000 A 
ATOM      4  N   UNL     1       2.404   8.999  17.526  0.00  0.00    +0.000 NA
ATOM      5  C   UNL     1       2.334   7.979  18.427  0.00  0.00    +0.000 A 
ATOM      6  C   UNL     1       2.847   6.708  18.400  0.00  0.00    +0.000 A 
ATOM      7  C   UNL     1       2.480   6.105  19.628  0.00  0.00    +0.000 A 
ATOM      8  N   UNL     1       1.757   6.950  20.380  0.00  0.00    +0.000 NA
ATOM      9  N   UNL     1       1.668   8.099  19.648  0.00  0.00    +0.000 N 
ENDROOT
BRANCH   7  10
ATOM     10  C   UNL     1       2.808   4.746  20.068  0.00  0.00    +0.000 A 
ATOM     11  C   UNL     1       2.090   4.144  21.114  0.00  0.00    +0.000 A 
ATOM     12  C   UNL     1       2.425   2.864  21.566  0.00  0.00    +0.000 A 
ATOM     13  C   UNL     1       3.481   2.172  20.978  0.00  0.00    +0.000 A 
ATOM     14  C   UNL     1       4.195   2.753  19.930  0.00  0.00    +0.000 A 
ATOM     15  C   UNL     1       3.856   4.031  19.474  0.00  0.00    +0.000 A 
ENDBRANCH   7  10
BRANCH   1  16
ATOM     16  N   UNL     1       0.404   9.328  21.277  0.00  0.00    +0.000 N 
ATOM     17  H   UNL     1       0.986   8.959  22.035  0.00  0.00    +0.000 HD
ATOM     18  H   UNL     1      -0.510   8.861  21.236  0.00  0.00    +0.000 HD
ENDBRANCH   1  16
BRANCH   2  19
ATOM     19  S   UNL     1       0.429  11.888  19.476  0.00  0.00    +0.000 S 
ATOM     20  O   UNL     1       0.427  12.151  20.907  0.00  0.00    +0.000 OA
ATOM     21  O   UNL     1       1.014  12.867  18.577  0.00  0.00    +0.000 OA
BRANCH  19  22
ATOM     22  C   UNL     1      -1.277  11.711  18.977  0.00  0.00    +0.000 A 
ATOM     23  C   UNL     1      -1.608  10.827  17.943  0.00  0.00    +0.000 A 
ATOM     24  C   UNL     1      -2.950  10.632  17.606  0.00  0.00    +0.000 A 
ATOM     25  C   UNL     1      -3.949  11.308  18.306  0.00  0.00    +0.000 A 
ATOM     26 CL   UNL     1      -5.600  11.051  17.899  0.00  0.00    +0.000 Cl
ATOM     27  C   UNL     1      -3.619  12.180  19.344  0.00  0.00    +0.000 A 
ATOM     28  C   UNL     1      -2.279  12.381  19.688  0.00  0.00    +0.000 A 
ENDBRANCH  19  22
ENDBRANCH   2  19
TORSDOF 4
ENDMDL
MODEL 8
REMARK VINA RESULT:      -8.0      4.757      8.857
REMARK  Name = 
REMARK  4 active torsions:
REMARK  status: ('A' for Active; 'I' for Inactive)
REMARK    1  A    between atoms: N_1  and  C_2
REMARK    2  A    between atoms: C_3  and  S_4
REMARK    3  A    between atoms: S_4  and  C_7
REMARK    4  A    between atoms: C_18  and  C_19
REMARK                            x       y       z     vdW  Elec       q    Type
REMARK                         _______ _______ _______ _____ _____    ______ ____
ROOT
ATOM      1  C   UNL     1       1.670   9.868  18.963  0.00  0.00    +0.000 A 
ATOM      2  C   UNL     1       0.916  10.131  20.052  0.00  0.00    +0.000 A 
ATOM      3  C   UNL     1       0.749   9.040  21.041  0.00  0.00    +0.000 A 
ATOM      4  N   UNL     1       1.259   7.847  20.961  0.00  0.00    +0.000 NA
ATOM      5  C   UNL     1       2.001   7.597  19.845  0.00  0.00    +0.000 A 
ATOM      6  C   UNL     1       2.646   6.465  19.420  0.00  0.00    +0.000 A 
ATOM      7  C   UNL     1       3.230   6.785  18.170  0.00  0.00    +0.000 A 
ATOM      8  N   UNL     1       2.979   8.062  17.836  0.00  0.00    +0.000 NA
ATOM      9  N   UNL     1       2.225   8.560  18.860  0.00  0.00    +0.000 N 
ENDROOT
BRANCH   7  10
ATOM     10  C   UNL     1       4.018   5.892  17.317  0.00  0.00    +0.000 A 
ATOM     11  C   UNL     1       4.856   6.416  16.319  0.00  0.00    +0.000 A 
ATOM     12  C   UNL     1       5.579   5.567  15.475  0.00  0.00    +0.000 A 
ATOM     13  C   UNL     1       5.471   4.186  15.618  0.00  0.00    +0.000 A 
ATOM     14  C   UNL     1       4.652   3.652  16.612  0.00  0.00    +0.000 A 
ATOM     15  C   UNL     1       3.934   4.500  17.461  0.00  0.00    +0.000 A 
ENDBRANCH   7  10
BRANCH   1  16
ATOM     16  N   UNL     1       1.946  10.749  17.914  0.00  0.00    +0.000 N 
ATOM     17  H   UNL     1       1.116  11.030  17.381  0.00  0.00    +0.000 HD
ATOM     18  H   UNL     1       2.681  10.374  17.302  0.00  0.00    +0.000 HD
ENDBRANCH   1  16
BRANCH   2  19
ATOM     19  S   UNL     1       0.139  11.637  20.309  0.00  0.00    +0.000 S 
ATOM     20  O   UNL     1      -0.198  11.795  21.716  0.00  0.00    +0.000 OA
ATOM     21  O   UNL     1       0.881  12.688  19.636  0.00  0.00    +0.000 OA
BRANCH  19  22
ATOM     22  C   UNL     1      -1.402  11.470  19.421  0.00  0.00    +0.000 A 
ATOM     23  C   UNL     1      -1.568  10.413  18.516  0.00  0.00    +0.000 A 
ATOM     24  C   UNL     1      -2.800  10.238  17.880  0.00  0.00    +0.000 A 
ATOM     25  C   UNL     1      -3.856  11.107  18.157  0.00  0.00    +0.000 A 
ATOM     26 CL   UNL     1      -5.375  10.877  17.384  0.00  0.00    +0.000 Cl
ATOM     27  C   UNL     1      -3.693  12.152  19.067  0.00  0.00    +0.000 A 
ATOM     28  C   UNL     1      -2.464  12.334  19.708  0.00  0.00    +0.000 A 
ENDBRANCH  19  22
ENDBRANCH   2  19
TORSDOF 4
ENDMDL
MODEL 9
REMARK VINA RESULT:      -7.9      5.264      8.580
REMARK  Name = 
REMARK  4 active torsions:
REMARK  status: ('A' for Active; 'I' for Inactive)
REMARK    1  A    between atoms: N_1  and  C_2
REMARK    2  A    between atoms: C_3  and  S_4
REMARK    3  A    between atoms: S_4  and  C_7
REMARK    4  A    between atoms: C_18  and  C_19
REMARK                            x       y       z     vdW  Elec       q    Type
REMARK                         _______ _______ _______ _____ _____    ______ ____
ROOT
ATOM      1  C   UNL     1       0.937   9.649  20.082  0.00  0.00    +0.000 A 
ATOM      2  C   UNL     1       1.012  10.687  19.222  0.00  0.00    +0.000 A 
ATOM      3  C   UNL     1       1.735  10.461  17.948  0.00  0.00    +0.000 A 
ATOM      4  N   UNL     1       2.308   9.356  17.576  0.00  0.00    +0.000 NA
ATOM      5  C   UNL     1       2.237   8.327  18.467  0.00  0.00    +0.000 A 
ATOM      6  C   UNL     1       2.746   7.055  18.426  0.00  0.00    +0.000 A 
ATOM      7  C   UNL     1       2.379   6.440  19.649  0.00  0.00    +0.000 A 
ATOM      8  N   UNL     1       1.658   7.279  20.411  0.00  0.00    +0.000 NA
ATOM      9  N   UNL     1       1.572   8.435  19.690  0.00  0.00    +0.000 N 
ENDROOT
BRANCH   7  10
ATOM     10  C   UNL     1       2.703   5.076  20.075  0.00  0.00    +0.000 A 
ATOM     11  C   UNL     1       3.723   4.354  19.434  0.00  0.00    +0.000 A 
ATOM     12  C   UNL     1       4.010   3.037  19.808  0.00  0.00    +0.000 A 
ATOM     13  C   UNL     1       3.280   2.428  20.825  0.00  0.00    +0.000 A 
ATOM     14  C   UNL     1       2.272   3.137  21.478  0.00  0.00    +0.000 A 
ATOM     15  C   UNL     1       1.989   4.456  21.108  0.00  0.00    +0.000 A 
ENDBRANCH   7  10
BRANCH   1  16
ATOM     16  N   UNL     1       0.312   9.652  21.332  0.00  0.00    +0.000 N 
ATOM     17  H   UNL     1       0.963   9.742  22.120  0.00  0.00    +0.000 HD
ATOM     18  H   UNL     1      -0.303   8.836  21.438  0.00  0.00    +0.000 HD
ENDBRANCH   1  16
BRANCH   2  19
ATOM     19  S   UNL     1       0.343  12.229  19.557  0.00  0.00    +0.000 S 
ATOM     20  O   UNL     1       0.363  12.487  20.989  0.00  0.00    +0.000 OA
ATOM     21  O   UNL     1       0.913  13.212  18.653  0.00  0.00    +0.000 OA
BRANCH  19  22
ATOM     22  C   UNL     1      -1.371  12.054  19.085  0.00  0.00    +0.000 A 
ATOM     23  C   UNL     1      -1.695  11.419  17.879  0.00  0.00    +0.000 A 
ATOM     24  C   UNL     1      -3.037  11.214  17.547  0.00  0.00    +0.000 A 
ATOM     25  C   UNL     1      -4.041  11.630  18.421  0.00  0.00    +0.000 A 
ATOM     26 CL   UNL     1      -5.691  11.359  18.015  0.00  0.00    +0.000 Cl
ATOM     27  C   UNL     1      -3.717  12.251  19.627  0.00  0.00    +0.000 A 
ATOM     28  C   UNL     1      -2.378  12.461  19.967  0.00  0.00    +0.000 A 
ENDBRANCH  19  22
ENDBRANCH   2  19
TORSDOF 4
ENDMDL
