MODEL 1
REMARK VINA RESULT:      -6.8      0.000      0.000
REMARK  Name = 
REMARK  10 active torsions:
REMARK  status: ('A' for Active; 'I' for Inactive)
REMARK    1  A    between atoms: C_1  and  C_2
REMARK    2  A    between atoms: C_2  and  C_3
REMARK    3  A    between atoms: C_3  and  C_4
REMARK    4  A    between atoms: C_4  and  C_5
REMARK    5  A    between atoms: C_6  and  C_7
REMARK    6  A    between atoms: C_8  and  C_9
REMARK    7  A    between atoms: C_10  and  C_11
REMARK    8  A    between atoms: C_14  and  O_15
REMARK    9  A    between atoms: C_16  and  C_17
REMARK   10  A    between atoms: N_18  and  C_19
REMARK                            x       y       z     vdW  Elec       q    Type
REMARK                         _______ _______ _______ _____ _____    ______ ____
ROOT
ATOM      1  C   UNL     1       4.515   4.028  18.985  0.00  0.00    +0.000 C 
ATOM      2  C   UNL     1       4.340   3.408  17.591  0.00  0.00    +0.000 C 
ATOM      3  C   UNL     1       3.346   2.259  17.592  0.00  0.00    +0.000 C 
ATOM      4  C   UNL     1       2.001   2.702  18.146  0.00  0.00    +0.000 C 
ATOM      5  C   UNL     1       2.147   3.288  19.560  0.00  0.00    +0.000 C 
ATOM      6  C   UNL     1       0.772   3.651  20.136  0.00  0.00    +0.000 C 
ATOM      7  N   UNL     1       3.192   4.422  19.686  0.00  0.00    +0.000 N 
ATOM      8  C   UNL     1       2.673   5.744  19.192  0.00  0.00    +0.000 C 
ATOM      9  O   UNL     1       3.461   4.575  21.047  0.00  0.00    +0.000 OA
ENDROOT
BRANCH   1  11
ATOM     10  C   UNL     1       6.449   5.195  17.877  0.00  0.00    +0.000 C 
ATOM     11  C   UNL     1       5.557   5.133  18.873  0.00  0.00    +0.000 C 
BRANCH  10  13
ATOM     12  C   UNL     1       7.073   7.538  17.693  0.00  0.00    +0.000 C 
ATOM     13  C   UNL     1       7.435   6.248  17.738  0.00  0.00    +0.000 C 
BRANCH  12  15
ATOM     14  C   UNL     1       8.558   9.241  18.613  0.00  0.00    +0.000 C 
ATOM     15  C   UNL     1       8.004   8.631  17.552  0.00  0.00    +0.000 C 
BRANCH  14  16
ATOM     16  C   UNL     1       9.523  10.387  18.505  0.00  0.00    +0.000 C 
BRANCH  16  17
ATOM     17  C   UNL     1       9.844  10.979  19.878  0.00  0.00    +0.000 C 
BRANCH  17  19
ATOM     18  C   UNL     1      12.195  11.894  19.842  0.00  0.00    +0.000 C 
ATOM     19  C   UNL     1      10.714  12.228  19.745  0.00  0.00    +0.000 C 
ENDBRANCH  17  19
ENDBRANCH  16  17
ENDBRANCH  14  16
ENDBRANCH  12  15
ENDBRANCH  10  13
ENDBRANCH   1  11
BRANCH   4  20
ATOM     20  O   UNL     1       1.331   3.595  17.258  0.00  0.00    +0.000 OA
ATOM     21  H   UNL     1       1.503   4.516  17.509  0.00  0.00    +0.000 HD
ENDBRANCH   4  20
TORSDOF 7
ENDMDL
MODEL 2
REMARK VINA RESULT:      -6.8      1.781      2.733
REMARK  Name = 
REMARK  10 active torsions:
REMARK  status: ('A' for Active; 'I' for Inactive)
REMARK    1  A    between atoms: C_1  and  C_2
REMARK    2  A    between atoms: C_2  and  C_3
REMARK    3  A    between atoms: C_3  and  C_4
REMARK    4  A    between atoms: C_4  and  C_5
REMARK    5  A    between atoms: C_6  and  C_7
REMARK    6  A    between atoms: C_8  and  C_9
REMARK    7  A    between atoms: C_10  and  C_11
REMARK    8  A    between atoms: C_14  and  O_15
REMARK    9  A    between atoms: C_16  and  C_17
REMARK   10  A    between atoms: N_18  and  C_19
REMARK                            x       y       z     vdW  Elec       q    Type
REMARK                         _______ _______ _______ _____ _____    ______ ____
ROOT
ATOM      1  C   UNL     1       6.195   5.608  17.434  0.00  0.00    +0.000 C 
ATOM      2  C   UNL     1       5.457   5.279  16.128  0.00  0.00    +0.000 C 
ATOM      3  C   UNL     1       5.047   3.817  16.051  0.00  0.00    +0.000 C 
ATOM      4  C   UNL     1       4.200   3.425  17.250  0.00  0.00    +0.000 C 
ATOM      5  C   UNL     1       4.938   3.707  18.569  0.00  0.00    +0.000 C 
ATOM      6  C   UNL     1       4.103   3.227  19.764  0.00  0.00    +0.000 C 
ATOM      7  N   UNL     1       5.463   5.154  18.720  0.00  0.00    +0.000 N 
ATOM      8  C   UNL     1       4.384   6.123  19.117  0.00  0.00    +0.000 C 
ATOM      9  O   UNL     1       6.397   5.139  19.758  0.00  0.00    +0.000 OA
ENDROOT
BRANCH   1  11
ATOM     10  C   UNL     1       7.722   7.546  17.927  0.00  0.00    +0.000 C 
ATOM     11  C   UNL     1       6.592   7.077  17.383  0.00  0.00    +0.000 C 
BRANCH  10  13
ATOM     12  C   UNL     1       8.949   9.454  18.799  0.00  0.00    +0.000 C 
ATOM     13  C   UNL     1       8.131   8.934  17.873  0.00  0.00    +0.000 C 
BRANCH  12  15
ATOM     14  C   UNL     1       8.838  11.759  18.005  0.00  0.00    +0.000 C 
ATOM     15  C   UNL     1       9.389  10.829  18.803  0.00  0.00    +0.000 C 
BRANCH  14  16
ATOM     16  C   UNL     1       9.276  13.195  17.973  0.00  0.00    +0.000 C 
BRANCH  16  17
ATOM     17  C   UNL     1      10.726  13.328  17.506  0.00  0.00    +0.000 C 
BRANCH  17  19
ATOM     18  C   UNL     1      10.861  14.339  19.813  0.00  0.00    +0.000 C 
ATOM     19  C   UNL     1      11.641  13.716  18.666  0.00  0.00    +0.000 C 
ENDBRANCH  17  19
ENDBRANCH  16  17
ENDBRANCH  14  16
ENDBRANCH  12  15
ENDBRANCH  10  13
ENDBRANCH   1  11
BRANCH   4  20
ATOM     20  O   UNL     1       2.911   4.036  17.211  0.00  0.00    +0.000 OA
ATOM     21  H   UNL     1       2.949   4.880  16.736  0.00  0.00    +0.000 HD
ENDBRANCH   4  20
TORSDOF 7
ENDMDL
MODEL 3
REMARK VINA RESULT:      -6.6      1.559      2.250
REMARK  Name = 
REMARK  10 active torsions:
REMARK  status: ('A' for Active; 'I' for Inactive)
REMARK    1  A    between atoms: C_1  and  C_2
REMARK    2  A    between atoms: C_2  and  C_3
REMARK    3  A    between atoms: C_3  and  C_4
REMARK    4  A    between atoms: C_4  and  C_5
REMARK    5  A    between atoms: C_6  and  C_7
REMARK    6  A    between atoms: C_8  and  C_9
REMARK    7  A    between atoms: C_10  and  C_11
REMARK    8  A    between atoms: C_14  and  O_15
REMARK    9  A    between atoms: C_16  and  C_17
REMARK   10  A    between atoms: N_18  and  C_19
REMARK                            x       y       z     vdW  Elec       q    Type
REMARK                         _______ _______ _______ _____ _____    ______ ____
ROOT
ATOM      1  C   UNL     1       3.770   5.184  17.448  0.00  0.00    +0.000 C 
ATOM      2  C   UNL     1       2.383   5.549  17.998  0.00  0.00    +0.000 C 
ATOM      3  C   UNL     1       1.346   4.480  17.699  0.00  0.00    +0.000 C 
ATOM      4  C   UNL     1       1.787   3.126  18.232  0.00  0.00    +0.000 C 
ATOM      5  C   UNL     1       3.155   2.721  17.659  0.00  0.00    +0.000 C 
ATOM      6  C   UNL     1       3.546   1.318  18.141  0.00  0.00    +0.000 C 
ATOM      7  N   UNL     1       4.272   3.775  17.847  0.00  0.00    +0.000 N 
ATOM      8  C   UNL     1       4.851   3.764  19.235  0.00  0.00    +0.000 C 
ATOM      9  O   UNL     1       5.306   3.429  16.974  0.00  0.00    +0.000 OA
ENDROOT
BRANCH   1  11
ATOM     10  C   UNL     1       5.847   6.558  17.091  0.00  0.00    +0.000 C 
ATOM     11  C   UNL     1       4.713   6.336  17.766  0.00  0.00    +0.000 C 
BRANCH  10  13
ATOM     12  C   UNL     1       7.816   7.505  18.157  0.00  0.00    +0.000 C 
ATOM     13  C   UNL     1       6.748   7.660  17.362  0.00  0.00    +0.000 C 
BRANCH  12  15
ATOM     14  C   UNL     1       8.512   9.843  18.137  0.00  0.00    +0.000 C 
ATOM     15  C   UNL     1       8.747   8.563  18.470  0.00  0.00    +0.000 C 
BRANCH  14  16
ATOM     16  C   UNL     1       9.462  10.968  18.435  0.00  0.00    +0.000 C 
BRANCH  16  17
ATOM     17  C   UNL     1       9.558  11.236  19.938  0.00  0.00    +0.000 C 
BRANCH  17  19
ATOM     18  C   UNL     1      11.019  13.285  20.116  0.00  0.00    +0.000 C 
ATOM     19  C   UNL     1      10.938  11.779  20.309  0.00  0.00    +0.000 C 
ENDBRANCH  17  19
ENDBRANCH  16  17
ENDBRANCH  14  16
ENDBRANCH  12  15
ENDBRANCH  10  13
ENDBRANCH   1  11
BRANCH   4  20
ATOM     20  O   UNL     1       1.765   3.086  19.658  0.00  0.00    +0.000 OA
ATOM     21  H   UNL     1       2.533   2.600  19.996  0.00  0.00    +0.000 HD
ENDBRANCH   4  20
TORSDOF 7
ENDMDL
MODEL 4
REMARK VINA RESULT:      -6.6      4.481      7.566
REMARK  Name = 
REMARK  10 active torsions:
REMARK  status: ('A' for Active; 'I' for Inactive)
REMARK    1  A    between atoms: C_1  and  C_2
REMARK    2  A    between atoms: C_2  and  C_3
REMARK    3  A    between atoms: C_3  and  C_4
REMARK    4  A    between atoms: C_4  and  C_5
REMARK    5  A    between atoms: C_6  and  C_7
REMARK    6  A    between atoms: C_8  and  C_9
REMARK    7  A    between atoms: C_10  and  C_11
REMARK    8  A    between atoms: C_14  and  O_15
REMARK    9  A    between atoms: C_16  and  C_17
REMARK   10  A    between atoms: N_18  and  C_19
REMARK                            x       y       z     vdW  Elec       q    Type
REMARK                         _______ _______ _______ _____ _____    ______ ____
ROOT
ATOM      1  C   UNL     1       3.215   5.791  19.256  0.00  0.00    +0.000 C 
ATOM      2  C   UNL     1       4.541   5.967  18.500  0.00  0.00    +0.000 C 
ATOM      3  C   UNL     1       5.525   4.847  18.796  0.00  0.00    +0.000 C 
ATOM      4  C   UNL     1       4.915   3.490  18.487  0.00  0.00    +0.000 C 
ATOM      5  C   UNL     1       3.608   3.275  19.267  0.00  0.00    +0.000 C 
ATOM      6  C   UNL     1       3.052   1.869  19.008  0.00  0.00    +0.000 C 
ATOM      7  N   UNL     1       2.559   4.399  19.093  0.00  0.00    +0.000 N 
ATOM      8  C   UNL     1       1.803   4.289  17.797  0.00  0.00    +0.000 C 
ATOM      9  O   UNL     1       1.627   4.245  20.120  0.00  0.00    +0.000 OA
ENDROOT
BRANCH   1  11
ATOM     10  C   UNL     1       2.726   7.987  18.128  0.00  0.00    +0.000 C 
ATOM     11  C   UNL     1       2.329   6.983  18.919  0.00  0.00    +0.000 C 
BRANCH  10  13
ATOM     12  C   UNL     1       0.956   9.580  18.617  0.00  0.00    +0.000 C 
ATOM     13  C   UNL     1       1.894   9.119  17.776  0.00  0.00    +0.000 C 
BRANCH  12  15
ATOM     14  C   UNL     1      -1.205  10.539  18.015  0.00  0.00    +0.000 C 
ATOM     15  C   UNL     1       0.093  10.699  18.324  0.00  0.00    +0.000 C 
BRANCH  14  16
ATOM     16  C   UNL     1      -2.130  11.678  17.694  0.00  0.00    +0.000 C 
BRANCH  16  17
ATOM     17  C   UNL     1      -3.441  11.178  17.085  0.00  0.00    +0.000 C 
BRANCH  17  19
ATOM     18  C   UNL     1      -3.067  10.172  14.801  0.00  0.00    +0.000 C 
ATOM     19  C   UNL     1      -3.218   9.893  16.288  0.00  0.00    +0.000 C 
ENDBRANCH  17  19
ENDBRANCH  16  17
ENDBRANCH  14  16
ENDBRANCH  12  15
ENDBRANCH  10  13
ENDBRANCH   1  11
BRANCH   4  20
ATOM     20  O   UNL     1       4.745   3.292  17.084  0.00  0.00    +0.000 OA
ATOM     21  H   UNL     1       5.538   3.576  16.602  0.00  0.00    +0.000 HD
ENDBRANCH   4  20
TORSDOF 7
ENDMDL
MODEL 5
REMARK VINA RESULT:      -6.6      1.981      2.986
REMARK  Name = 
REMARK  10 active torsions:
REMARK  status: ('A' for Active; 'I' for Inactive)
REMARK    1  A    between atoms: C_1  and  C_2
REMARK    2  A    between atoms: C_2  and  C_3
REMARK    3  A    between atoms: C_3  and  C_4
REMARK    4  A    between atoms: C_4  and  C_5
REMARK    5  A    between atoms: C_6  and  C_7
REMARK    6  A    between atoms: C_8  and  C_9
REMARK    7  A    between atoms: C_10  and  C_11
REMARK    8  A    between atoms: C_14  and  O_15
REMARK    9  A    between atoms: C_16  and  C_17
REMARK   10  A    between atoms: N_18  and  C_19
REMARK                            x       y       z     vdW  Elec       q    Type
REMARK                         _______ _______ _______ _____ _____    ______ ____
ROOT
ATOM      1  C   UNL     1       6.048   5.670  17.482  0.00  0.00    +0.000 C 
ATOM      2  C   UNL     1       5.234   5.461  16.197  0.00  0.00    +0.000 C 
ATOM      3  C   UNL     1       4.818   4.012  16.009  0.00  0.00    +0.000 C 
ATOM      4  C   UNL     1       4.042   3.507  17.214  0.00  0.00    +0.000 C 
ATOM      5  C   UNL     1       4.856   3.668  18.509  0.00  0.00    +0.000 C 
ATOM      6  C   UNL     1       4.093   3.077  19.701  0.00  0.00    +0.000 C 
ATOM      7  N   UNL     1       5.392   5.096  18.762  0.00  0.00    +0.000 N 
ATOM      8  C   UNL     1       4.340   6.021  19.309  0.00  0.00    +0.000 C 
ATOM      9  O   UNL     1       6.385   4.989  19.737  0.00  0.00    +0.000 OA
ENDROOT
BRANCH   1  11
ATOM     10  C   UNL     1       7.706   7.547  17.732  0.00  0.00    +0.000 C 
ATOM     11  C   UNL     1       6.445   7.139  17.545  0.00  0.00    +0.000 C 
BRANCH  10  13
ATOM     12  C   UNL     1       8.830   9.421  18.795  0.00  0.00    +0.000 C 
ATOM     13  C   UNL     1       8.110   8.937  17.774  0.00  0.00    +0.000 C 
BRANCH  12  15
ATOM     14  C   UNL     1       9.942  11.407  17.915  0.00  0.00    +0.000 C 
ATOM     15  C   UNL     1       9.259  10.796  18.898  0.00  0.00    +0.000 C 
BRANCH  14  16
ATOM     16  C   UNL     1      10.414  12.831  17.990  0.00  0.00    +0.000 C 
BRANCH  16  17
ATOM     17  C   UNL     1       9.404  13.717  18.720  0.00  0.00    +0.000 C 
BRANCH  17  19
ATOM     18  C   UNL     1       7.938  15.745  18.403  0.00  0.00    +0.000 C 
ATOM     19  C   UNL     1       9.233  15.056  18.004  0.00  0.00    +0.000 C 
ENDBRANCH  17  19
ENDBRANCH  16  17
ENDBRANCH  14  16
ENDBRANCH  12  15
ENDBRANCH  10  13
ENDBRANCH   1  11
BRANCH   4  20
ATOM     20  O   UNL     1       2.754   4.114  17.308  0.00  0.00    +0.000 OA
ATOM     21  H   UNL     1       2.067   3.505  16.996  0.00  0.00    +0.000 HD
ENDBRANCH   4  20
TORSDOF 7
ENDMDL
MODEL 6
REMARK VINA RESULT:      -6.6      1.053      1.085
REMARK  Name = 
REMARK  10 active torsions:
REMARK  status: ('A' for Active; 'I' for Inactive)
REMARK    1  A    between atoms: C_1  and  C_2
REMARK    2  A    between atoms: C_2  and  C_3
REMARK    3  A    between atoms: C_3  and  C_4
REMARK    4  A    between atoms: C_4  and  C_5
REMARK    5  A    between atoms: C_6  and  C_7
REMARK    6  A    between atoms: C_8  and  C_9
REMARK    7  A    between atoms: C_10  and  C_11
REMARK    8  A    between atoms: C_14  and  O_15
REMARK    9  A    between atoms: C_16  and  C_17
REMARK   10  A    between atoms: N_18  and  C_19
REMARK                            x       y       z     vdW  Elec       q    Type
REMARK                         _______ _______ _______ _____ _____    ______ ____
ROOT
ATOM      1  C   UNL     1       4.268   4.043  18.672  0.00  0.00    +0.000 C 
ATOM      2  C   UNL     1       4.291   2.944  17.598  0.00  0.00    +0.000 C 
ATOM      3  C   UNL     1       3.740   1.625  18.113  0.00  0.00    +0.000 C 
ATOM      4  C   UNL     1       2.334   1.798  18.663  0.00  0.00    +0.000 C 
ATOM      5  C   UNL     1       2.296   2.864  19.771  0.00  0.00    +0.000 C 
ATOM      6  C   UNL     1       0.888   2.966  20.371  0.00  0.00    +0.000 C 
ATOM      7  N   UNL     1       2.901   4.231  19.373  0.00  0.00    +0.000 N 
ATOM      8  C   UNL     1       1.961   5.061  18.543  0.00  0.00    +0.000 C 
ATOM      9  O   UNL     1       3.125   4.935  20.558  0.00  0.00    +0.000 OA
ENDROOT
BRANCH   1  11
ATOM     10  C   UNL     1       6.190   5.557  18.085  0.00  0.00    +0.000 C 
ATOM     11  C   UNL     1       4.877   5.299  18.062  0.00  0.00    +0.000 C 
BRANCH  10  13
ATOM     12  C   UNL     1       7.586   7.543  18.210  0.00  0.00    +0.000 C 
ATOM     13  C   UNL     1       6.794   6.733  17.493  0.00  0.00    +0.000 C 
BRANCH  12  15
ATOM     14  C   UNL     1       8.736   9.678  18.476  0.00  0.00    +0.000 C 
ATOM     15  C   UNL     1       8.212   8.731  17.680  0.00  0.00    +0.000 C 
BRANCH  14  16
ATOM     16  C   UNL     1       9.385  10.932  17.962  0.00  0.00    +0.000 C 
BRANCH  16  17
ATOM     17  C   UNL     1      10.493  11.413  18.900  0.00  0.00    +0.000 C 
BRANCH  17  19
ATOM     18  C   UNL     1      11.693  13.279  17.699  0.00  0.00    +0.000 C 
ATOM     19  C   UNL     1      11.739  11.816  18.112  0.00  0.00    +0.000 C 
ENDBRANCH  17  19
ENDBRANCH  16  17
ENDBRANCH  14  16
ENDBRANCH  12  15
ENDBRANCH  10  13
ENDBRANCH   1  11
BRANCH   4  20
ATOM     20  O   UNL     1       1.389   2.062  17.628  0.00  0.00    +0.000 OA
ATOM     21  H   UNL     1       0.528   1.673  17.845  0.00  0.00    +0.000 HD
ENDBRANCH   4  20
TORSDOF 7
ENDMDL
MODEL 7
REMARK VINA RESULT:      -6.6      1.715      2.447
REMARK  Name = 
REMARK  10 active torsions:
REMARK  status: ('A' for Active; 'I' for Inactive)
REMARK    1  A    between atoms: C_1  and  C_2
REMARK    2  A    between atoms: C_2  and  C_3
REMARK    3  A    between atoms: C_3  and  C_4
REMARK    4  A    between atoms: C_4  and  C_5
REMARK    5  A    between atoms: C_6  and  C_7
REMARK    6  A    between atoms: C_8  and  C_9
REMARK    7  A    between atoms: C_10  and  C_11
REMARK    8  A    between atoms: C_14  and  O_15
REMARK    9  A    between atoms: C_16  and  C_17
REMARK   10  A    between atoms: N_18  and  C_19
REMARK                            x       y       z     vdW  Elec       q    Type
REMARK                         _______ _______ _______ _____ _____    ______ ____
ROOT
ATOM      1  C   UNL     1       4.256   5.542  17.514  0.00  0.00    +0.000 C 
ATOM      2  C   UNL     1       2.969   6.091  18.147  0.00  0.00    +0.000 C 
ATOM      3  C   UNL     1       1.766   5.205  17.865  0.00  0.00    +0.000 C 
ATOM      4  C   UNL     1       2.018   3.780  18.329  0.00  0.00    +0.000 C 
ATOM      5  C   UNL     1       3.281   3.195  17.674  0.00  0.00    +0.000 C 
ATOM      6  C   UNL     1       3.472   1.731  18.088  0.00  0.00    +0.000 C 
ATOM      7  N   UNL     1       4.554   4.058  17.840  0.00  0.00    +0.000 N 
ATOM      8  C   UNL     1       5.186   3.903  19.196  0.00  0.00    +0.000 C 
ATOM      9  O   UNL     1       5.482   3.596  16.905  0.00  0.00    +0.000 OA
ENDROOT
BRANCH   1  11
ATOM     10  C   UNL     1       6.588   6.452  17.254  0.00  0.00    +0.000 C 
ATOM     11  C   UNL     1       5.379   6.524  17.823  0.00  0.00    +0.000 C 
BRANCH  10  13
ATOM     12  C   UNL     1       7.434   8.706  17.592  0.00  0.00    +0.000 C 
ATOM     13  C   UNL     1       7.663   7.387  17.516  0.00  0.00    +0.000 C 
BRANCH  12  15
ATOM     14  C   UNL     1       8.988   9.872  19.066  0.00  0.00    +0.000 C 
ATOM     15  C   UNL     1       8.461   9.688  17.845  0.00  0.00    +0.000 C 
BRANCH  14  16
ATOM     16  C   UNL     1      10.050  10.891  19.370  0.00  0.00    +0.000 C 
BRANCH  16  17
ATOM     17  C   UNL     1      10.636  11.486  18.089  0.00  0.00    +0.000 C 
BRANCH  17  19
ATOM     18  C   UNL     1      11.194  13.928  17.789  0.00  0.00    +0.000 C 
ATOM     19  C   UNL     1      10.085  12.889  17.837  0.00  0.00    +0.000 C 
ENDBRANCH  17  19
ENDBRANCH  16  17
ENDBRANCH  14  16
ENDBRANCH  12  15
ENDBRANCH  10  13
ENDBRANCH   1  11
BRANCH   4  20
ATOM     20  O   UNL     1       2.055   3.684  19.752  0.00  0.00    +0.000 OA
ATOM     21  H   UNL     1       2.651   2.972  20.030  0.00  0.00    +0.000 HD
ENDBRANCH   4  20
TORSDOF 7
ENDMDL
MODEL 8
REMARK VINA RESULT:      -6.5      4.807      8.027
REMARK  Name = 
REMARK  10 active torsions:
REMARK  status: ('A' for Active; 'I' for Inactive)
REMARK    1  A    between atoms: C_1  and  C_2
REMARK    2  A    between atoms: C_2  and  C_3
REMARK    3  A    between atoms: C_3  and  C_4
REMARK    4  A    between atoms: C_4  and  C_5
REMARK    5  A    between atoms: C_6  and  C_7
REMARK    6  A    between atoms: C_8  and  C_9
REMARK    7  A    between atoms: C_10  and  C_11
REMARK    8  A    between atoms: C_14  and  O_15
REMARK    9  A    between atoms: C_16  and  C_17
REMARK   10  A    between atoms: N_18  and  C_19
REMARK                            x       y       z     vdW  Elec       q    Type
REMARK                         _______ _______ _______ _____ _____    ______ ____
ROOT
ATOM      1  C   UNL     1       3.912   6.702  18.007  0.00  0.00    +0.000 C 
ATOM      2  C   UNL     1       4.856   6.579  16.802  0.00  0.00    +0.000 C 
ATOM      3  C   UNL     1       6.100   5.768  17.126  0.00  0.00    +0.000 C 
ATOM      4  C   UNL     1       5.732   4.391  17.652  0.00  0.00    +0.000 C 
ATOM      5  C   UNL     1       4.820   4.492  18.887  0.00  0.00    +0.000 C 
ATOM      6  C   UNL     1       4.528   3.097  19.454  0.00  0.00    +0.000 C 
ATOM      7  N   UNL     1       3.555   5.358  18.687  0.00  0.00    +0.000 N 
ATOM      8  C   UNL     1       2.467   4.632  17.944  0.00  0.00    +0.000 C 
ATOM      9  O   UNL     1       3.055   5.645  19.958  0.00  0.00    +0.000 OA
ENDROOT
BRANCH   1  11
ATOM     10  C   UNL     1       2.143   8.448  18.397  0.00  0.00    +0.000 C 
ATOM     11  C   UNL     1       2.730   7.563  17.583  0.00  0.00    +0.000 C 
BRANCH  10  13
ATOM     12  C   UNL     1       0.411  10.078  18.901  0.00  0.00    +0.000 C 
ATOM     13  C   UNL     1       1.032   9.293  18.009  0.00  0.00    +0.000 C 
BRANCH  12  15
ATOM     14  C   UNL     1      -1.680  10.557  17.739  0.00  0.00    +0.000 C 
ATOM     15  C   UNL     1      -0.702  10.938  18.579  0.00  0.00    +0.000 C 
BRANCH  14  16
ATOM     16  C   UNL     1      -2.848  11.427  17.372  0.00  0.00    +0.000 C 
BRANCH  16  17
ATOM     17  C   UNL     1      -3.751  10.746  16.342  0.00  0.00    +0.000 C 
BRANCH  17  19
ATOM     18  C   UNL     1      -3.520  10.025  13.936  0.00  0.00    +0.000 C 
ATOM     19  C   UNL     1      -2.925   9.949  15.333  0.00  0.00    +0.000 C 
ENDBRANCH  17  19
ENDBRANCH  16  17
ENDBRANCH  14  16
ENDBRANCH  12  15
ENDBRANCH  10  13
ENDBRANCH   1  11
BRANCH   4  20
ATOM     20  O   UNL     1       5.169   3.566  16.632  0.00  0.00    +0.000 OA
ATOM     21  H   UNL     1       4.445   4.028  16.184  0.00  0.00    +0.000 HD
ENDBRANCH   4  20
TORSDOF 7
ENDMDL
MODEL 9
REMARK VINA RESULT:      -6.5      1.024      1.095
REMARK  Name = 
REMARK  10 active torsions:
REMARK  status: ('A' for Active; 'I' for Inactive)
REMARK    1  A    between atoms: C_1  and  C_2
REMARK    2  A    between atoms: C_2  and  C_3
REMARK    3  A    between atoms: C_3  and  C_4
REMARK    4  A    between atoms: C_4  and  C_5
REMARK    5  A    between atoms: C_6  and  C_7
REMARK    6  A    between atoms: C_8  and  C_9
REMARK    7  A    between atoms: C_10  and  C_11
REMARK    8  A    between atoms: C_14  and  O_15
REMARK    9  A    between atoms: C_16  and  C_17
REMARK   10  A    between atoms: N_18  and  C_19
REMARK                            x       y       z     vdW  Elec       q    Type
REMARK                         _______ _______ _______ _____ _____    ______ ____
ROOT
ATOM      1  C   UNL     1       4.512   4.036  18.666  0.00  0.00    +0.000 C 
ATOM      2  C   UNL     1       3.973   4.070  17.229  0.00  0.00    +0.000 C 
ATOM      3  C   UNL     1       3.090   2.874  16.916  0.00  0.00    +0.000 C 
ATOM      4  C   UNL     1       1.943   2.769  17.908  0.00  0.00    +0.000 C 
ATOM      5  C   UNL     1       2.462   2.690  19.353  0.00  0.00    +0.000 C 
ATOM      6  C   UNL     1       1.296   2.500  20.333  0.00  0.00    +0.000 C 
ATOM      7  N   UNL     1       3.431   3.826  19.755  0.00  0.00    +0.000 N 
ATOM      8  C   UNL     1       2.717   5.109  20.082  0.00  0.00    +0.000 C 
ATOM      9  O   UNL     1       4.077   3.414  20.921  0.00  0.00    +0.000 OA
ENDROOT
BRANCH   1  11
ATOM     10  C   UNL     1       6.563   5.413  18.192  0.00  0.00    +0.000 C 
ATOM     11  C   UNL     1       5.411   5.251  18.853  0.00  0.00    +0.000 C 
BRANCH  10  13
ATOM     12  C   UNL     1       7.325   7.618  17.507  0.00  0.00    +0.000 C 
ATOM     13  C   UNL     1       7.424   6.570  18.337  0.00  0.00    +0.000 C 
BRANCH  12  15
ATOM     14  C   UNL     1       8.699   9.201  18.755  0.00  0.00    +0.000 C 
ATOM     15  C   UNL     1       8.155   8.795  17.596  0.00  0.00    +0.000 C 
BRANCH  14  16
ATOM     16  C   UNL     1       9.558  10.426  18.889  0.00  0.00    +0.000 C 
BRANCH  16  17
ATOM     17  C   UNL     1       9.014  11.584  18.051  0.00  0.00    +0.000 C 
BRANCH  17  19
ATOM     18  C   UNL     1      11.251  12.538  17.379  0.00  0.00    +0.000 C 
ATOM     19  C   UNL     1       9.947  12.793  18.119  0.00  0.00    +0.000 C 
ENDBRANCH  17  19
ENDBRANCH  16  17
ENDBRANCH  14  16
ENDBRANCH  12  15
ENDBRANCH  10  13
ENDBRANCH   1  11
BRANCH   4  20
ATOM     20  O   UNL     1       0.993   3.819  17.732  0.00  0.00    +0.000 OA
ATOM     21  H   UNL     1       0.997   4.131  16.814  0.00  0.00    +0.000 HD
ENDBRANCH   4  20
TORSDOF 7
ENDMDL
