MODEL 1
REMARK VINA RESULT:      -8.1      0.000      0.000
REMARK  Name = 
REMARK  6 active torsions:
REMARK  status: ('A' for Active; 'I' for Inactive)
REMARK    1  A    between atoms: C_1  and  C_2
REMARK    2  A    between atoms: C_8  and  C_10
REMARK    3  A    between atoms: C_10  and  C_11
REMARK    4  A    between atoms: C_11  and  C_12
REMARK    5  A    between atoms: C_12  and  N_13
REMARK    6  A    between atoms: C_14  and  C_16
REMARK                            x       y       z     vdW  Elec       q    Type
REMARK                         _______ _______ _______ _____ _____    ______ ____
ROOT
ATOM      1  C   UNL     1       7.759   7.761  17.591  0.00  0.00    +0.000 C 
ENDROOT
BRANCH   1   2
ATOM      2  C   UNL     1       7.646   6.302  18.048  0.00  0.00    +0.000 C 
BRANCH   2  10
ATOM      3  C   UNL     1       1.283   4.157  19.891  0.00  0.00    +0.000 C 
ATOM      4  C   UNL     1       1.963   3.446  18.748  0.00  0.00    +0.000 C 
ATOM      5  O   UNL     1       1.326   2.673  18.036  0.00  0.00    +0.000 OA
ATOM      6  N   UNL     1       3.293   3.754  18.516  0.00  0.00    +0.000 N 
ATOM      7  C   UNL     1       3.966   3.233  17.319  0.00  0.00    +0.000 C 
ATOM      8  C   UNL     1       4.664   4.368  16.545  0.00  0.00    +0.000 C 
ATOM      9  N   UNL     1       5.511   5.187  17.432  0.00  0.00    +0.000 N 
ATOM     10  C   UNL     1       6.826   5.450  17.083  0.00  0.00    +0.000 C 
ATOM     11  O   UNL     1       7.328   5.009  16.049  0.00  0.00    +0.000 OA
ATOM     12  C   UNL     1       4.820   5.696  18.623  0.00  0.00    +0.000 C 
ATOM     13  C   UNL     1       4.154   4.549  19.397  0.00  0.00    +0.000 C 
ENDBRANCH   2  10
ENDBRANCH   1   2
BRANCH   1  14
ATOM     14  C   UNL     1       8.430   8.634  18.648  0.00  0.00    +0.000 C 
BRANCH  14  15
ATOM     15  N   UNL     1       8.757   9.959  18.150  0.00  0.00    +0.000 N 
ATOM     16  C   UNL     1       9.409  10.864  18.969  0.00  0.00    +0.000 C 
ATOM     17  O   UNL     1       9.716  10.613  20.129  0.00  0.00    +0.000 OA
ATOM     18  H   UNL     1       8.729  10.123  17.152  0.00  0.00    +0.000 HD
BRANCH  16  19
ATOM     19  C   UNL     1       9.765  12.182  18.375  0.00  0.00    +0.000 A 
ATOM     20  C   UNL     1       8.977  13.326  18.559  0.00  0.00    +0.000 A 
ATOM     21  C   UNL     1       9.377  14.553  18.018  0.00  0.00    +0.000 A 
ATOM     22  C   UNL     1      10.564  14.640  17.290  0.00  0.00    +0.000 A 
ATOM     23 CL   UNL     1      11.054  16.151  16.630  0.00  0.00    +0.000 Cl
ATOM     24  C   UNL     1      11.361  13.511  17.104  0.00  0.00    +0.000 A 
ATOM     25  C   UNL     1      10.966  12.286  17.650  0.00  0.00    +0.000 A 
ENDBRANCH  16  19
ENDBRANCH  14  15
ENDBRANCH   1  14
TORSDOF 5
ENDMDL
MODEL 2
REMARK VINA RESULT:      -8.1      5.175      7.851
REMARK  Name = 
REMARK  6 active torsions:
REMARK  status: ('A' for Active; 'I' for Inactive)
REMARK    1  A    between atoms: C_1  and  C_2
REMARK    2  A    between atoms: C_8  and  C_10
REMARK    3  A    between atoms: C_10  and  C_11
REMARK    4  A    between atoms: C_11  and  C_12
REMARK    5  A    between atoms: C_12  and  N_13
REMARK    6  A    between atoms: C_14  and  C_16
REMARK                            x       y       z     vdW  Elec       q    Type
REMARK                         _______ _______ _______ _____ _____    ______ ____
ROOT
ATOM      1  C   UNL     1       1.234   3.928  20.154  0.00  0.00    +0.000 C 
ENDROOT
BRANCH   1   2
ATOM      2  C   UNL     1       2.010   2.875  19.354  0.00  0.00    +0.000 C 
BRANCH   2  10
ATOM      3  C   UNL     1       8.194   6.046  18.919  0.00  0.00    +0.000 C 
ATOM      4  C   UNL     1       7.212   6.260  17.795  0.00  0.00    +0.000 C 
ATOM      5  O   UNL     1       7.578   6.790  16.748  0.00  0.00    +0.000 OA
ATOM      6  N   UNL     1       5.926   5.781  17.982  0.00  0.00    +0.000 N 
ATOM      7  C   UNL     1       4.970   5.798  16.867  0.00  0.00    +0.000 C 
ATOM      8  C   UNL     1       4.325   4.411  16.676  0.00  0.00    +0.000 C 
ATOM      9  N   UNL     1       3.795   3.882  17.947  0.00  0.00    +0.000 N 
ATOM     10  C   UNL     1       2.495   3.406  18.008  0.00  0.00    +0.000 C 
ATOM     11  O   UNL     1       1.748   3.419  17.030  0.00  0.00    +0.000 OA
ATOM     12  C   UNL     1       4.765   3.876  19.048  0.00  0.00    +0.000 C 
ATOM     13  C   UNL     1       5.377   5.270  19.242  0.00  0.00    +0.000 C 
ENDBRANCH   2  10
ENDBRANCH   1   2
BRANCH   1  14
ATOM     14  C   UNL     1       2.170   4.852  20.929  0.00  0.00    +0.000 C 
BRANCH  14  15
ATOM     15  N   UNL     1       1.589   6.164  21.161  0.00  0.00    +0.000 N 
ATOM     16  C   UNL     1       1.861   7.204  20.290  0.00  0.00    +0.000 C 
ATOM     17  O   UNL     1       2.601   7.086  19.320  0.00  0.00    +0.000 OA
ATOM     18  H   UNL     1       0.811   6.243  21.801  0.00  0.00    +0.000 HD
BRANCH  16  19
ATOM     19  C   UNL     1       1.187   8.505  20.556  0.00  0.00    +0.000 A 
ATOM     20  C   UNL     1       0.783   8.893  21.840  0.00  0.00    +0.000 A 
ATOM     21  C   UNL     1       0.193  10.145  22.046  0.00  0.00    +0.000 A 
ATOM     22  C   UNL     1       0.002  11.012  20.970  0.00  0.00    +0.000 A 
ATOM     23 CL   UNL     1      -0.720  12.551  21.227  0.00  0.00    +0.000 Cl
ATOM     24  C   UNL     1       0.405  10.640  19.687  0.00  0.00    +0.000 A 
ATOM     25  C   UNL     1       1.001   9.393  19.481  0.00  0.00    +0.000 A 
ENDBRANCH  16  19
ENDBRANCH  14  15
ENDBRANCH   1  14
TORSDOF 5
ENDMDL
MODEL 3
REMARK VINA RESULT:      -8.0      0.213      1.010
REMARK  Name = 
REMARK  6 active torsions:
REMARK  status: ('A' for Active; 'I' for Inactive)
REMARK    1  A    between atoms: C_1  and  C_2
REMARK    2  A    between atoms: C_8  and  C_10
REMARK    3  A    between atoms: C_10  and  C_11
REMARK    4  A    between atoms: C_11  and  C_12
REMARK    5  A    between atoms: C_12  and  N_13
REMARK    6  A    between atoms: C_14  and  C_16
REMARK                            x       y       z     vdW  Elec       q    Type
REMARK                         _______ _______ _______ _____ _____    ______ ____
ROOT
ATOM      1  C   UNL     1       7.772   7.677  17.494  0.00  0.00    +0.000 C 
ENDROOT
BRANCH   1   2
ATOM      2  C   UNL     1       7.735   6.199  17.903  0.00  0.00    +0.000 C 
BRANCH   2  10
ATOM      3  C   UNL     1       1.417   4.053  19.893  0.00  0.00    +0.000 C 
ATOM      4  C   UNL     1       2.068   3.346  18.732  0.00  0.00    +0.000 C 
ATOM      5  O   UNL     1       1.413   2.575  18.032  0.00  0.00    +0.000 OA
ATOM      6  N   UNL     1       3.392   3.653  18.469  0.00  0.00    +0.000 N 
ATOM      7  C   UNL     1       4.036   3.136  17.253  0.00  0.00    +0.000 C 
ATOM      8  C   UNL     1       4.716   4.274  16.466  0.00  0.00    +0.000 C 
ATOM      9  N   UNL     1       5.584   5.089  17.336  0.00  0.00    +0.000 N 
ATOM     10  C   UNL     1       6.891   5.352  16.956  0.00  0.00    +0.000 C 
ATOM     11  O   UNL     1       7.366   4.915  15.908  0.00  0.00    +0.000 OA
ATOM     12  C   UNL     1       4.923   5.594  18.546  0.00  0.00    +0.000 C 
ATOM     13  C   UNL     1       4.275   4.445  19.331  0.00  0.00    +0.000 C 
ENDBRANCH   2  10
ENDBRANCH   1   2
BRANCH   1  14
ATOM     14  C   UNL     1       8.305   8.561  18.617  0.00  0.00    +0.000 C 
BRANCH  14  15
ATOM     15  N   UNL     1       8.792   9.842  18.134  0.00  0.00    +0.000 N 
ATOM     16  C   UNL     1       9.393  10.728  19.010  0.00  0.00    +0.000 C 
ATOM     17  O   UNL     1       9.524  10.498  20.207  0.00  0.00    +0.000 OA
ATOM     18  H   UNL     1       8.910   9.972  17.138  0.00  0.00    +0.000 HD
BRANCH  16  19
ATOM     19  C   UNL     1       9.921  11.996  18.436  0.00  0.00    +0.000 A 
ATOM     20  C   UNL     1      11.154  12.065  17.772  0.00  0.00    +0.000 A 
ATOM     21  C   UNL     1      11.587  13.271  17.210  0.00  0.00    +0.000 A 
ATOM     22  C   UNL     1      10.791  14.413  17.311  0.00  0.00    +0.000 A 
ATOM     23 CL   UNL     1      11.325  15.892  16.616  0.00  0.00    +0.000 Cl
ATOM     24  C   UNL     1       9.560  14.357  17.964  0.00  0.00    +0.000 A 
ATOM     25  C   UNL     1       9.123  13.151  18.520  0.00  0.00    +0.000 A 
ENDBRANCH  16  19
ENDBRANCH  14  15
ENDBRANCH   1  14
TORSDOF 5
ENDMDL
MODEL 4
REMARK VINA RESULT:      -7.7      6.120      8.332
REMARK  Name = 
REMARK  6 active torsions:
REMARK  status: ('A' for Active; 'I' for Inactive)
REMARK    1  A    between atoms: C_1  and  C_2
REMARK    2  A    between atoms: C_8  and  C_10
REMARK    3  A    between atoms: C_10  and  C_11
REMARK    4  A    between atoms: C_11  and  C_12
REMARK    5  A    between atoms: C_12  and  N_13
REMARK    6  A    between atoms: C_14  and  C_16
REMARK                            x       y       z     vdW  Elec       q    Type
REMARK                         _______ _______ _______ _____ _____    ______ ____
ROOT
ATOM      1  C   UNL     1       1.769   4.566  20.028  0.00  0.00    +0.000 C 
ENDROOT
BRANCH   1   2
ATOM      2  C   UNL     1       2.359   5.879  20.557  0.00  0.00    +0.000 C 
BRANCH   2  10
ATOM      3  C   UNL     1      -1.049  11.606  22.576  0.00  0.00    +0.000 C 
ATOM      4  C   UNL     1      -0.872  11.376  21.096  0.00  0.00    +0.000 C 
ATOM      5  O   UNL     1      -1.125  12.275  20.297  0.00  0.00    +0.000 OA
ATOM      6  N   UNL     1      -0.363  10.149  20.705  0.00  0.00    +0.000 N 
ATOM      7  C   UNL     1      -0.003   9.921  19.299  0.00  0.00    +0.000 C 
ATOM      8  C   UNL     1       1.430   9.364  19.184  0.00  0.00    +0.000 C 
ATOM      9  N   UNL     1       1.635   8.209  20.078  0.00  0.00    +0.000 N 
ATOM     10  C   UNL     1       2.176   7.036  19.578  0.00  0.00    +0.000 C 
ATOM     11  O   UNL     1       2.488   6.914  18.393  0.00  0.00    +0.000 OA
ATOM     12  C   UNL     1       1.266   8.457  21.477  0.00  0.00    +0.000 C 
ATOM     13  C   UNL     1      -0.172   8.985  21.575  0.00  0.00    +0.000 C 
ENDBRANCH   2  10
ENDBRANCH   1   2
BRANCH   1  14
ATOM     14  C   UNL     1       2.859   3.547  19.707  0.00  0.00    +0.000 C 
BRANCH  14  15
ATOM     15  N   UNL     1       3.533   3.830  18.451  0.00  0.00    +0.000 N 
ATOM     16  C   UNL     1       4.900   4.038  18.433  0.00  0.00    +0.000 C 
ATOM     17  O   UNL     1       5.592   4.019  19.445  0.00  0.00    +0.000 OA
ATOM     18  H   UNL     1       3.049   3.631  17.586  0.00  0.00    +0.000 HD
BRANCH  16  19
ATOM     19  C   UNL     1       5.534   4.264  17.105  0.00  0.00    +0.000 A 
ATOM     20  C   UNL     1       4.812   4.192  15.906  0.00  0.00    +0.000 A 
ATOM     21  C   UNL     1       5.442   4.457  14.686  0.00  0.00    +0.000 A 
ATOM     22  C   UNL     1       6.797   4.792  14.658  0.00  0.00    +0.000 A 
ATOM     23 CL   UNL     1       7.567   5.121  13.157  0.00  0.00    +0.000 Cl
ATOM     24  C   UNL     1       7.526   4.874  15.844  0.00  0.00    +0.000 A 
ATOM     25  C   UNL     1       6.895   4.616  17.066  0.00  0.00    +0.000 A 
ENDBRANCH  16  19
ENDBRANCH  14  15
ENDBRANCH   1  14
TORSDOF 5
ENDMDL
MODEL 5
REMARK VINA RESULT:      -7.7      1.055      1.073
REMARK  Name = 
REMARK  6 active torsions:
REMARK  status: ('A' for Active; 'I' for Inactive)
REMARK    1  A    between atoms: C_1  and  C_2
REMARK    2  A    between atoms: C_8  and  C_10
REMARK    3  A    between atoms: C_10  and  C_11
REMARK    4  A    between atoms: C_11  and  C_12
REMARK    5  A    between atoms: C_12  and  N_13
REMARK    6  A    between atoms: C_14  and  C_16
REMARK                            x       y       z     vdW  Elec       q    Type
REMARK                         _______ _______ _______ _____ _____    ______ ____
ROOT
ATOM      1  C   UNL     1       7.044   7.513  17.202  0.00  0.00    +0.000 C 
ENDROOT
BRANCH   1   2
ATOM      2  C   UNL     1       7.135   5.984  17.131  0.00  0.00    +0.000 C 
BRANCH   2  10
ATOM      3  C   UNL     1       2.534   3.042  21.452  0.00  0.00    +0.000 C 
ATOM      4  C   UNL     1       2.457   2.685  19.988  0.00  0.00    +0.000 C 
ATOM      5  O   UNL     1       1.482   2.075  19.554  0.00  0.00    +0.000 OA
ATOM      6  N   UNL     1       3.487   3.126  19.176  0.00  0.00    +0.000 N 
ATOM      7  C   UNL     1       3.390   2.965  17.719  0.00  0.00    +0.000 C 
ATOM      8  C   UNL     1       3.666   4.300  17.000  0.00  0.00    +0.000 C 
ATOM      9  N   UNL     1       4.914   4.924  17.479  0.00  0.00    +0.000 N 
ATOM     10  C   UNL     1       5.867   5.350  16.568  0.00  0.00    +0.000 C 
ATOM     11  O   UNL     1       5.715   5.215  15.353  0.00  0.00    +0.000 OA
ATOM     12  C   UNL     1       4.992   5.073  18.937  0.00  0.00    +0.000 C 
ATOM     13  C   UNL     1       4.742   3.729  19.636  0.00  0.00    +0.000 C 
ENDBRANCH   2  10
ENDBRANCH   1   2
BRANCH   1  14
ATOM     14  C   UNL     1       8.042   8.093  18.201  0.00  0.00    +0.000 C 
BRANCH  14  15
ATOM     15  N   UNL     1       8.522   9.407  17.810  0.00  0.00    +0.000 N 
ATOM     16  C   UNL     1       9.154  10.216  18.737  0.00  0.00    +0.000 C 
ATOM     17  O   UNL     1       9.317   9.890  19.907  0.00  0.00    +0.000 OA
ATOM     18  H   UNL     1       8.613   9.617  16.825  0.00  0.00    +0.000 HD
BRANCH  16  19
ATOM     19  C   UNL     1       9.672  11.526  18.253  0.00  0.00    +0.000 A 
ATOM     20  C   UNL     1       8.857  12.659  18.135  0.00  0.00    +0.000 A 
ATOM     21  C   UNL     1       9.400  13.879  17.718  0.00  0.00    +0.000 A 
ATOM     22  C   UNL     1      10.759  13.970  17.415  0.00  0.00    +0.000 A 
ATOM     23 CL   UNL     1      11.425  15.472  16.907  0.00  0.00    +0.000 Cl
ATOM     24  C   UNL     1      11.584  12.851  17.534  0.00  0.00    +0.000 A 
ATOM     25  C   UNL     1      11.043  11.633  17.958  0.00  0.00    +0.000 A 
ENDBRANCH  16  19
ENDBRANCH  14  15
ENDBRANCH   1  14
TORSDOF 5
ENDMDL
MODEL 6
REMARK VINA RESULT:      -7.5      1.200      1.452
REMARK  Name = 
REMARK  6 active torsions:
REMARK  status: ('A' for Active; 'I' for Inactive)
REMARK    1  A    between atoms: C_1  and  C_2
REMARK    2  A    between atoms: C_8  and  C_10
REMARK    3  A    between atoms: C_10  and  C_11
REMARK    4  A    between atoms: C_11  and  C_12
REMARK    5  A    between atoms: C_12  and  N_13
REMARK    6  A    between atoms: C_14  and  C_16
REMARK                            x       y       z     vdW  Elec       q    Type
REMARK                         _______ _______ _______ _____ _____    ______ ____
ROOT
ATOM      1  C   UNL     1       7.657   8.489  17.697  0.00  0.00    +0.000 C 
ENDROOT
BRANCH   1   2
ATOM      2  C   UNL     1       7.425   6.975  17.779  0.00  0.00    +0.000 C 
BRANCH   2  10
ATOM      3  C   UNL     1       2.944   2.644  20.886  0.00  0.00    +0.000 C 
ATOM      4  C   UNL     1       2.852   2.798  19.388  0.00  0.00    +0.000 C 
ATOM      5  O   UNL     1       1.884   2.348  18.780  0.00  0.00    +0.000 OA
ATOM      6  N   UNL     1       3.863   3.511  18.765  0.00  0.00    +0.000 N 
ATOM      7  C   UNL     1       3.748   3.848  17.340  0.00  0.00    +0.000 C 
ATOM      8  C   UNL     1       3.987   5.354  17.111  0.00  0.00    +0.000 C 
ATOM      9  N   UNL     1       5.229   5.808  17.764  0.00  0.00    +0.000 N 
ATOM     10  C   UNL     1       6.161   6.539  17.043  0.00  0.00    +0.000 C 
ATOM     11  O   UNL     1       5.995   6.817  15.855  0.00  0.00    +0.000 OA
ATOM     12  C   UNL     1       5.325   5.460  19.187  0.00  0.00    +0.000 C 
ATOM     13  C   UNL     1       5.112   3.953  19.393  0.00  0.00    +0.000 C 
ENDBRANCH   2  10
ENDBRANCH   1   2
BRANCH   1  14
ATOM     14  C   UNL     1       8.682   8.959  18.725  0.00  0.00    +0.000 C 
BRANCH  14  15
ATOM     15  N   UNL     1       9.297  10.224  18.359  0.00  0.00    +0.000 N 
ATOM     16  C   UNL     1       9.708  11.103  19.345  0.00  0.00    +0.000 C 
ATOM     17  O   UNL     1       9.561  10.880  20.542  0.00  0.00    +0.000 OA
ATOM     18  H   UNL     1       9.639  10.342  17.415  0.00  0.00    +0.000 HD
BRANCH  16  19
ATOM     19  C   UNL     1      10.383  12.354  18.901  0.00  0.00    +0.000 A 
ATOM     20  C   UNL     1      11.731  12.620  19.179  0.00  0.00    +0.000 A 
ATOM     21  C   UNL     1      12.332  13.789  18.702  0.00  0.00    +0.000 A 
ATOM     22  C   UNL     1      11.589  14.697  17.947  0.00  0.00    +0.000 A 
ATOM     23 CL   UNL     1      12.333  16.131  17.358  0.00  0.00    +0.000 Cl
ATOM     24  C   UNL     1      10.249  14.442  17.657  0.00  0.00    +0.000 A 
ATOM     25  C   UNL     1       9.649  13.270  18.127  0.00  0.00    +0.000 A 
ENDBRANCH  16  19
ENDBRANCH  14  15
ENDBRANCH   1  14
TORSDOF 5
ENDMDL
MODEL 7
REMARK VINA RESULT:      -7.4      1.774      2.205
REMARK  Name = 
REMARK  6 active torsions:
REMARK  status: ('A' for Active; 'I' for Inactive)
REMARK    1  A    between atoms: C_1  and  C_2
REMARK    2  A    between atoms: C_8  and  C_10
REMARK    3  A    between atoms: C_10  and  C_11
REMARK    4  A    between atoms: C_11  and  C_12
REMARK    5  A    between atoms: C_12  and  N_13
REMARK    6  A    between atoms: C_14  and  C_16
REMARK                            x       y       z     vdW  Elec       q    Type
REMARK                         _______ _______ _______ _____ _____    ______ ____
ROOT
ATOM      1  C   UNL     1       7.706   6.689  17.119  0.00  0.00    +0.000 C 
ENDROOT
BRANCH   1   2
ATOM      2  C   UNL     1       6.254   6.483  16.671  0.00  0.00    +0.000 C 
BRANCH   2  10
ATOM      3  C   UNL     1       0.937   4.293  20.599  0.00  0.00    +0.000 C 
ATOM      4  C   UNL     1       1.901   3.258  20.076  0.00  0.00    +0.000 C 
ATOM      5  O   UNL     1       1.627   2.063  20.159  0.00  0.00    +0.000 OA
ATOM      6  N   UNL     1       3.051   3.721  19.460  0.00  0.00    +0.000 N 
ATOM      7  C   UNL     1       3.945   2.777  18.776  0.00  0.00    +0.000 C 
ATOM      8  C   UNL     1       4.252   3.253  17.342  0.00  0.00    +0.000 C 
ATOM      9  N   UNL     1       4.694   4.660  17.322  0.00  0.00    +0.000 N 
ATOM     10  C   UNL     1       5.854   5.011  16.650  0.00  0.00    +0.000 C 
ATOM     11  O   UNL     1       6.548   4.177  16.068  0.00  0.00    +0.000 OA
ATOM     12  C   UNL     1       3.788   5.586  18.012  0.00  0.00    +0.000 C 
ATOM     13  C   UNL     1       3.515   5.112  19.447  0.00  0.00    +0.000 C 
ENDBRANCH   2  10
ENDBRANCH   1   2
BRANCH   1  14
ATOM     14  C   UNL     1       7.799   6.988  18.613  0.00  0.00    +0.000 C 
BRANCH  14  15
ATOM     15  N   UNL     1       8.687   8.101  18.903  0.00  0.00    +0.000 N 
ATOM     16  C   UNL     1       8.443   9.343  18.346  0.00  0.00    +0.000 C 
ATOM     17  O   UNL     1       7.509   9.560  17.582  0.00  0.00    +0.000 OA
ATOM     18  H   UNL     1       9.319   8.025  19.690  0.00  0.00    +0.000 HD
BRANCH  16  19
ATOM     19  C   UNL     1       9.358  10.452  18.732  0.00  0.00    +0.000 A 
ATOM     20  C   UNL     1       9.989  11.271  17.785  0.00  0.00    +0.000 A 
ATOM     21  C   UNL     1      10.805  12.329  18.199  0.00  0.00    +0.000 A 
ATOM     22  C   UNL     1      10.996  12.572  19.560  0.00  0.00    +0.000 A 
ATOM     23 CL   UNL     1      11.997  13.875  20.064  0.00  0.00    +0.000 Cl
ATOM     24  C   UNL     1      10.370  11.769  20.513  0.00  0.00    +0.000 A 
ATOM     25  C   UNL     1       9.548  10.716  20.101  0.00  0.00    +0.000 A 
ENDBRANCH  16  19
ENDBRANCH  14  15
ENDBRANCH   1  14
TORSDOF 5
ENDMDL
MODEL 8
REMARK VINA RESULT:      -7.4      6.043      8.077
REMARK  Name = 
REMARK  6 active torsions:
REMARK  status: ('A' for Active; 'I' for Inactive)
REMARK    1  A    between atoms: C_1  and  C_2
REMARK    2  A    between atoms: C_8  and  C_10
REMARK    3  A    between atoms: C_10  and  C_11
REMARK    4  A    between atoms: C_11  and  C_12
REMARK    5  A    between atoms: C_12  and  N_13
REMARK    6  A    between atoms: C_14  and  C_16
REMARK                            x       y       z     vdW  Elec       q    Type
REMARK                         _______ _______ _______ _____ _____    ______ ____
ROOT
ATOM      1  C   UNL     1       3.248   4.939  20.294  0.00  0.00    +0.000 C 
ENDROOT
BRANCH   1   2
ATOM      2  C   UNL     1       4.282   4.086  19.549  0.00  0.00    +0.000 C 
BRANCH   2  10
ATOM      3  C   UNL     1       5.555   3.722  12.713  0.00  0.00    +0.000 C 
ATOM      4  C   UNL     1       6.629   4.300  13.600  0.00  0.00    +0.000 C 
ATOM      5  O   UNL     1       7.591   4.883  13.105  0.00  0.00    +0.000 OA
ATOM      6  N   UNL     1       6.441   4.194  14.968  0.00  0.00    +0.000 N 
ATOM      7  C   UNL     1       7.356   4.884  15.887  0.00  0.00    +0.000 C 
ATOM      8  C   UNL     1       6.570   5.728  16.911  0.00  0.00    +0.000 C 
ATOM      9  N   UNL     1       5.508   4.938  17.560  0.00  0.00    +0.000 N 
ATOM     10  C   UNL     1       5.402   4.926  18.942  0.00  0.00    +0.000 C 
ATOM     11  O   UNL     1       6.182   5.551  19.661  0.00  0.00    +0.000 OA
ATOM     12  C   UNL     1       4.607   4.254  16.625  0.00  0.00    +0.000 C 
ATOM     13  C   UNL     1       5.404   3.398  15.630  0.00  0.00    +0.000 C 
ENDBRANCH   2  10
ENDBRANCH   1   2
BRANCH   1  14
ATOM     14  C   UNL     1       2.852   6.175  19.491  0.00  0.00    +0.000 C 
BRANCH  14  15
ATOM     15  N   UNL     1       2.104   7.137  20.284  0.00  0.00    +0.000 N 
ATOM     16  C   UNL     1       1.654   8.309  19.703  0.00  0.00    +0.000 C 
ATOM     17  O   UNL     1       1.874   8.603  18.534  0.00  0.00    +0.000 OA
ATOM     18  H   UNL     1       1.711   6.838  21.166  0.00  0.00    +0.000 HD
BRANCH  16  19
ATOM     19  C   UNL     1       0.844   9.222  20.557  0.00  0.00    +0.000 A 
ATOM     20  C   UNL     1       0.302  10.420  20.073  0.00  0.00    +0.000 A 
ATOM     21  C   UNL     1      -0.489  11.222  20.901  0.00  0.00    +0.000 A 
ATOM     22  C   UNL     1      -0.741  10.832  22.217  0.00  0.00    +0.000 A 
ATOM     23 CL   UNL     1      -1.718  11.818  23.231  0.00  0.00    +0.000 Cl
ATOM     24  C   UNL     1      -0.213   9.639  22.710  0.00  0.00    +0.000 A 
ATOM     25  C   UNL     1       0.573   8.832  21.881  0.00  0.00    +0.000 A 
ENDBRANCH  16  19
ENDBRANCH  14  15
ENDBRANCH   1  14
TORSDOF 5
ENDMDL
MODEL 9
REMARK VINA RESULT:      -7.3      3.984     10.592
REMARK  Name = 
REMARK  6 active torsions:
REMARK  status: ('A' for Active; 'I' for Inactive)
REMARK    1  A    between atoms: C_1  and  C_2
REMARK    2  A    between atoms: C_8  and  C_10
REMARK    3  A    between atoms: C_10  and  C_11
REMARK    4  A    between atoms: C_11  and  C_12
REMARK    5  A    between atoms: C_12  and  N_13
REMARK    6  A    between atoms: C_14  and  C_16
REMARK                            x       y       z     vdW  Elec       q    Type
REMARK                         _______ _______ _______ _____ _____    ______ ____
ROOT
ATOM      1  C   UNL     1       8.177   9.648  18.148  0.00  0.00    +0.000 C 
ENDROOT
BRANCH   1   2
ATOM      2  C   UNL     1       9.502  10.012  18.829  0.00  0.00    +0.000 C 
BRANCH   2  10
ATOM      3  C   UNL     1      10.990  16.528  16.876  0.00  0.00    +0.000 C 
ATOM      4  C   UNL     1      10.922  16.233  18.353  0.00  0.00    +0.000 C 
ATOM      5  O   UNL     1      10.911  17.154  19.167  0.00  0.00    +0.000 OA
ATOM      6  N   UNL     1      10.813  14.904  18.726  0.00  0.00    +0.000 N 
ATOM      7  C   UNL     1      10.568  14.557  20.133  0.00  0.00    +0.000 C 
ATOM      8  C   UNL     1       9.371  13.593  20.259  0.00  0.00    +0.000 C 
ATOM      9  N   UNL     1       9.504  12.444  19.345  0.00  0.00    +0.000 N 
ATOM     10  C   UNL     1       9.350  11.154  19.829  0.00  0.00    +0.000 C 
ATOM     11  O   UNL     1       9.115  10.927  21.016  0.00  0.00    +0.000 OA
ATOM     12  C   UNL     1       9.750  12.812  17.945  0.00  0.00    +0.000 C 
ATOM     13  C   UNL     1      10.961  13.749  17.835  0.00  0.00    +0.000 C 
ENDBRANCH   2  10
ENDBRANCH   1   2
BRANCH   1  14
ATOM     14  C   UNL     1       8.183   8.212  17.632  0.00  0.00    +0.000 C 
BRANCH  14  15
ATOM     15  N   UNL     1       6.900   7.553  17.806  0.00  0.00    +0.000 N 
ATOM     16  C   UNL     1       6.562   6.476  17.005  0.00  0.00    +0.000 C 
ATOM     17  O   UNL     1       7.292   6.048  16.119  0.00  0.00    +0.000 OA
ATOM     18  H   UNL     1       6.379   7.722  18.656  0.00  0.00    +0.000 HD
BRANCH  16  19
ATOM     19  C   UNL     1       5.257   5.812  17.278  0.00  0.00    +0.000 A 
ATOM     20  C   UNL     1       4.146   6.511  17.768  0.00  0.00    +0.000 A 
ATOM     21  C   UNL     1       2.928   5.851  17.965  0.00  0.00    +0.000 A 
ATOM     22  C   UNL     1       2.817   4.491  17.676  0.00  0.00    +0.000 A 
ATOM     23 CL   UNL     1       1.318   3.684  17.917  0.00  0.00    +0.000 Cl
ATOM     24  C   UNL     1       3.913   3.784  17.183  0.00  0.00    +0.000 A 
ATOM     25  C   UNL     1       5.129   4.444  16.977  0.00  0.00    +0.000 A 
ENDBRANCH  16  19
ENDBRANCH  14  15
ENDBRANCH   1  14
TORSDOF 5
ENDMDL
