MODEL 1
REMARK VINA RESULT:      -8.5      0.000      0.000
REMARK  Name = 
REMARK  6 active torsions:
REMARK  status: ('A' for Active; 'I' for Inactive)
REMARK    1  A    between atoms: C_1  and  C_2
REMARK    2  A    between atoms: C_2  and  C_3
REMARK    3  A    between atoms: C_2  and  C_4
REMARK    4  A    between atoms: C_9  and  C_10
REMARK    5  A    between atoms: C_17  and  C_18
REMARK    6  A    between atoms: C_18  and  O_20
REMARK                            x       y       z     vdW  Elec       q    Type
REMARK                         _______ _______ _______ _____ _____    ______ ____
ROOT
ATOM      1  C   UNL     1       3.170   4.023  19.485  0.00  0.00    +0.000 A 
ATOM      2  C   UNL     1       2.517   3.577  18.338  0.00  0.00    +0.000 A 
ATOM      3  C   UNL     1       3.163   3.619  17.103  0.00  0.00    +0.000 A 
ATOM      4  C   UNL     1       4.458   4.097  16.964  0.00  0.00    +0.000 A 
ATOM      5  N   UNL     1       4.990   4.081  15.734  0.00  0.00    +0.000 NA
ATOM      6  C   UNL     1       6.240   4.561  15.534  0.00  0.00    +0.000 A 
ATOM      7  C   UNL     1       6.996   5.058  16.587  0.00  0.00    +0.000 A 
ATOM      8  C   UNL     1       6.461   5.058  17.873  0.00  0.00    +0.000 A 
ATOM      9  C   UNL     1       5.146   4.571  18.099  0.00  0.00    +0.000 A 
ATOM     10  C   UNL     1       4.479   4.517  19.353  0.00  0.00    +0.000 A 
ENDROOT
BRANCH   6  11
ATOM     11  C   UNL     1       6.752   4.562  14.147  0.00  0.00    +0.000 A 
ATOM     12  C   UNL     1       6.284   3.677  13.175  0.00  0.00    +0.000 A 
ATOM     13  C   UNL     1       6.780   3.770  11.875  0.00  0.00    +0.000 A 
ATOM     14  C   UNL     1       7.730   4.736  11.576  0.00  0.00    +0.000 A 
ATOM     15  C   UNL     1       8.160   5.567  12.594  0.00  0.00    +0.000 A 
ATOM     16  N   UNL     1       7.699   5.499  13.861  0.00  0.00    +0.000 NA
ENDBRANCH   6  11
BRANCH   1  18
ATOM     17  C   UNL     1       1.070   4.464  20.830  0.00  0.00    +0.000 C 
ATOM     18  C   UNL     1       2.516   3.960  20.854  0.00  0.00    +0.000 C 
ATOM     19  C   UNL     1       2.588   2.541  21.423  0.00  0.00    +0.000 C 
ENDBRANCH   1  18
BRANCH   8  20
ATOM     20  C   UNL     1       7.275   5.673  18.958  0.00  0.00    +0.000 C 
ATOM     21  O   UNL     1       7.373   5.198  20.077  0.00  0.00    +0.000 OA
BRANCH  20  22
ATOM     22  O   UNL     1       7.896   6.823  18.611  0.00  0.00    +0.000 OA
ATOM     23  H   UNL     1       8.831   6.755  18.346  0.00  0.00    +0.000 HD
ENDBRANCH  20  22
ENDBRANCH   8  20
TORSDOF 4
ENDMDL
MODEL 2
REMARK VINA RESULT:      -7.9      0.808      1.136
REMARK  Name = 
REMARK  6 active torsions:
REMARK  status: ('A' for Active; 'I' for Inactive)
REMARK    1  A    between atoms: C_1  and  C_2
REMARK    2  A    between atoms: C_2  and  C_3
REMARK    3  A    between atoms: C_2  and  C_4
REMARK    4  A    between atoms: C_9  and  C_10
REMARK    5  A    between atoms: C_17  and  C_18
REMARK    6  A    between atoms: C_18  and  O_20
REMARK                            x       y       z     vdW  Elec       q    Type
REMARK                         _______ _______ _______ _____ _____    ______ ____
ROOT
ATOM      1  C   UNL     1       2.991   4.365  19.564  0.00  0.00    +0.000 A 
ATOM      2  C   UNL     1       2.293   3.900  18.451  0.00  0.00    +0.000 A 
ATOM      3  C   UNL     1       2.916   3.847  17.205  0.00  0.00    +0.000 A 
ATOM      4  C   UNL     1       4.231   4.248  17.021  0.00  0.00    +0.000 A 
ATOM      5  N   UNL     1       4.738   4.145  15.784  0.00  0.00    +0.000 NA
ATOM      6  C   UNL     1       6.007   4.547  15.540  0.00  0.00    +0.000 A 
ATOM      7  C   UNL     1       6.808   5.054  16.554  0.00  0.00    +0.000 A 
ATOM      8  C   UNL     1       6.299   5.144  17.848  0.00  0.00    +0.000 A 
ATOM      9  C   UNL     1       4.965   4.739  18.119  0.00  0.00    +0.000 A 
ATOM     10  C   UNL     1       4.321   4.782  19.386  0.00  0.00    +0.000 A 
ENDROOT
BRANCH   6  11
ATOM     11  C   UNL     1       6.491   4.455  14.146  0.00  0.00    +0.000 A 
ATOM     12  C   UNL     1       7.495   5.285  13.645  0.00  0.00    +0.000 A 
ATOM     13  C   UNL     1       7.934   5.107  12.334  0.00  0.00    +0.000 A 
ATOM     14  C   UNL     1       7.362   4.112  11.554  0.00  0.00    +0.000 A 
ATOM     15  C   UNL     1       6.361   3.339  12.110  0.00  0.00    +0.000 A 
ATOM     16  N   UNL     1       5.914   3.490  13.376  0.00  0.00    +0.000 NA
ENDBRANCH   6  11
BRANCH   1  18
ATOM     17  C   UNL     1       1.490   5.646  21.151  0.00  0.00    +0.000 C 
ATOM     18  C   UNL     1       2.361   4.403  20.945  0.00  0.00    +0.000 C 
ATOM     19  C   UNL     1       1.558   3.126  21.208  0.00  0.00    +0.000 C 
ENDBRANCH   1  18
BRANCH   8  20
ATOM     20  C   UNL     1       7.165   5.767  18.887  0.00  0.00    +0.000 C 
ATOM     21  O   UNL     1       7.269   5.336  20.023  0.00  0.00    +0.000 OA
BRANCH  20  22
ATOM     22  O   UNL     1       7.827   6.873  18.477  0.00  0.00    +0.000 OA
ATOM     23  H   UNL     1       8.578   6.735  17.871  0.00  0.00    +0.000 HD
ENDBRANCH  20  22
ENDBRANCH   8  20
TORSDOF 4
ENDMDL
MODEL 3
REMARK VINA RESULT:      -7.7      4.605      8.381
REMARK  Name = 
REMARK  6 active torsions:
REMARK  status: ('A' for Active; 'I' for Inactive)
REMARK    1  A    between atoms: C_1  and  C_2
REMARK    2  A    between atoms: C_2  and  C_3
REMARK    3  A    between atoms: C_2  and  C_4
REMARK    4  A    between atoms: C_9  and  C_10
REMARK    5  A    between atoms: C_17  and  C_18
REMARK    6  A    between atoms: C_18  and  O_20
REMARK                            x       y       z     vdW  Elec       q    Type
REMARK                         _______ _______ _______ _____ _____    ______ ____
ROOT
ATOM      1  C   UNL     1       4.141   5.585  17.495  0.00  0.00    +0.000 A 
ATOM      2  C   UNL     1       4.100   6.926  17.122  0.00  0.00    +0.000 A 
ATOM      3  C   UNL     1       3.327   7.832  17.847  0.00  0.00    +0.000 A 
ATOM      4  C   UNL     1       2.577   7.445  18.948  0.00  0.00    +0.000 A 
ATOM      5  N   UNL     1       1.879   8.398  19.581  0.00  0.00    +0.000 NA
ATOM      6  C   UNL     1       1.108   8.074  20.645  0.00  0.00    +0.000 A 
ATOM      7  C   UNL     1       1.036   6.768  21.110  0.00  0.00    +0.000 A 
ATOM      8  C   UNL     1       1.776   5.774  20.474  0.00  0.00    +0.000 A 
ATOM      9  C   UNL     1       2.580   6.094  19.348  0.00  0.00    +0.000 A 
ATOM     10  C   UNL     1       3.377   5.181  18.604  0.00  0.00    +0.000 A 
ENDROOT
BRANCH   6  11
ATOM     11  C   UNL     1       0.323   9.160  21.270  0.00  0.00    +0.000 A 
ATOM     12  C   UNL     1      -0.084   9.118  22.604  0.00  0.00    +0.000 A 
ATOM     13  C   UNL     1      -0.781  10.202  23.138  0.00  0.00    +0.000 A 
ATOM     14  C   UNL     1      -1.059  11.296  22.331  0.00  0.00    +0.000 A 
ATOM     15  C   UNL     1      -0.641  11.261  21.014  0.00  0.00    +0.000 A 
ATOM     16  N   UNL     1       0.034  10.225  20.471  0.00  0.00    +0.000 NA
ENDBRANCH   6  11
BRANCH   1  18
ATOM     17  C   UNL     1       4.358   3.184  16.719  0.00  0.00    +0.000 C 
ATOM     18  C   UNL     1       4.999   4.574  16.755  0.00  0.00    +0.000 C 
ATOM     19  C   UNL     1       5.314   5.065  15.340  0.00  0.00    +0.000 C 
ENDBRANCH   1  18
BRANCH   8  20
ATOM     20  C   UNL     1       1.608   4.374  20.955  0.00  0.00    +0.000 C 
ATOM     21  O   UNL     1       2.338   3.855  21.782  0.00  0.00    +0.000 OA
BRANCH  20  22
ATOM     22  O   UNL     1       0.578   3.706  20.387  0.00  0.00    +0.000 OA
ATOM     23  H   UNL     1       0.044   4.195  19.734  0.00  0.00    +0.000 HD
ENDBRANCH  20  22
ENDBRANCH   8  20
TORSDOF 4
ENDMDL
MODEL 4
REMARK VINA RESULT:      -7.6      4.311      8.122
REMARK  Name = 
REMARK  6 active torsions:
REMARK  status: ('A' for Active; 'I' for Inactive)
REMARK    1  A    between atoms: C_1  and  C_2
REMARK    2  A    between atoms: C_2  and  C_3
REMARK    3  A    between atoms: C_2  and  C_4
REMARK    4  A    between atoms: C_9  and  C_10
REMARK    5  A    between atoms: C_17  and  C_18
REMARK    6  A    between atoms: C_18  and  O_20
REMARK                            x       y       z     vdW  Elec       q    Type
REMARK                         _______ _______ _______ _____ _____    ______ ____
ROOT
ATOM      1  C   UNL     1       4.465   5.306  17.249  0.00  0.00    +0.000 A 
ATOM      2  C   UNL     1       4.455   6.658  16.915  0.00  0.00    +0.000 A 
ATOM      3  C   UNL     1       3.678   7.555  17.646  0.00  0.00    +0.000 A 
ATOM      4  C   UNL     1       2.895   7.149  18.717  0.00  0.00    +0.000 A 
ATOM      5  N   UNL     1       2.195   8.095  19.360  0.00  0.00    +0.000 NA
ATOM      6  C   UNL     1       1.393   7.752  20.394  0.00  0.00    +0.000 A 
ATOM      7  C   UNL     1       1.289   6.435  20.820  0.00  0.00    +0.000 A 
ATOM      8  C   UNL     1       2.029   5.447  20.172  0.00  0.00    +0.000 A 
ATOM      9  C   UNL     1       2.866   5.787  19.077  0.00  0.00    +0.000 A 
ATOM     10  C   UNL     1       3.668   4.883  18.327  0.00  0.00    +0.000 A 
ENDROOT
BRANCH   6  11
ATOM     11  C   UNL     1       0.609   8.833  21.031  0.00  0.00    +0.000 A 
ATOM     12  C   UNL     1       0.375   8.878  22.406  0.00  0.00    +0.000 A 
ATOM     13  C   UNL     1      -0.332   9.954  22.941  0.00  0.00    +0.000 A 
ATOM     14  C   UNL     1      -0.792  10.954  22.096  0.00  0.00    +0.000 A 
ATOM     15  C   UNL     1      -0.539  10.834  20.742  0.00  0.00    +0.000 A 
ATOM     16  N   UNL     1       0.142   9.803  20.197  0.00  0.00    +0.000 NA
ENDBRANCH   6  11
BRANCH   1  18
ATOM     17  C   UNL     1       5.240   4.481  14.984  0.00  0.00    +0.000 C 
ATOM     18  C   UNL     1       5.326   4.302  16.502  0.00  0.00    +0.000 C 
ATOM     19  C   UNL     1       6.779   4.378  16.977  0.00  0.00    +0.000 C 
ENDBRANCH   1  18
BRANCH   8  20
ATOM     20  C   UNL     1       1.827   4.038  20.608  0.00  0.00    +0.000 C 
ATOM     21  O   UNL     1       1.148   3.234  19.992  0.00  0.00    +0.000 OA
BRANCH  20  22
ATOM     22  O   UNL     1       2.450   3.713  21.764  0.00  0.00    +0.000 OA
ATOM     23  H   UNL     1       2.061   4.066  22.586  0.00  0.00    +0.000 HD
ENDBRANCH  20  22
ENDBRANCH   8  20
TORSDOF 4
ENDMDL
MODEL 5
REMARK VINA RESULT:      -7.5      3.638      7.443
REMARK  Name = 
REMARK  6 active torsions:
REMARK  status: ('A' for Active; 'I' for Inactive)
REMARK    1  A    between atoms: C_1  and  C_2
REMARK    2  A    between atoms: C_2  and  C_3
REMARK    3  A    between atoms: C_2  and  C_4
REMARK    4  A    between atoms: C_9  and  C_10
REMARK    5  A    between atoms: C_17  and  C_18
REMARK    6  A    between atoms: C_18  and  O_20
REMARK                            x       y       z     vdW  Elec       q    Type
REMARK                         _______ _______ _______ _____ _____    ______ ____
ROOT
ATOM      1  C   UNL     1       5.362   4.955  15.525  0.00  0.00    +0.000 A 
ATOM      2  C   UNL     1       5.456   6.343  15.441  0.00  0.00    +0.000 A 
ATOM      3  C   UNL     1       4.736   7.149  16.321  0.00  0.00    +0.000 A 
ATOM      4  C   UNL     1       3.910   6.616  17.300  0.00  0.00    +0.000 A 
ATOM      5  N   UNL     1       3.273   7.480  18.103  0.00  0.00    +0.000 NA
ATOM      6  C   UNL     1       2.433   7.018  19.058  0.00  0.00    +0.000 A 
ATOM      7  C   UNL     1       2.226   5.657  19.238  0.00  0.00    +0.000 A 
ATOM      8  C   UNL     1       2.901   4.750  18.423  0.00  0.00    +0.000 A 
ATOM      9  C   UNL     1       3.776   5.218  17.408  0.00  0.00    +0.000 A 
ATOM     10  C   UNL     1       4.520   4.406  16.508  0.00  0.00    +0.000 A 
ENDROOT
BRANCH   6  11
ATOM     11  C   UNL     1       1.721   8.022  19.879  0.00  0.00    +0.000 A 
ATOM     12  C   UNL     1       1.461   7.831  21.236  0.00  0.00    +0.000 A 
ATOM     13  C   UNL     1       0.828   8.843  21.957  0.00  0.00    +0.000 A 
ATOM     14  C   UNL     1       0.466  10.016  21.309  0.00  0.00    +0.000 A 
ATOM     15  C   UNL     1       0.739  10.128  19.959  0.00  0.00    +0.000 A 
ATOM     16  N   UNL     1       1.349   9.164  19.236  0.00  0.00    +0.000 NA
ENDBRANCH   6  11
BRANCH   1  18
ATOM     17  C   UNL     1       5.360   3.625  13.370  0.00  0.00    +0.000 C 
ATOM     18  C   UNL     1       6.157   4.042  14.609  0.00  0.00    +0.000 C 
ATOM     19  C   UNL     1       7.481   4.698  14.209  0.00  0.00    +0.000 C 
ENDBRANCH   1  18
BRANCH   8  20
ATOM     20  C   UNL     1       2.589   3.304  18.597  0.00  0.00    +0.000 C 
ATOM     21  O   UNL     1       3.252   2.552  19.291  0.00  0.00    +0.000 OA
BRANCH  20  22
ATOM     22  O   UNL     1       1.508   2.876  17.906  0.00  0.00    +0.000 OA
ATOM     23  H   UNL     1       1.437   1.916  17.753  0.00  0.00    +0.000 HD
ENDBRANCH  20  22
ENDBRANCH   8  20
TORSDOF 4
ENDMDL
MODEL 6
REMARK VINA RESULT:      -7.5      4.660      8.314
REMARK  Name = 
REMARK  6 active torsions:
REMARK  status: ('A' for Active; 'I' for Inactive)
REMARK    1  A    between atoms: C_1  and  C_2
REMARK    2  A    between atoms: C_2  and  C_3
REMARK    3  A    between atoms: C_2  and  C_4
REMARK    4  A    between atoms: C_9  and  C_10
REMARK    5  A    between atoms: C_17  and  C_18
REMARK    6  A    between atoms: C_18  and  O_20
REMARK                            x       y       z     vdW  Elec       q    Type
REMARK                         _______ _______ _______ _____ _____    ______ ____
ROOT
ATOM      1  C   UNL     1       4.004   5.413  17.348  0.00  0.00    +0.000 A 
ATOM      2  C   UNL     1       4.018   6.755  16.976  0.00  0.00    +0.000 A 
ATOM      3  C   UNL     1       3.319   7.698  17.728  0.00  0.00    +0.000 A 
ATOM      4  C   UNL     1       2.594   7.349  18.858  0.00  0.00    +0.000 A 
ATOM      5  N   UNL     1       1.969   8.335  19.516  0.00  0.00    +0.000 NA
ATOM      6  C   UNL     1       1.224   8.049  20.609  0.00  0.00    +0.000 A 
ATOM      7  C   UNL     1       1.104   6.749  21.078  0.00  0.00    +0.000 A 
ATOM      8  C   UNL     1       1.768   5.719  20.415  0.00  0.00    +0.000 A 
ATOM      9  C   UNL     1       2.543   5.999  19.258  0.00  0.00    +0.000 A 
ATOM     10  C   UNL     1       3.264   5.047  18.487  0.00  0.00    +0.000 A 
ENDROOT
BRANCH   6  11
ATOM     11  C   UNL     1       0.519   9.173  21.262  0.00  0.00    +0.000 A 
ATOM     12  C   UNL     1       0.138  10.323  20.569  0.00  0.00    +0.000 A 
ATOM     13  C   UNL     1      -0.566  11.321  21.241  0.00  0.00    +0.000 A 
ATOM     14  C   UNL     1      -0.869  11.153  22.585  0.00  0.00    +0.000 A 
ATOM     15  C   UNL     1      -0.445   9.997  23.211  0.00  0.00    +0.000 A 
ATOM     16  N   UNL     1       0.240   9.015  22.586  0.00  0.00    +0.000 NA
ENDBRANCH   6  11
BRANCH   1  18
ATOM     17  C   UNL     1       6.292   4.604  16.624  0.00  0.00    +0.000 C 
ATOM     18  C   UNL     1       4.781   4.360  16.577  0.00  0.00    +0.000 C 
ATOM     19  C   UNL     1       4.441   2.957  17.086  0.00  0.00    +0.000 C 
ENDBRANCH   1  18
BRANCH   8  20
ATOM     20  C   UNL     1       1.548   4.329  20.904  0.00  0.00    +0.000 C 
ATOM     21  O   UNL     1       2.230   3.803  21.766  0.00  0.00    +0.000 OA
BRANCH  20  22
ATOM     22  O   UNL     1       0.527   3.677  20.301  0.00  0.00    +0.000 OA
ATOM     23  H   UNL     1      -0.270   3.519  20.838  0.00  0.00    +0.000 HD
ENDBRANCH  20  22
ENDBRANCH   8  20
TORSDOF 4
ENDMDL
MODEL 7
REMARK VINA RESULT:      -7.4      2.304      2.856
REMARK  Name = 
REMARK  6 active torsions:
REMARK  status: ('A' for Active; 'I' for Inactive)
REMARK    1  A    between atoms: C_1  and  C_2
REMARK    2  A    between atoms: C_2  and  C_3
REMARK    3  A    between atoms: C_2  and  C_4
REMARK    4  A    between atoms: C_9  and  C_10
REMARK    5  A    between atoms: C_17  and  C_18
REMARK    6  A    between atoms: C_18  and  O_20
REMARK                            x       y       z     vdW  Elec       q    Type
REMARK                         _______ _______ _______ _____ _____    ______ ____
ROOT
ATOM      1  C   UNL     1       2.776   6.687  19.368  0.00  0.00    +0.000 A 
ATOM      2  C   UNL     1       3.100   7.690  18.457  0.00  0.00    +0.000 A 
ATOM      3  C   UNL     1       3.823   7.383  17.306  0.00  0.00    +0.000 A 
ATOM      4  C   UNL     1       4.244   6.092  17.021  0.00  0.00    +0.000 A 
ATOM      5  N   UNL     1       4.922   5.905  15.880  0.00  0.00    +0.000 NA
ATOM      6  C   UNL     1       5.382   4.671  15.565  0.00  0.00    +0.000 A 
ATOM      7  C   UNL     1       5.151   3.583  16.396  0.00  0.00    +0.000 A 
ATOM      8  C   UNL     1       4.428   3.763  17.573  0.00  0.00    +0.000 A 
ATOM      9  C   UNL     1       3.950   5.053  17.926  0.00  0.00    +0.000 A 
ATOM     10  C   UNL     1       3.206   5.377  19.094  0.00  0.00    +0.000 A 
ENDROOT
BRANCH   6  11
ATOM     11  C   UNL     1       6.165   4.538  14.319  0.00  0.00    +0.000 A 
ATOM     12  C   UNL     1       5.796   3.668  13.291  0.00  0.00    +0.000 A 
ATOM     13  C   UNL     1       6.558   3.631  12.124  0.00  0.00    +0.000 A 
ATOM     14  C   UNL     1       7.668   4.456  12.009  0.00  0.00    +0.000 A 
ATOM     15  C   UNL     1       7.984   5.279  13.074  0.00  0.00    +0.000 A 
ATOM     16  N   UNL     1       7.266   5.334  14.216  0.00  0.00    +0.000 NA
ENDBRANCH   6  11
BRANCH   1  18
ATOM     17  C   UNL     1       1.274   8.341  20.561  0.00  0.00    +0.000 C 
ATOM     18  C   UNL     1       1.959   6.972  20.616  0.00  0.00    +0.000 C 
ATOM     19  C   UNL     1       0.934   5.861  20.856  0.00  0.00    +0.000 C 
ENDBRANCH   1  18
BRANCH   8  20
ATOM     20  C   UNL     1       4.272   2.587  18.473  0.00  0.00    +0.000 C 
ATOM     21  O   UNL     1       3.415   1.733  18.322  0.00  0.00    +0.000 OA
BRANCH  20  22
ATOM     22  O   UNL     1       5.156   2.542  19.496  0.00  0.00    +0.000 OA
ATOM     23  H   UNL     1       4.784   2.522  20.397  0.00  0.00    +0.000 HD
ENDBRANCH  20  22
ENDBRANCH   8  20
TORSDOF 4
ENDMDL
MODEL 8
REMARK VINA RESULT:      -7.4      4.397      8.114
REMARK  Name = 
REMARK  6 active torsions:
REMARK  status: ('A' for Active; 'I' for Inactive)
REMARK    1  A    between atoms: C_1  and  C_2
REMARK    2  A    between atoms: C_2  and  C_3
REMARK    3  A    between atoms: C_2  and  C_4
REMARK    4  A    between atoms: C_9  and  C_10
REMARK    5  A    between atoms: C_17  and  C_18
REMARK    6  A    between atoms: C_18  and  O_20
REMARK                            x       y       z     vdW  Elec       q    Type
REMARK                         _______ _______ _______ _____ _____    ______ ____
ROOT
ATOM      1  C   UNL     1       4.485   5.283  17.221  0.00  0.00    +0.000 A 
ATOM      2  C   UNL     1       4.492   6.632  16.873  0.00  0.00    +0.000 A 
ATOM      3  C   UNL     1       3.731   7.547  17.600  0.00  0.00    +0.000 A 
ATOM      4  C   UNL     1       2.948   7.163  18.678  0.00  0.00    +0.000 A 
ATOM      5  N   UNL     1       2.266   8.124  19.315  0.00  0.00    +0.000 NA
ATOM      6  C   UNL     1       1.463   7.803  20.357  0.00  0.00    +0.000 A 
ATOM      7  C   UNL     1       1.343   6.492  20.796  0.00  0.00    +0.000 A 
ATOM      8  C   UNL     1       2.066   5.488  20.154  0.00  0.00    +0.000 A 
ATOM      9  C   UNL     1       2.902   5.804  19.051  0.00  0.00    +0.000 A 
ATOM     10  C   UNL     1       3.687   4.882  18.307  0.00  0.00    +0.000 A 
ENDROOT
BRANCH   6  11
ATOM     11  C   UNL     1       0.698   8.901  20.987  0.00  0.00    +0.000 A 
ATOM     12  C   UNL     1       0.128   9.937  20.247  0.00  0.00    +0.000 A 
ATOM     13  C   UNL     1      -0.621  10.912  20.905  0.00  0.00    +0.000 A 
ATOM     14  C   UNL     1      -0.779  10.834  22.282  0.00  0.00    +0.000 A 
ATOM     15  C   UNL     1      -0.171   9.789  22.952  0.00  0.00    +0.000 A 
ATOM     16  N   UNL     1       0.561   8.833  22.341  0.00  0.00    +0.000 NA
ENDBRANCH   6  11
BRANCH   1  18
ATOM     17  C   UNL     1       5.215   4.408  14.959  0.00  0.00    +0.000 C 
ATOM     18  C   UNL     1       5.328   4.261  16.479  0.00  0.00    +0.000 C 
ATOM     19  C   UNL     1       6.789   4.339  16.926  0.00  0.00    +0.000 C 
ENDBRANCH   1  18
BRANCH   8  20
ATOM     20  C   UNL     1       1.846   4.085  20.605  0.00  0.00    +0.000 C 
ATOM     21  O   UNL     1       1.138   3.291  20.010  0.00  0.00    +0.000 OA
BRANCH  20  22
ATOM     22  O   UNL     1       2.489   3.756  21.749  0.00  0.00    +0.000 OA
ATOM     23  H   UNL     1       2.192   4.203  22.563  0.00  0.00    +0.000 HD
ENDBRANCH  20  22
ENDBRANCH   8  20
TORSDOF 4
ENDMDL
MODEL 9
REMARK VINA RESULT:      -7.3      3.703      5.203
REMARK  Name = 
REMARK  6 active torsions:
REMARK  status: ('A' for Active; 'I' for Inactive)
REMARK    1  A    between atoms: C_1  and  C_2
REMARK    2  A    between atoms: C_2  and  C_3
REMARK    3  A    between atoms: C_2  and  C_4
REMARK    4  A    between atoms: C_9  and  C_10
REMARK    5  A    between atoms: C_17  and  C_18
REMARK    6  A    between atoms: C_18  and  O_20
REMARK                            x       y       z     vdW  Elec       q    Type
REMARK                         _______ _______ _______ _____ _____    ______ ____
ROOT
ATOM      1  C   UNL     1       0.738   8.655  20.728  0.00  0.00    +0.000 A 
ATOM      2  C   UNL     1       1.324   9.419  19.721  0.00  0.00    +0.000 A 
ATOM      3  C   UNL     1       2.166   8.819  18.786  0.00  0.00    +0.000 A 
ATOM      4  C   UNL     1       2.453   7.462  18.816  0.00  0.00    +0.000 A 
ATOM      5  N   UNL     1       3.265   6.985  17.863  0.00  0.00    +0.000 NA
ATOM      6  C   UNL     1       3.602   5.674  17.859  0.00  0.00    +0.000 A 
ATOM      7  C   UNL     1       3.107   4.802  18.819  0.00  0.00    +0.000 A 
ATOM      8  C   UNL     1       2.245   5.283  19.802  0.00  0.00    +0.000 A 
ATOM      9  C   UNL     1       1.892   6.658  19.829  0.00  0.00    +0.000 A 
ATOM     10  C   UNL     1       1.029   7.281  20.772  0.00  0.00    +0.000 A 
ENDROOT
BRANCH   6  11
ATOM     11  C   UNL     1       4.540   5.218  16.812  0.00  0.00    +0.000 A 
ATOM     12  C   UNL     1       5.189   6.103  15.950  0.00  0.00    +0.000 A 
ATOM     13  C   UNL     1       6.098   5.604  15.018  0.00  0.00    +0.000 A 
ATOM     14  C   UNL     1       6.334   4.237  14.964  0.00  0.00    +0.000 A 
ATOM     15  C   UNL     1       5.642   3.418  15.835  0.00  0.00    +0.000 A 
ATOM     16  N   UNL     1       4.756   3.874  16.747  0.00  0.00    +0.000 NA
ENDBRANCH   6  11
BRANCH   1  18
ATOM     17  C   UNL     1       0.412   9.368  23.136  0.00  0.00    +0.000 C 
ATOM     18  C   UNL     1      -0.214   9.263  21.743  0.00  0.00    +0.000 C 
ATOM     19  C   UNL     1      -0.712  10.630  21.265  0.00  0.00    +0.000 C 
ENDBRANCH   1  18
BRANCH   8  20
ATOM     20  C   UNL     1       1.803   4.331  20.858  0.00  0.00    +0.000 C 
ATOM     21  O   UNL     1       2.440   4.110  21.874  0.00  0.00    +0.000 OA
BRANCH  20  22
ATOM     22  O   UNL     1       0.630   3.709  20.598  0.00  0.00    +0.000 OA
ATOM     23  H   UNL     1      -0.001   4.184  20.026  0.00  0.00    +0.000 HD
ENDBRANCH  20  22
ENDBRANCH   8  20
TORSDOF 4
ENDMDL
