MODEL 1
REMARK VINA RESULT:      -7.4      0.000      0.000
REMARK  Name = 
REMARK  6 active torsions:
REMARK  status: ('A' for Active; 'I' for Inactive)
REMARK    1  A    between atoms: C_1  and  N_2
REMARK    2  A    between atoms: C_4  and  C_5
REMARK    3  A    between atoms: C_5  and  C_6
REMARK    4  A    between atoms: C_6  and  N_7
REMARK    5  A    between atoms: N_7  and  C_8
REMARK    6  A    between atoms: C_8  and  C_9
REMARK                            x       y       z     vdW  Elec       q    Type
REMARK                         _______ _______ _______ _____ _____    ______ ____
ROOT
ATOM      1  C   UNL     1       2.219   7.558  18.490  0.00  0.00    +0.000 C 
ENDROOT
BRANCH   1   5
ATOM      2  C   UNL     1       6.038   4.928  16.616  0.00  0.00    +0.000 C 
ATOM      3  N   UNL     1       4.751   5.241  17.195  0.00  0.00    +0.000 N 
ATOM      4  C   UNL     1       4.328   6.505  17.495  0.00  0.00    +0.000 A 
ATOM      5  C   UNL     1       3.065   6.417  18.039  0.00  0.00    +0.000 A 
ATOM      6  C   UNL     1       2.712   5.031  18.071  0.00  0.00    +0.000 A 
ATOM      7  C   UNL     1       1.572   4.323  18.509  0.00  0.00    +0.000 A 
ATOM      8  C   UNL     1       1.533   2.931  18.381  0.00  0.00    +0.000 A 
ATOM      9  C   UNL     1       2.606   2.242  17.825  0.00  0.00    +0.000 A 
ATOM     10  C   UNL     1       3.749   2.921  17.387  0.00  0.00    +0.000 A 
ATOM     11  C   UNL     1       3.782   4.317  17.523  0.00  0.00    +0.000 A 
ENDBRANCH   1   5
BRANCH   1  12
ATOM     12  C   UNL     1       2.582   8.875  17.790  0.00  0.00    +0.000 C 
BRANCH  12  13
ATOM     13  N   UNL     1       1.433   9.759  17.559  0.00  0.00    +0.000 NA
ATOM     14  H   UNL     1       0.879   9.406  16.779  0.00  0.00    +0.000 HD
BRANCH  13  15
ATOM     15  C   UNL     1       0.581   9.865  18.742  0.00  0.00    +0.000 C 
BRANCH  15  16
ATOM     16  C   UNL     1      -0.803  10.342  18.383  0.00  0.00    +0.000 A 
ATOM     17  C   UNL     1      -1.431  11.336  19.149  0.00  0.00    +0.000 A 
ATOM     18  C   UNL     1      -2.702  11.794  18.804  0.00  0.00    +0.000 A 
ATOM     19  C   UNL     1      -3.352  11.257  17.692  0.00  0.00    +0.000 A 
ATOM     20 CL   UNL     1      -4.918  11.825  17.266  0.00  0.00    +0.000 Cl
ATOM     21  C   UNL     1      -2.743  10.266  16.925  0.00  0.00    +0.000 A 
ATOM     22  C   UNL     1      -1.469   9.809  17.270  0.00  0.00    +0.000 A 
ENDBRANCH  15  16
ENDBRANCH  13  15
ENDBRANCH  12  13
ENDBRANCH   1  12
TORSDOF 5
ENDMDL
MODEL 2
REMARK VINA RESULT:      -7.3      1.308      1.748
REMARK  Name = 
REMARK  6 active torsions:
REMARK  status: ('A' for Active; 'I' for Inactive)
REMARK    1  A    between atoms: C_1  and  N_2
REMARK    2  A    between atoms: C_4  and  C_5
REMARK    3  A    between atoms: C_5  and  C_6
REMARK    4  A    between atoms: C_6  and  N_7
REMARK    5  A    between atoms: N_7  and  C_8
REMARK    6  A    between atoms: C_8  and  C_9
REMARK                            x       y       z     vdW  Elec       q    Type
REMARK                         _______ _______ _______ _____ _____    ______ ____
ROOT
ATOM      1  C   UNL     1       2.230   7.826  19.041  0.00  0.00    +0.000 C 
ENDROOT
BRANCH   1   5
ATOM      2  C   UNL     1       5.557   4.266  17.915  0.00  0.00    +0.000 C 
ATOM      3  N   UNL     1       4.413   4.927  18.499  0.00  0.00    +0.000 N 
ATOM      4  C   UNL     1       4.085   6.236  18.279  0.00  0.00    +0.000 A 
ATOM      5  C   UNL     1       2.948   6.520  19.005  0.00  0.00    +0.000 A 
ATOM      6  C   UNL     1       2.577   5.325  19.699  0.00  0.00    +0.000 A 
ATOM      7  C   UNL     1       1.526   4.995  20.582  0.00  0.00    +0.000 A 
ATOM      8  C   UNL     1       1.432   3.694  21.086  0.00  0.00    +0.000 A 
ATOM      9  C   UNL     1       2.362   2.726  20.721  0.00  0.00    +0.000 A 
ATOM     10  C   UNL     1       3.414   3.029  19.850  0.00  0.00    +0.000 A 
ATOM     11  C   UNL     1       3.504   4.339  19.353  0.00  0.00    +0.000 A 
ENDBRANCH   1   5
BRANCH   1  12
ATOM     12  C   UNL     1       2.091   8.462  17.651  0.00  0.00    +0.000 C 
BRANCH  12  13
ATOM     13  N   UNL     1       1.533   9.820  17.675  0.00  0.00    +0.000 NA
ATOM     14  H   UNL     1       0.974   9.977  16.837  0.00  0.00    +0.000 HD
BRANCH  13  15
ATOM     15  C   UNL     1       0.701  10.046  18.856  0.00  0.00    +0.000 C 
BRANCH  15  16
ATOM     16  C   UNL     1      -0.695  10.467  18.474  0.00  0.00    +0.000 A 
ATOM     17  C   UNL     1      -1.346   9.857  17.390  0.00  0.00    +0.000 A 
ATOM     18  C   UNL     1      -2.646  10.231  17.050  0.00  0.00    +0.000 A 
ATOM     19  C   UNL     1      -3.299  11.216  17.791  0.00  0.00    +0.000 A 
ATOM     20 CL   UNL     1      -4.903  11.672  17.371  0.00  0.00    +0.000 Cl
ATOM     21  C   UNL     1      -2.663  11.833  18.866  0.00  0.00    +0.000 A 
ATOM     22  C   UNL     1      -1.362  11.458  19.207  0.00  0.00    +0.000 A 
ENDBRANCH  15  16
ENDBRANCH  13  15
ENDBRANCH  12  13
ENDBRANCH   1  12
TORSDOF 5
ENDMDL
MODEL 3
REMARK VINA RESULT:      -7.2      3.308      7.607
REMARK  Name = 
REMARK  6 active torsions:
REMARK  status: ('A' for Active; 'I' for Inactive)
REMARK    1  A    between atoms: C_1  and  N_2
REMARK    2  A    between atoms: C_4  and  C_5
REMARK    3  A    between atoms: C_5  and  C_6
REMARK    4  A    between atoms: C_6  and  N_7
REMARK    5  A    between atoms: N_7  and  C_8
REMARK    6  A    between atoms: C_8  and  C_9
REMARK                            x       y       z     vdW  Elec       q    Type
REMARK                         _______ _______ _______ _____ _____    ______ ____
ROOT
ATOM      1  C   UNL     1       0.352   9.626  18.056  0.00  0.00    +0.000 C 
ENDROOT
BRANCH   1   5
ATOM      2  C   UNL     1      -1.356  13.726  20.352  0.00  0.00    +0.000 C 
ATOM      3  N   UNL     1      -0.897  12.373  20.142  0.00  0.00    +0.000 N 
ATOM      4  C   UNL     1      -0.513  11.869  18.931  0.00  0.00    +0.000 A 
ATOM      5  C   UNL     1      -0.151  10.551  19.110  0.00  0.00    +0.000 A 
ATOM      6  C   UNL     1      -0.329  10.246  20.496  0.00  0.00    +0.000 A 
ATOM      7  C   UNL     1      -0.132   9.085  21.274  0.00  0.00    +0.000 A 
ATOM      8  C   UNL     1      -0.389   9.122  22.648  0.00  0.00    +0.000 A 
ATOM      9  C   UNL     1      -0.834  10.295  23.251  0.00  0.00    +0.000 A 
ATOM     10  C   UNL     1      -1.040  11.458  22.502  0.00  0.00    +0.000 A 
ATOM     11  C   UNL     1      -0.784  11.410  21.122  0.00  0.00    +0.000 A 
ENDBRANCH   1   5
BRANCH   1  12
ATOM     12  C   UNL     1       1.882   9.651  17.928  0.00  0.00    +0.000 C 
BRANCH  12  13
ATOM     13  N   UNL     1       2.431   8.519  17.173  0.00  0.00    +0.000 NA
ATOM     14  H   UNL     1       2.876   8.857  16.320  0.00  0.00    +0.000 HD
BRANCH  13  15
ATOM     15  C   UNL     1       3.410   7.765  17.956  0.00  0.00    +0.000 C 
BRANCH  15  16
ATOM     16  C   UNL     1       2.780   6.566  18.617  0.00  0.00    +0.000 A 
ATOM     17  C   UNL     1       2.385   6.624  19.962  0.00  0.00    +0.000 A 
ATOM     18  C   UNL     1       1.781   5.522  20.567  0.00  0.00    +0.000 A 
ATOM     19  C   UNL     1       1.572   4.357  19.830  0.00  0.00    +0.000 A 
ATOM     20 CL   UNL     1       0.825   3.000  20.577  0.00  0.00    +0.000 Cl
ATOM     21  C   UNL     1       1.963   4.283  18.495  0.00  0.00    +0.000 A 
ATOM     22  C   UNL     1       2.566   5.387  17.889  0.00  0.00    +0.000 A 
ENDBRANCH  15  16
ENDBRANCH  13  15
ENDBRANCH  12  13
ENDBRANCH   1  12
TORSDOF 5
ENDMDL
MODEL 4
REMARK VINA RESULT:      -7.0      4.303      5.917
REMARK  Name = 
REMARK  6 active torsions:
REMARK  status: ('A' for Active; 'I' for Inactive)
REMARK    1  A    between atoms: C_1  and  N_2
REMARK    2  A    between atoms: C_4  and  C_5
REMARK    3  A    between atoms: C_5  and  C_6
REMARK    4  A    between atoms: C_6  and  N_7
REMARK    5  A    between atoms: N_7  and  C_8
REMARK    6  A    between atoms: C_8  and  C_9
REMARK                            x       y       z     vdW  Elec       q    Type
REMARK                         _______ _______ _______ _____ _____    ______ ____
ROOT
ATOM      1  C   UNL     1       4.489   2.812  19.539  0.00  0.00    +0.000 C 
ENDROOT
BRANCH   1   5
ATOM      2  C   UNL     1       5.194   4.410  14.854  0.00  0.00    +0.000 C 
ATOM      3  N   UNL     1       5.316   4.297  16.289  0.00  0.00    +0.000 N 
ATOM      4  C   UNL     1       4.624   3.399  17.053  0.00  0.00    +0.000 A 
ATOM      5  C   UNL     1       4.986   3.589  18.370  0.00  0.00    +0.000 A 
ATOM      6  C   UNL     1       5.939   4.656  18.399  0.00  0.00    +0.000 A 
ATOM      7  C   UNL     1       6.657   5.296  19.432  0.00  0.00    +0.000 A 
ATOM      8  C   UNL     1       7.553   6.322  19.117  0.00  0.00    +0.000 A 
ATOM      9  C   UNL     1       7.741   6.714  17.795  0.00  0.00    +0.000 A 
ATOM     10  C   UNL     1       7.039   6.098  16.754  0.00  0.00    +0.000 A 
ATOM     11  C   UNL     1       6.138   5.071  17.080  0.00  0.00    +0.000 A 
ENDBRANCH   1   5
BRANCH   1  12
ATOM     12  C   UNL     1       3.142   2.127  19.264  0.00  0.00    +0.000 C 
BRANCH  12  13
ATOM     13  N   UNL     1       2.216   2.163  20.403  0.00  0.00    +0.000 NA
ATOM     14  H   UNL     1       2.711   2.471  21.239  0.00  0.00    +0.000 HD
BRANCH  13  15
ATOM     15  C   UNL     1       1.087   3.060  20.158  0.00  0.00    +0.000 C 
BRANCH  15  16
ATOM     16  C   UNL     1       1.544   4.376  19.584  0.00  0.00    +0.000 A 
ATOM     17  C   UNL     1       2.034   5.385  20.428  0.00  0.00    +0.000 A 
ATOM     18  C   UNL     1       2.478   6.595  19.895  0.00  0.00    +0.000 A 
ATOM     19  C   UNL     1       2.432   6.802  18.517  0.00  0.00    +0.000 A 
ATOM     20 CL   UNL     1       2.983   8.293  17.862  0.00  0.00    +0.000 Cl
ATOM     21  C   UNL     1       1.943   5.811  17.667  0.00  0.00    +0.000 A 
ATOM     22  C   UNL     1       1.500   4.600  18.201  0.00  0.00    +0.000 A 
ENDBRANCH  15  16
ENDBRANCH  13  15
ENDBRANCH  12  13
ENDBRANCH   1  12
TORSDOF 5
ENDMDL
MODEL 5
REMARK VINA RESULT:      -7.0      7.243      8.857
REMARK  Name = 
REMARK  6 active torsions:
REMARK  status: ('A' for Active; 'I' for Inactive)
REMARK    1  A    between atoms: C_1  and  N_2
REMARK    2  A    between atoms: C_4  and  C_5
REMARK    3  A    between atoms: C_5  and  C_6
REMARK    4  A    between atoms: C_6  and  N_7
REMARK    5  A    between atoms: N_7  and  C_8
REMARK    6  A    between atoms: C_8  and  C_9
REMARK                            x       y       z     vdW  Elec       q    Type
REMARK                         _______ _______ _______ _____ _____    ______ ____
ROOT
ATOM      1  C   UNL     1       8.115   7.159  18.519  0.00  0.00    +0.000 C 
ENDROOT
BRANCH   1   5
ATOM      2  C   UNL     1       4.604   3.688  19.314  0.00  0.00    +0.000 C 
ATOM      3  N   UNL     1       5.570   4.520  18.633  0.00  0.00    +0.000 N 
ATOM      4  C   UNL     1       6.326   5.480  19.245  0.00  0.00    +0.000 A 
ATOM      5  C   UNL     1       7.120   6.075  18.288  0.00  0.00    +0.000 A 
ATOM      6  C   UNL     1       6.824   5.443  17.039  0.00  0.00    +0.000 A 
ATOM      7  C   UNL     1       7.301   5.614  15.721  0.00  0.00    +0.000 A 
ATOM      8  C   UNL     1       6.806   4.800  14.697  0.00  0.00    +0.000 A 
ATOM      9  C   UNL     1       5.852   3.825  14.969  0.00  0.00    +0.000 A 
ATOM     10  C   UNL     1       5.361   3.639  16.266  0.00  0.00    +0.000 A 
ATOM     11  C   UNL     1       5.859   4.464  17.287  0.00  0.00    +0.000 A 
ENDBRANCH   1   5
BRANCH   1  12
ATOM     12  C   UNL     1       7.958   8.326  17.534  0.00  0.00    +0.000 C 
BRANCH  12  13
ATOM     13  N   UNL     1       7.989   9.648  18.172  0.00  0.00    +0.000 NA
ATOM     14  H   UNL     1       7.164   9.766  18.759  0.00  0.00    +0.000 HD
BRANCH  13  15
ATOM     15  C   UNL     1       9.189   9.830  18.989  0.00  0.00    +0.000 C 
BRANCH  15  16
ATOM     16  C   UNL     1       9.891  11.121  18.655  0.00  0.00    +0.000 A 
ATOM     17  C   UNL     1      11.197  11.355  19.113  0.00  0.00    +0.000 A 
ATOM     18  C   UNL     1      11.856  12.540  18.784  0.00  0.00    +0.000 A 
ATOM     19  C   UNL     1      11.212  13.495  17.999  0.00  0.00    +0.000 A 
ATOM     20 CL   UNL     1      12.028  14.953  17.594  0.00  0.00    +0.000 Cl
ATOM     21  C   UNL     1       9.914  13.278  17.542  0.00  0.00    +0.000 A 
ATOM     22  C   UNL     1       9.255  12.092  17.869  0.00  0.00    +0.000 A 
ENDBRANCH  15  16
ENDBRANCH  13  15
ENDBRANCH  12  13
ENDBRANCH   1  12
TORSDOF 5
ENDMDL
MODEL 6
REMARK VINA RESULT:      -7.0      3.562      5.214
REMARK  Name = 
REMARK  6 active torsions:
REMARK  status: ('A' for Active; 'I' for Inactive)
REMARK    1  A    between atoms: C_1  and  N_2
REMARK    2  A    between atoms: C_4  and  C_5
REMARK    3  A    between atoms: C_5  and  C_6
REMARK    4  A    between atoms: C_6  and  N_7
REMARK    5  A    between atoms: N_7  and  C_8
REMARK    6  A    between atoms: C_8  and  C_9
REMARK                            x       y       z     vdW  Elec       q    Type
REMARK                         _______ _______ _______ _____ _____    ______ ____
ROOT
ATOM      1  C   UNL     1       3.568   2.835  18.143  0.00  0.00    +0.000 C 
ENDROOT
BRANCH   1   5
ATOM      2  C   UNL     1       7.589   5.663  19.060  0.00  0.00    +0.000 C 
ATOM      3  N   UNL     1       6.574   4.928  18.340  0.00  0.00    +0.000 N 
ATOM      4  C   UNL     1       5.553   4.242  18.935  0.00  0.00    +0.000 A 
ATOM      5  C   UNL     1       4.794   3.658  17.944  0.00  0.00    +0.000 A 
ATOM      6  C   UNL     1       5.390   4.008  16.691  0.00  0.00    +0.000 A 
ATOM      7  C   UNL     1       5.079   3.716  15.346  0.00  0.00    +0.000 A 
ATOM      8  C   UNL     1       5.874   4.242  14.323  0.00  0.00    +0.000 A 
ATOM      9  C   UNL     1       6.966   5.050  14.623  0.00  0.00    +0.000 A 
ATOM     10  C   UNL     1       7.298   5.351  15.948  0.00  0.00    +0.000 A 
ATOM     11  C   UNL     1       6.496   4.815  16.969  0.00  0.00    +0.000 A 
ENDBRANCH   1   5
BRANCH   1  12
ATOM     12  C   UNL     1       3.035   2.908  19.581  0.00  0.00    +0.000 C 
BRANCH  12  13
ATOM     13  N   UNL     1       1.743   3.595  19.699  0.00  0.00    +0.000 NA
ATOM     14  H   UNL     1       1.021   2.927  19.966  0.00  0.00    +0.000 HD
BRANCH  13  15
ATOM     15  C   UNL     1       1.787   4.673  20.686  0.00  0.00    +0.000 C 
BRANCH  15  16
ATOM     16  C   UNL     1       1.871   6.024  20.023  0.00  0.00    +0.000 A 
ATOM     17  C   UNL     1       2.331   6.136  18.702  0.00  0.00    +0.000 A 
ATOM     18  C   UNL     1       2.387   7.384  18.081  0.00  0.00    +0.000 A 
ATOM     19  C   UNL     1       1.985   8.523  18.777  0.00  0.00    +0.000 A 
ATOM     20 CL   UNL     1       2.053  10.059  18.008  0.00  0.00    +0.000 Cl
ATOM     21  C   UNL     1       1.531   8.426  20.091  0.00  0.00    +0.000 A 
ATOM     22  C   UNL     1       1.473   7.178  20.713  0.00  0.00    +0.000 A 
ENDBRANCH  15  16
ENDBRANCH  13  15
ENDBRANCH  12  13
ENDBRANCH   1  12
TORSDOF 5
ENDMDL
MODEL 7
REMARK VINA RESULT:      -7.0      3.413      5.116
REMARK  Name = 
REMARK  6 active torsions:
REMARK  status: ('A' for Active; 'I' for Inactive)
REMARK    1  A    between atoms: C_1  and  N_2
REMARK    2  A    between atoms: C_4  and  C_5
REMARK    3  A    between atoms: C_5  and  C_6
REMARK    4  A    between atoms: C_6  and  N_7
REMARK    5  A    between atoms: N_7  and  C_8
REMARK    6  A    between atoms: C_8  and  C_9
REMARK                            x       y       z     vdW  Elec       q    Type
REMARK                         _______ _______ _______ _____ _____    ______ ____
ROOT
ATOM      1  C   UNL     1       3.512   3.066  17.508  0.00  0.00    +0.000 C 
ENDROOT
BRANCH   1   5
ATOM      2  C   UNL     1       7.694   5.590  18.577  0.00  0.00    +0.000 C 
ATOM      3  N   UNL     1       6.660   4.923  17.820  0.00  0.00    +0.000 N 
ATOM      4  C   UNL     1       5.561   4.329  18.375  0.00  0.00    +0.000 A 
ATOM      5  C   UNL     1       4.806   3.788  17.356  0.00  0.00    +0.000 A 
ATOM      6  C   UNL     1       5.487   4.067  16.129  0.00  0.00    +0.000 A 
ATOM      7  C   UNL     1       5.217   3.776  14.774  0.00  0.00    +0.000 A 
ATOM      8  C   UNL     1       6.099   4.220  13.783  0.00  0.00    +0.000 A 
ATOM      9  C   UNL     1       7.235   4.946  14.124  0.00  0.00    +0.000 A 
ATOM     10  C   UNL     1       7.526   5.245  15.460  0.00  0.00    +0.000 A 
ATOM     11  C   UNL     1       6.638   4.791  16.448  0.00  0.00    +0.000 A 
ENDBRANCH   1   5
BRANCH   1  12
ATOM     12  C   UNL     1       3.099   2.896  18.977  0.00  0.00    +0.000 C 
BRANCH  12  13
ATOM     13  N   UNL     1       1.971   3.747  19.377  0.00  0.00    +0.000 NA
ATOM     14  H   UNL     1       1.227   3.171  19.768  0.00  0.00    +0.000 HD
BRANCH  13  15
ATOM     15  C   UNL     1       2.370   4.751  20.363  0.00  0.00    +0.000 C 
BRANCH  15  16
ATOM     16  C   UNL     1       2.162   6.149  19.840  0.00  0.00    +0.000 A 
ATOM     17  C   UNL     1       1.686   7.159  20.691  0.00  0.00    +0.000 A 
ATOM     18  C   UNL     1       1.515   8.459  20.213  0.00  0.00    +0.000 A 
ATOM     19  C   UNL     1       1.818   8.753  18.884  0.00  0.00    +0.000 A 
ATOM     20 CL   UNL     1       1.609  10.356  18.299  0.00  0.00    +0.000 Cl
ATOM     21  C   UNL     1       2.286   7.758  18.027  0.00  0.00    +0.000 A 
ATOM     22  C   UNL     1       2.459   6.458  18.506  0.00  0.00    +0.000 A 
ENDBRANCH  15  16
ENDBRANCH  13  15
ENDBRANCH  12  13
ENDBRANCH   1  12
TORSDOF 5
ENDMDL
MODEL 8
REMARK VINA RESULT:      -6.9      0.986      1.116
REMARK  Name = 
REMARK  6 active torsions:
REMARK  status: ('A' for Active; 'I' for Inactive)
REMARK    1  A    between atoms: C_1  and  N_2
REMARK    2  A    between atoms: C_4  and  C_5
REMARK    3  A    between atoms: C_5  and  C_6
REMARK    4  A    between atoms: C_6  and  N_7
REMARK    5  A    between atoms: N_7  and  C_8
REMARK    6  A    between atoms: C_8  and  C_9
REMARK                            x       y       z     vdW  Elec       q    Type
REMARK                         _______ _______ _______ _____ _____    ______ ____
ROOT
ATOM      1  C   UNL     1       2.391   7.347  19.678  0.00  0.00    +0.000 C 
ENDROOT
BRANCH   1   5
ATOM      2  C   UNL     1       4.529   4.302  16.337  0.00  0.00    +0.000 C 
ATOM      3  N   UNL     1       3.674   4.771  17.403  0.00  0.00    +0.000 N 
ATOM      4  C   UNL     1       3.668   6.053  17.877  0.00  0.00    +0.000 A 
ATOM      5  C   UNL     1       2.740   6.129  18.894  0.00  0.00    +0.000 A 
ATOM      6  C   UNL     1       2.164   4.828  19.041  0.00  0.00    +0.000 A 
ATOM      7  C   UNL     1       1.181   4.286  19.898  0.00  0.00    +0.000 A 
ATOM      8  C   UNL     1       0.819   2.941  19.770  0.00  0.00    +0.000 A 
ATOM      9  C   UNL     1       1.418   2.138  18.805  0.00  0.00    +0.000 A 
ATOM     10  C   UNL     1       2.397   2.650  17.946  0.00  0.00    +0.000 A 
ATOM     11  C   UNL     1       2.758   4.000  18.085  0.00  0.00    +0.000 A 
ENDBRANCH   1   5
BRANCH   1  12
ATOM     12  C   UNL     1       1.989   8.529  18.785  0.00  0.00    +0.000 C 
BRANCH  12  13
ATOM     13  N   UNL     1       0.828   9.278  19.282  0.00  0.00    +0.000 NA
ATOM     14  H   UNL     1       1.001   9.585  20.238  0.00  0.00    +0.000 HD
BRANCH  13  15
ATOM     15  C   UNL     1       0.535  10.445  18.450  0.00  0.00    +0.000 C 
BRANCH  15  16
ATOM     16  C   UNL     1      -0.947  10.609  18.235  0.00  0.00    +0.000 A 
ATOM     17  C   UNL     1      -1.670  11.554  18.980  0.00  0.00    +0.000 A 
ATOM     18  C   UNL     1      -3.038  11.723  18.765  0.00  0.00    +0.000 A 
ATOM     19  C   UNL     1      -3.689  10.947  17.806  0.00  0.00    +0.000 A 
ATOM     20 CL   UNL     1      -5.374  11.159  17.541  0.00  0.00    +0.000 Cl
ATOM     21  C   UNL     1      -2.984  10.002  17.062  0.00  0.00    +0.000 A 
ATOM     22  C   UNL     1      -1.615   9.834  17.276  0.00  0.00    +0.000 A 
ENDBRANCH  15  16
ENDBRANCH  13  15
ENDBRANCH  12  13
ENDBRANCH   1  12
TORSDOF 5
ENDMDL
MODEL 9
REMARK VINA RESULT:      -6.9      2.759      3.847
REMARK  Name = 
REMARK  6 active torsions:
REMARK  status: ('A' for Active; 'I' for Inactive)
REMARK    1  A    between atoms: C_1  and  N_2
REMARK    2  A    between atoms: C_4  and  C_5
REMARK    3  A    between atoms: C_5  and  C_6
REMARK    4  A    between atoms: C_6  and  N_7
REMARK    5  A    between atoms: N_7  and  C_8
REMARK    6  A    between atoms: C_8  and  C_9
REMARK                            x       y       z     vdW  Elec       q    Type
REMARK                         _______ _______ _______ _____ _____    ______ ____
ROOT
ATOM      1  C   UNL     1       2.532   6.808  19.272  0.00  0.00    +0.000 C 
ENDROOT
BRANCH   1   5
ATOM      2  C   UNL     1       3.337   2.025  18.055  0.00  0.00    +0.000 C 
ATOM      3  N   UNL     1       3.417   3.468  18.041  0.00  0.00    +0.000 N 
ATOM      4  C   UNL     1       2.729   4.285  18.894  0.00  0.00    +0.000 A 
ATOM      5  C   UNL     1       3.042   5.591  18.580  0.00  0.00    +0.000 A 
ATOM      6  C   UNL     1       3.959   5.556  17.483  0.00  0.00    +0.000 A 
ATOM      7  C   UNL     1       4.623   6.552  16.733  0.00  0.00    +0.000 A 
ATOM      8  C   UNL     1       5.495   6.176  15.707  0.00  0.00    +0.000 A 
ATOM      9  C   UNL     1       5.713   4.832  15.422  0.00  0.00    +0.000 A 
ATOM     10  C   UNL     1       5.065   3.827  16.149  0.00  0.00    +0.000 A 
ATOM     11  C   UNL     1       4.187   4.213  17.174  0.00  0.00    +0.000 A 
ENDBRANCH   1   5
BRANCH   1  12
ATOM     12  C   UNL     1       1.827   6.483  20.597  0.00  0.00    +0.000 C 
BRANCH  12  13
ATOM     13  N   UNL     1       1.469   7.670  21.384  0.00  0.00    +0.000 NA
ATOM     14  H   UNL     1       2.251   7.934  21.983  0.00  0.00    +0.000 HD
BRANCH  13  15
ATOM     15  C   UNL     1       1.117   8.803  20.529  0.00  0.00    +0.000 C 
BRANCH  15  16
ATOM     16  C   UNL     1       0.190   9.758  21.237  0.00  0.00    +0.000 A 
ATOM     17  C   UNL     1      -0.167   9.537  22.576  0.00  0.00    +0.000 A 
ATOM     18  C   UNL     1      -1.006  10.433  23.238  0.00  0.00    +0.000 A 
ATOM     19  C   UNL     1      -1.492  11.553  22.564  0.00  0.00    +0.000 A 
ATOM     20 CL   UNL     1      -2.524  12.657  23.383  0.00  0.00    +0.000 Cl
ATOM     21  C   UNL     1      -1.150  11.782  21.233  0.00  0.00    +0.000 A 
ATOM     22  C   UNL     1      -0.309  10.886  20.571  0.00  0.00    +0.000 A 
ENDBRANCH  15  16
ENDBRANCH  13  15
ENDBRANCH  12  13
ENDBRANCH   1  12
TORSDOF 5
ENDMDL
