MODEL 1
REMARK VINA RESULT:      -7.8      0.000      0.000
REMARK  Name = 
REMARK  23 active torsions:
REMARK  status: ('A' for Active; 'I' for Inactive)
REMARK    1  A    between atoms: C_1  and  C_2
REMARK    2  A    between atoms: C_2  and  C_3
REMARK    3  A    between atoms: C_3  and  C_4
REMARK    4  A    between atoms: C_4  and  N_5
REMARK    5  A    between atoms: C_6  and  C_8
REMARK    6  A    between atoms: C_8  and  C_9
REMARK    7  A    between atoms: C_8  and  C_10
REMARK    8  A    between atoms: C_10  and  C_11
REMARK    9  A    between atoms: C_11  and  O_12
REMARK   10  A    between atoms: C_11  and  C_13
REMARK   11  A    between atoms: C_13  and  N_14
REMARK   12  A    between atoms: C_13  and  C_15
REMARK   13  A    between atoms: C_15  and  C_16
REMARK   14  A    between atoms: C_16  and  C_17
REMARK   15  A    between atoms: C_16  and  C_34
REMARK   16  A    between atoms: C_17  and  C_18
REMARK   17  A    between atoms: C_21  and  O_22
REMARK   18  A    between atoms: O_22  and  C_23
REMARK   19  A    between atoms: C_24  and  O_25
REMARK   20  A    between atoms: O_25  and  C_26
REMARK   21  A    between atoms: C_26  and  C_27
REMARK   22  A    between atoms: C_34  and  C_35
REMARK   23  A    between atoms: C_34  and  C_36
REMARK                            x       y       z     vdW  Elec       q    Type
REMARK                         _______ _______ _______ _____ _____    ______ ____
ROOT
ATOM      1  C   UNL     1       2.144   5.260  19.826  0.00  0.00    +0.000 C 
ENDROOT
BRANCH   1   2
ATOM      2  C   UNL     1       1.272   4.305  20.698  0.00  0.00    +0.000 C 
ATOM      3  C   UNL     1       0.564   3.209  19.866  0.00  0.00    +0.000 C 
ATOM      4  C   UNL     1       2.096   3.559  21.756  0.00  0.00    +0.000 C 
ENDBRANCH   1   2
BRANCH   1   5
ATOM      5  C   UNL     1       3.584   4.785  19.437  0.00  0.00    +0.000 C 
BRANCH   5   6
ATOM      6  C   UNL     1       3.951   3.430  18.742  0.00  0.00    +0.000 C 
BRANCH   6   7
ATOM      7  N   UNL     1       5.393   3.254  19.060  0.00  0.00    +0.000 NA
ATOM      8  H   UNL     1       5.720   2.338  18.769  0.00  0.00    +0.000 HD
ATOM      9  H   UNL     1       5.595   3.380  20.048  0.00  0.00    +0.000 HD
ENDBRANCH   6   7
BRANCH   6  10
ATOM     10  C   UNL     1       3.721   3.214  17.183  0.00  0.00    +0.000 C 
BRANCH  10  11
ATOM     11  O   UNL     1       2.326   3.280  16.895  0.00  0.00    +0.000 OA
ATOM     12  H   UNL     1       2.160   2.658  16.167  0.00  0.00    +0.000 HD
ENDBRANCH  10  11
BRANCH  10  13
ATOM     13  C   UNL     1       4.526   4.290  16.359  0.00  0.00    +0.000 C 
BRANCH  13  14
ATOM     14  C   UNL     1       5.818   4.000  15.519  0.00  0.00    +0.000 C 
ATOM     15  C   UNL     1       5.617   4.153  14.013  0.00  0.00    +0.000 C 
BRANCH  14  17
ATOM     16  N   UNL     1       6.862   5.408  17.324  0.00  0.00    +0.000 N 
ATOM     17  C   UNL     1       6.976   4.950  16.016  0.00  0.00    +0.000 C 
ATOM     18  O   UNL     1       7.894   5.284  15.270  0.00  0.00    +0.000 OA
ATOM     19  H   UNL     1       6.001   5.172  17.789  0.00  0.00    +0.000 HD
BRANCH  16  20
ATOM     20  C   UNL     1       7.564   6.562  17.902  0.00  0.00    +0.000 C 
BRANCH  20  21
ATOM     21  C   UNL     1       7.717   7.887  17.132  0.00  0.00    +0.000 C 
BRANCH  21  23
ATOM     22  C   UNL     1       8.941   9.457  18.711  0.00  0.00    +0.000 C 
ATOM     23  C   UNL     1       7.667   9.192  17.933  0.00  0.00    +0.000 C 
ENDBRANCH  21  23
ENDBRANCH  20  21
ENDBRANCH  16  20
ENDBRANCH  14  17
ENDBRANCH  13  14
ENDBRANCH  10  13
ENDBRANCH   6  10
ENDBRANCH   5   6
ENDBRANCH   1   5
BRANCH   1  24
ATOM     24  C   UNL     1       2.240   6.705  20.450  0.00  0.00    +0.000 C 
BRANCH  24  25
ATOM     25  C   UNL     1       1.707   7.955  19.731  0.00  0.00    +0.000 A 
ATOM     26  C   UNL     1       2.168   8.395  18.476  0.00  0.00    +0.000 A 
ATOM     27  C   UNL     1       1.828   9.681  18.009  0.00  0.00    +0.000 A 
ATOM     28  C   UNL     1       1.083  10.595  18.794  0.00  0.00    +0.000 A 
ATOM     29  C   UNL     1       0.649  10.181  20.057  0.00  0.00    +0.000 A 
ATOM     30  C   UNL     1       0.904   8.842  20.453  0.00  0.00    +0.000 A 
BRANCH  28  31
ATOM     31  O   UNL     1       1.110  11.909  18.404  0.00  0.00    +0.000 OA
ATOM     32  C   UNL     1       2.404  12.509  18.473  0.00  0.00    +0.000 C 
ENDBRANCH  28  31
BRANCH  29  33
ATOM     33  O   UNL     1       0.226  10.881  21.138  0.00  0.00    +0.000 OA
BRANCH  33  34
ATOM     34  C   UNL     1      -0.351  12.170  21.264  0.00  0.00    +0.000 C 
BRANCH  34  35
ATOM     35  C   UNL     1      -1.765  12.268  21.785  0.00  0.00    +0.000 A 
ATOM     36  C   UNL     1      -2.008  12.058  23.158  0.00  0.00    +0.000 A 
ATOM     37  C   UNL     1      -3.294  12.210  23.658  0.00  0.00    +0.000 A 
ATOM     38  N   UNL     1      -4.349  12.561  22.902  0.00  0.00    +0.000 NA
ATOM     39  C   UNL     1      -4.107  12.773  21.586  0.00  0.00    +0.000 A 
ATOM     40  C   UNL     1      -2.843  12.657  20.999  0.00  0.00    +0.000 A 
ENDBRANCH  34  35
ENDBRANCH  33  34
ENDBRANCH  29  33
ENDBRANCH  24  25
ENDBRANCH   1  24
TORSDOF 18
ENDMDL
MODEL 2
REMARK VINA RESULT:      -7.4      2.408      4.496
REMARK  Name = 
REMARK  23 active torsions:
REMARK  status: ('A' for Active; 'I' for Inactive)
REMARK    1  A    between atoms: C_1  and  C_2
REMARK    2  A    between atoms: C_2  and  C_3
REMARK    3  A    between atoms: C_3  and  C_4
REMARK    4  A    between atoms: C_4  and  N_5
REMARK    5  A    between atoms: C_6  and  C_8
REMARK    6  A    between atoms: C_8  and  C_9
REMARK    7  A    between atoms: C_8  and  C_10
REMARK    8  A    between atoms: C_10  and  C_11
REMARK    9  A    between atoms: C_11  and  O_12
REMARK   10  A    between atoms: C_11  and  C_13
REMARK   11  A    between atoms: C_13  and  N_14
REMARK   12  A    between atoms: C_13  and  C_15
REMARK   13  A    between atoms: C_15  and  C_16
REMARK   14  A    between atoms: C_16  and  C_17
REMARK   15  A    between atoms: C_16  and  C_34
REMARK   16  A    between atoms: C_17  and  C_18
REMARK   17  A    between atoms: C_21  and  O_22
REMARK   18  A    between atoms: O_22  and  C_23
REMARK   19  A    between atoms: C_24  and  O_25
REMARK   20  A    between atoms: O_25  and  C_26
REMARK   21  A    between atoms: C_26  and  C_27
REMARK   22  A    between atoms: C_34  and  C_35
REMARK   23  A    between atoms: C_34  and  C_36
REMARK                            x       y       z     vdW  Elec       q    Type
REMARK                         _______ _______ _______ _____ _____    ______ ____
ROOT
ATOM      1  C   UNL     1       3.061   5.176  18.321  0.00  0.00    +0.000 C 
ENDROOT
BRANCH   1   2
ATOM      2  C   UNL     1       2.636   3.758  18.813  0.00  0.00    +0.000 C 
ATOM      3  C   UNL     1       1.372   3.785  19.706  0.00  0.00    +0.000 C 
ATOM      4  C   UNL     1       2.308   2.808  17.653  0.00  0.00    +0.000 C 
ENDBRANCH   1   2
BRANCH   1   5
ATOM      5  C   UNL     1       4.284   5.857  19.023  0.00  0.00    +0.000 C 
BRANCH   5   6
ATOM      6  C   UNL     1       5.424   6.663  18.309  0.00  0.00    +0.000 C 
BRANCH   6   7
ATOM      7  N   UNL     1       4.817   7.046  17.007  0.00  0.00    +0.000 NA
ATOM      8  H   UNL     1       4.618   8.042  16.978  0.00  0.00    +0.000 HD
ATOM      9  H   UNL     1       3.963   6.532  16.805  0.00  0.00    +0.000 HD
ENDBRANCH   6   7
BRANCH   6  10
ATOM     10  C   UNL     1       6.856   6.019  18.059  0.00  0.00    +0.000 C 
BRANCH  10  11
ATOM     11  O   UNL     1       6.987   4.833  18.840  0.00  0.00    +0.000 OA
ATOM     12  H   UNL     1       7.834   4.902  19.314  0.00  0.00    +0.000 HD
ENDBRANCH  10  11
BRANCH  10  13
ATOM     13  C   UNL     1       7.056   5.717  16.524  0.00  0.00    +0.000 C 
BRANCH  13  14
ATOM     14  C   UNL     1       6.805   4.330  15.839  0.00  0.00    +0.000 C 
ATOM     15  C   UNL     1       5.502   3.660  16.270  0.00  0.00    +0.000 C 
BRANCH  14  17
ATOM     16  N   UNL     1       6.076   3.610  13.541  0.00  0.00    +0.000 N 
ATOM     17  C   UNL     1       6.830   4.520  14.273  0.00  0.00    +0.000 C 
ATOM     18  O   UNL     1       7.508   5.400  13.746  0.00  0.00    +0.000 OA
ATOM     19  H   UNL     1       5.672   2.858  14.075  0.00  0.00    +0.000 HD
BRANCH  16  20
ATOM     20  C   UNL     1       6.214   3.325  12.106  0.00  0.00    +0.000 C 
BRANCH  20  21
ATOM     21  C   UNL     1       5.103   2.611  11.312  0.00  0.00    +0.000 C 
BRANCH  21  23
ATOM     22  C   UNL     1       3.372   3.831   9.908  0.00  0.00    +0.000 C 
ATOM     23  C   UNL     1       3.718   3.265  11.271  0.00  0.00    +0.000 C 
ENDBRANCH  21  23
ENDBRANCH  20  21
ENDBRANCH  16  20
ENDBRANCH  14  17
ENDBRANCH  13  14
ENDBRANCH  10  13
ENDBRANCH   6  10
ENDBRANCH   5   6
ENDBRANCH   1   5
BRANCH   1  24
ATOM     24  C   UNL     1       1.851   6.188  18.321  0.00  0.00    +0.000 C 
BRANCH  24  25
ATOM     25  C   UNL     1       1.755   7.366  19.304  0.00  0.00    +0.000 A 
ATOM     26  C   UNL     1       1.451   7.226  20.670  0.00  0.00    +0.000 A 
ATOM     27  C   UNL     1       1.120   8.359  21.441  0.00  0.00    +0.000 A 
ATOM     28  C   UNL     1       1.014   9.651  20.873  0.00  0.00    +0.000 A 
ATOM     29  C   UNL     1       1.281   9.797  19.508  0.00  0.00    +0.000 A 
ATOM     30  C   UNL     1       1.726   8.662  18.782  0.00  0.00    +0.000 A 
BRANCH  28  31
ATOM     31  O   UNL     1       0.357  10.599  21.614  0.00  0.00    +0.000 OA
ATOM     32  C   UNL     1      -0.281  10.085  22.783  0.00  0.00    +0.000 C 
ENDBRANCH  28  31
BRANCH  29  33
ATOM     33  O   UNL     1       0.965  10.779  18.629  0.00  0.00    +0.000 OA
BRANCH  33  34
ATOM     34  C   UNL     1      -0.094  11.722  18.604  0.00  0.00    +0.000 C 
BRANCH  34  35
ATOM     35  C   UNL     1      -1.491  11.214  18.336  0.00  0.00    +0.000 A 
ATOM     36  C   UNL     1      -2.593  11.923  18.860  0.00  0.00    +0.000 A 
ATOM     37  C   UNL     1      -3.882  11.501  18.565  0.00  0.00    +0.000 A 
ATOM     38  N   UNL     1      -4.158  10.441  17.787  0.00  0.00    +0.000 NA
ATOM     39  C   UNL     1      -3.096   9.772  17.276  0.00  0.00    +0.000 A 
ATOM     40  C   UNL     1      -1.765  10.132  17.508  0.00  0.00    +0.000 A 
ENDBRANCH  34  35
ENDBRANCH  33  34
ENDBRANCH  29  33
ENDBRANCH  24  25
ENDBRANCH   1  24
TORSDOF 18
ENDMDL
MODEL 3
REMARK VINA RESULT:      -7.1      2.676      4.705
REMARK  Name = 
REMARK  23 active torsions:
REMARK  status: ('A' for Active; 'I' for Inactive)
REMARK    1  A    between atoms: C_1  and  C_2
REMARK    2  A    between atoms: C_2  and  C_3
REMARK    3  A    between atoms: C_3  and  C_4
REMARK    4  A    between atoms: C_4  and  N_5
REMARK    5  A    between atoms: C_6  and  C_8
REMARK    6  A    between atoms: C_8  and  C_9
REMARK    7  A    between atoms: C_8  and  C_10
REMARK    8  A    between atoms: C_10  and  C_11
REMARK    9  A    between atoms: C_11  and  O_12
REMARK   10  A    between atoms: C_11  and  C_13
REMARK   11  A    between atoms: C_13  and  N_14
REMARK   12  A    between atoms: C_13  and  C_15
REMARK   13  A    between atoms: C_15  and  C_16
REMARK   14  A    between atoms: C_16  and  C_17
REMARK   15  A    between atoms: C_16  and  C_34
REMARK   16  A    between atoms: C_17  and  C_18
REMARK   17  A    between atoms: C_21  and  O_22
REMARK   18  A    between atoms: O_22  and  C_23
REMARK   19  A    between atoms: C_24  and  O_25
REMARK   20  A    between atoms: O_25  and  C_26
REMARK   21  A    between atoms: C_26  and  C_27
REMARK   22  A    between atoms: C_34  and  C_35
REMARK   23  A    between atoms: C_34  and  C_36
REMARK                            x       y       z     vdW  Elec       q    Type
REMARK                         _______ _______ _______ _____ _____    ______ ____
ROOT
ATOM      1  C   UNL     1       3.138   5.382  18.359  0.00  0.00    +0.000 C 
ENDROOT
BRANCH   1   2
ATOM      2  C   UNL     1       1.991   4.490  18.925  0.00  0.00    +0.000 C 
ATOM      3  C   UNL     1       1.645   3.297  18.001  0.00  0.00    +0.000 C 
ATOM      4  C   UNL     1       2.341   3.876  20.287  0.00  0.00    +0.000 C 
ENDBRANCH   1   2
BRANCH   1   5
ATOM      5  C   UNL     1       4.473   5.460  19.173  0.00  0.00    +0.000 C 
BRANCH   5   6
ATOM      6  C   UNL     1       5.919   5.503  18.569  0.00  0.00    +0.000 C 
BRANCH   6   7
ATOM      7  N   UNL     1       6.798   5.391  19.762  0.00  0.00    +0.000 NA
ATOM      8  H   UNL     1       7.265   4.489  19.786  0.00  0.00    +0.000 HD
ATOM      9  H   UNL     1       6.296   5.527  20.634  0.00  0.00    +0.000 HD
ENDBRANCH   6   7
BRANCH   6  10
ATOM     10  C   UNL     1       6.400   6.721  17.667  0.00  0.00    +0.000 C 
BRANCH  10  11
ATOM     11  O   UNL     1       7.758   7.031  17.973  0.00  0.00    +0.000 OA
ATOM     12  H   UNL     1       8.197   7.234  17.129  0.00  0.00    +0.000 HD
ENDBRANCH  10  11
BRANCH  10  13
ATOM     13  C   UNL     1       6.224   6.372  16.140  0.00  0.00    +0.000 C 
BRANCH  13  14
ATOM     14  C   UNL     1       6.932   5.184  15.400  0.00  0.00    +0.000 C 
ATOM     15  C   UNL     1       7.572   4.168  16.344  0.00  0.00    +0.000 C 
BRANCH  14  17
ATOM     16  N   UNL     1       6.420   3.631  13.488  0.00  0.00    +0.000 N 
ATOM     17  C   UNL     1       5.886   4.473  14.457  0.00  0.00    +0.000 C 
ATOM     18  O   UNL     1       4.680   4.688  14.561  0.00  0.00    +0.000 OA
ATOM     19  H   UNL     1       7.425   3.638  13.418  0.00  0.00    +0.000 HD
BRANCH  16  20
ATOM     20  C   UNL     1       5.734   3.155  12.280  0.00  0.00    +0.000 C 
BRANCH  20  21
ATOM     21  C   UNL     1       4.361   3.711  11.855  0.00  0.00    +0.000 C 
BRANCH  21  23
ATOM     22  C   UNL     1       3.097   3.980   9.668  0.00  0.00    +0.000 C 
ATOM     23  C   UNL     1       3.629   3.011  10.705  0.00  0.00    +0.000 C 
ENDBRANCH  21  23
ENDBRANCH  20  21
ENDBRANCH  16  20
ENDBRANCH  14  17
ENDBRANCH  13  14
ENDBRANCH  10  13
ENDBRANCH   6  10
ENDBRANCH   5   6
ENDBRANCH   1   5
BRANCH   1  24
ATOM     24  C   UNL     1       2.648   6.849  18.051  0.00  0.00    +0.000 C 
BRANCH  24  25
ATOM     25  C   UNL     1       2.091   7.782  19.138  0.00  0.00    +0.000 A 
ATOM     26  C   UNL     1       1.909   7.403  20.481  0.00  0.00    +0.000 A 
ATOM     27  C   UNL     1       1.154   8.216  21.349  0.00  0.00    +0.000 A 
ATOM     28  C   UNL     1       0.499   9.390  20.904  0.00  0.00    +0.000 A 
ATOM     29  C   UNL     1       0.645   9.759  19.562  0.00  0.00    +0.000 A 
ATOM     30  C   UNL     1       1.507   8.987  18.739  0.00  0.00    +0.000 A 
BRANCH  28  31
ATOM     31  O   UNL     1      -0.475   9.902  21.720  0.00  0.00    +0.000 OA
ATOM     32  C   UNL     1      -0.234   9.699  23.112  0.00  0.00    +0.000 C 
ENDBRANCH  28  31
BRANCH  29  33
ATOM     33  O   UNL     1      -0.077  10.593  18.775  0.00  0.00    +0.000 OA
BRANCH  33  34
ATOM     34  C   UNL     1      -0.776  10.379  17.560  0.00  0.00    +0.000 C 
BRANCH  34  35
ATOM     35  C   UNL     1      -2.199  10.871  17.462  0.00  0.00    +0.000 A 
ATOM     36  C   UNL     1      -2.904  10.705  16.252  0.00  0.00    +0.000 A 
ATOM     37  C   UNL     1      -4.234  11.096  16.173  0.00  0.00    +0.000 A 
ATOM     38  N   UNL     1      -4.915  11.628  17.202  0.00  0.00    +0.000 NA
ATOM     39  C   UNL     1      -4.237  11.774  18.366  0.00  0.00    +0.000 A 
ATOM     40  C   UNL     1      -2.901  11.396  18.541  0.00  0.00    +0.000 A 
ENDBRANCH  34  35
ENDBRANCH  33  34
ENDBRANCH  29  33
ENDBRANCH  24  25
ENDBRANCH   1  24
TORSDOF 18
ENDMDL
MODEL 4
REMARK VINA RESULT:      -7.0      2.508      4.568
REMARK  Name = 
REMARK  23 active torsions:
REMARK  status: ('A' for Active; 'I' for Inactive)
REMARK    1  A    between atoms: C_1  and  C_2
REMARK    2  A    between atoms: C_2  and  C_3
REMARK    3  A    between atoms: C_3  and  C_4
REMARK    4  A    between atoms: C_4  and  N_5
REMARK    5  A    between atoms: C_6  and  C_8
REMARK    6  A    between atoms: C_8  and  C_9
REMARK    7  A    between atoms: C_8  and  C_10
REMARK    8  A    between atoms: C_10  and  C_11
REMARK    9  A    between atoms: C_11  and  O_12
REMARK   10  A    between atoms: C_11  and  C_13
REMARK   11  A    between atoms: C_13  and  N_14
REMARK   12  A    between atoms: C_13  and  C_15
REMARK   13  A    between atoms: C_15  and  C_16
REMARK   14  A    between atoms: C_16  and  C_17
REMARK   15  A    between atoms: C_16  and  C_34
REMARK   16  A    between atoms: C_17  and  C_18
REMARK   17  A    between atoms: C_21  and  O_22
REMARK   18  A    between atoms: O_22  and  C_23
REMARK   19  A    between atoms: C_24  and  O_25
REMARK   20  A    between atoms: O_25  and  C_26
REMARK   21  A    between atoms: C_26  and  C_27
REMARK   22  A    between atoms: C_34  and  C_35
REMARK   23  A    between atoms: C_34  and  C_36
REMARK                            x       y       z     vdW  Elec       q    Type
REMARK                         _______ _______ _______ _____ _____    ______ ____
ROOT
ATOM      1  C   UNL     1       2.233   7.501  19.963  0.00  0.00    +0.000 C 
ENDROOT
BRANCH   1   2
ATOM      2  C   UNL     1       2.490   8.140  18.564  0.00  0.00    +0.000 C 
ATOM      3  C   UNL     1       3.414   7.278  17.670  0.00  0.00    +0.000 C 
ATOM      4  C   UNL     1       1.197   8.336  17.761  0.00  0.00    +0.000 C 
ENDBRANCH   1   2
BRANCH   1   5
ATOM      5  C   UNL     1       2.556   5.980  20.144  0.00  0.00    +0.000 C 
BRANCH   5   6
ATOM      6  C   UNL     1       1.506   4.823  20.264  0.00  0.00    +0.000 C 
BRANCH   6   7
ATOM      7  N   UNL     1       1.928   4.096  21.491  0.00  0.00    +0.000 NA
ATOM      8  H   UNL     1       2.366   3.211  21.255  0.00  0.00    +0.000 HD
ATOM      9  H   UNL     1       1.157   3.925  22.130  0.00  0.00    +0.000 HD
ENDBRANCH   6   7
BRANCH   6  10
ATOM     10  C   UNL     1       1.284   3.785  19.081  0.00  0.00    +0.000 C 
BRANCH  10  11
ATOM     11  O   UNL     1       1.221   4.485  17.840  0.00  0.00    +0.000 OA
ATOM     12  H   UNL     1       2.134   4.571  17.520  0.00  0.00    +0.000 HD
ENDBRANCH  10  11
BRANCH  10  13
ATOM     13  C   UNL     1       2.439   2.712  19.073  0.00  0.00    +0.000 C 
BRANCH  13  14
ATOM     14  C   UNL     1       3.965   3.031  19.243  0.00  0.00    +0.000 C 
ATOM     15  C   UNL     1       4.799   1.825  19.672  0.00  0.00    +0.000 C 
BRANCH  14  17
ATOM     16  N   UNL     1       5.879   3.907  17.866  0.00  0.00    +0.000 N 
ATOM     17  C   UNL     1       4.518   3.625  17.891  0.00  0.00    +0.000 C 
ATOM     18  O   UNL     1       3.772   3.854  16.940  0.00  0.00    +0.000 OA
ATOM     19  H   UNL     1       6.357   3.800  18.745  0.00  0.00    +0.000 HD
BRANCH  16  20
ATOM     20  C   UNL     1       6.565   4.786  16.909  0.00  0.00    +0.000 C 
BRANCH  20  21
ATOM     21  C   UNL     1       6.916   4.315  15.485  0.00  0.00    +0.000 C 
BRANCH  21  23
ATOM     22  C   UNL     1       6.231   3.721  13.111  0.00  0.00    +0.000 C 
ATOM     23  C   UNL     1       5.810   4.350  14.425  0.00  0.00    +0.000 C 
ENDBRANCH  21  23
ENDBRANCH  20  21
ENDBRANCH  16  20
ENDBRANCH  14  17
ENDBRANCH  13  14
ENDBRANCH  10  13
ENDBRANCH   6  10
ENDBRANCH   5   6
ENDBRANCH   1   5
BRANCH   1  24
ATOM     24  C   UNL     1       0.765   7.769  20.473  0.00  0.00    +0.000 C 
BRANCH  24  25
ATOM     25  C   UNL     1       0.380   9.025  21.273  0.00  0.00    +0.000 A 
ATOM     26  C   UNL     1       0.042   9.012  22.639  0.00  0.00    +0.000 A 
ATOM     27  C   UNL     1      -0.551  10.145  23.231  0.00  0.00    +0.000 A 
ATOM     28  C   UNL     1      -0.891  11.297  22.481  0.00  0.00    +0.000 A 
ATOM     29  C   UNL     1      -0.591  11.307  21.114  0.00  0.00    +0.000 A 
ATOM     30  C   UNL     1       0.113  10.202  20.569  0.00  0.00    +0.000 A 
BRANCH  28  31
ATOM     31  O   UNL     1      -1.764  12.178  23.063  0.00  0.00    +0.000 OA
ATOM     32  C   UNL     1      -1.226  13.486  23.258  0.00  0.00    +0.000 C 
ENDBRANCH  28  31
BRANCH  29  33
ATOM     33  O   UNL     1      -1.057  12.071  20.096  0.00  0.00    +0.000 OA
BRANCH  33  34
ATOM     34  C   UNL     1      -2.366  12.284  19.595  0.00  0.00    +0.000 C 
BRANCH  34  35
ATOM     35  C   UNL     1      -2.771  11.556  18.336  0.00  0.00    +0.000 A 
ATOM     36  C   UNL     1      -4.062  11.763  17.807  0.00  0.00    +0.000 A 
ATOM     37  C   UNL     1      -4.421  11.148  16.614  0.00  0.00    +0.000 A 
ATOM     38  N   UNL     1      -3.596  10.356  15.908  0.00  0.00    +0.000 NA
ATOM     39  C   UNL     1      -2.353  10.171  16.414  0.00  0.00    +0.000 A 
ATOM     40  C   UNL     1      -1.901  10.760  17.600  0.00  0.00    +0.000 A 
ENDBRANCH  34  35
ENDBRANCH  33  34
ENDBRANCH  29  33
ENDBRANCH  24  25
ENDBRANCH   1  24
TORSDOF 18
ENDMDL
MODEL 5
REMARK VINA RESULT:      -7.0      1.724      3.372
REMARK  Name = 
REMARK  23 active torsions:
REMARK  status: ('A' for Active; 'I' for Inactive)
REMARK    1  A    between atoms: C_1  and  C_2
REMARK    2  A    between atoms: C_2  and  C_3
REMARK    3  A    between atoms: C_3  and  C_4
REMARK    4  A    between atoms: C_4  and  N_5
REMARK    5  A    between atoms: C_6  and  C_8
REMARK    6  A    between atoms: C_8  and  C_9
REMARK    7  A    between atoms: C_8  and  C_10
REMARK    8  A    between atoms: C_10  and  C_11
REMARK    9  A    between atoms: C_11  and  O_12
REMARK   10  A    between atoms: C_11  and  C_13
REMARK   11  A    between atoms: C_13  and  N_14
REMARK   12  A    between atoms: C_13  and  C_15
REMARK   13  A    between atoms: C_15  and  C_16
REMARK   14  A    between atoms: C_16  and  C_17
REMARK   15  A    between atoms: C_16  and  C_34
REMARK   16  A    between atoms: C_17  and  C_18
REMARK   17  A    between atoms: C_21  and  O_22
REMARK   18  A    between atoms: O_22  and  C_23
REMARK   19  A    between atoms: C_24  and  O_25
REMARK   20  A    between atoms: O_25  and  C_26
REMARK   21  A    between atoms: C_26  and  C_27
REMARK   22  A    between atoms: C_34  and  C_35
REMARK   23  A    between atoms: C_34  and  C_36
REMARK                            x       y       z     vdW  Elec       q    Type
REMARK                         _______ _______ _______ _____ _____    ______ ____
ROOT
ATOM      1  C   UNL     1       2.685   5.777  19.373  0.00  0.00    +0.000 C 
ENDROOT
BRANCH   1   2
ATOM      2  C   UNL     1       2.005   4.375  19.316  0.00  0.00    +0.000 C 
ATOM      3  C   UNL     1       0.847   4.226  20.332  0.00  0.00    +0.000 C 
ATOM      4  C   UNL     1       1.395   4.073  17.940  0.00  0.00    +0.000 C 
ENDBRANCH   1   2
BRANCH   1   5
ATOM      5  C   UNL     1       4.237   5.830  19.567  0.00  0.00    +0.000 C 
BRANCH   5   6
ATOM      6  C   UNL     1       5.236   4.646  19.331  0.00  0.00    +0.000 C 
BRANCH   6   7
ATOM      7  N   UNL     1       6.524   5.166  19.861  0.00  0.00    +0.000 NA
ATOM      8  H   UNL     1       6.545   5.120  20.876  0.00  0.00    +0.000 HD
ATOM      9  H   UNL     1       6.712   6.121  19.569  0.00  0.00    +0.000 HD
ENDBRANCH   6   7
BRANCH   6  10
ATOM     10  C   UNL     1       5.466   4.037  17.880  0.00  0.00    +0.000 C 
BRANCH  10  11
ATOM     11  O   UNL     1       4.722   2.828  17.749  0.00  0.00    +0.000 OA
ATOM     12  H   UNL     1       5.157   2.168  18.316  0.00  0.00    +0.000 HD
ENDBRANCH  10  11
BRANCH  10  13
ATOM     13  C   UNL     1       5.051   5.086  16.778  0.00  0.00    +0.000 C 
BRANCH  13  14
ATOM     14  C   UNL     1       6.043   6.030  16.015  0.00  0.00    +0.000 C 
ATOM     15  C   UNL     1       7.178   6.561  16.888  0.00  0.00    +0.000 C 
BRANCH  14  17
ATOM     16  N   UNL     1       5.831   4.237  14.264  0.00  0.00    +0.000 N 
ATOM     17  C   UNL     1       6.626   5.260  14.768  0.00  0.00    +0.000 C 
ATOM     18  O   UNL     1       7.732   5.534  14.306  0.00  0.00    +0.000 OA
ATOM     19  H   UNL     1       5.011   4.022  14.806  0.00  0.00    +0.000 HD
BRANCH  16  20
ATOM     20  C   UNL     1       6.275   3.148  13.383  0.00  0.00    +0.000 C 
BRANCH  20  21
ATOM     21  C   UNL     1       6.433   3.349  11.863  0.00  0.00    +0.000 C 
BRANCH  21  23
ATOM     22  C   UNL     1       3.915   3.281  11.527  0.00  0.00    +0.000 C 
ATOM     23  C   UNL     1       5.273   2.919  10.959  0.00  0.00    +0.000 C 
ENDBRANCH  21  23
ENDBRANCH  20  21
ENDBRANCH  16  20
ENDBRANCH  14  17
ENDBRANCH  13  14
ENDBRANCH  10  13
ENDBRANCH   6  10
ENDBRANCH   5   6
ENDBRANCH   1   5
BRANCH   1  24
ATOM     24  C   UNL     1       2.009   6.717  20.445  0.00  0.00    +0.000 C 
BRANCH  24  25
ATOM     25  C   UNL     1       1.395   8.079  20.084  0.00  0.00    +0.000 A 
ATOM     26  C   UNL     1       1.639   8.754  18.874  0.00  0.00    +0.000 A 
ATOM     27  C   UNL     1       1.260  10.104  18.728  0.00  0.00    +0.000 A 
ATOM     28  C   UNL     1       0.692  10.846  19.792  0.00  0.00    +0.000 A 
ATOM     29  C   UNL     1       0.476  10.194  21.010  0.00  0.00    +0.000 A 
ATOM     30  C   UNL     1       0.757   8.805  21.093  0.00  0.00    +0.000 A 
BRANCH  28  31
ATOM     31  O   UNL     1       0.688  12.210  19.661  0.00  0.00    +0.000 OA
ATOM     32  C   UNL     1       1.845  12.850  20.199  0.00  0.00    +0.000 C 
ENDBRANCH  28  31
BRANCH  29  33
ATOM     33  O   UNL     1       0.270  10.671  22.262  0.00  0.00    +0.000 OA
BRANCH  33  34
ATOM     34  C   UNL     1      -0.915  11.006  22.965  0.00  0.00    +0.000 C 
BRANCH  34  35
ATOM     35  C   UNL     1      -1.587  12.319  22.641  0.00  0.00    +0.000 A 
ATOM     36  C   UNL     1      -1.319  13.446  23.445  0.00  0.00    +0.000 A 
ATOM     37  C   UNL     1      -1.881  14.672  23.116  0.00  0.00    +0.000 A 
ATOM     38  N   UNL     1      -2.676  14.863  22.050  0.00  0.00    +0.000 NA
ATOM     39  C   UNL     1      -2.920  13.780  21.273  0.00  0.00    +0.000 A 
ATOM     40  C   UNL     1      -2.386  12.511  21.520  0.00  0.00    +0.000 A 
ENDBRANCH  34  35
ENDBRANCH  33  34
ENDBRANCH  29  33
ENDBRANCH  24  25
ENDBRANCH   1  24
TORSDOF 18
ENDMDL
MODEL 6
REMARK VINA RESULT:      -7.0      1.752      3.349
REMARK  Name = 
REMARK  23 active torsions:
REMARK  status: ('A' for Active; 'I' for Inactive)
REMARK    1  A    between atoms: C_1  and  C_2
REMARK    2  A    between atoms: C_2  and  C_3
REMARK    3  A    between atoms: C_3  and  C_4
REMARK    4  A    between atoms: C_4  and  N_5
REMARK    5  A    between atoms: C_6  and  C_8
REMARK    6  A    between atoms: C_8  and  C_9
REMARK    7  A    between atoms: C_8  and  C_10
REMARK    8  A    between atoms: C_10  and  C_11
REMARK    9  A    between atoms: C_11  and  O_12
REMARK   10  A    between atoms: C_11  and  C_13
REMARK   11  A    between atoms: C_13  and  N_14
REMARK   12  A    between atoms: C_13  and  C_15
REMARK   13  A    between atoms: C_15  and  C_16
REMARK   14  A    between atoms: C_16  and  C_17
REMARK   15  A    between atoms: C_16  and  C_34
REMARK   16  A    between atoms: C_17  and  C_18
REMARK   17  A    between atoms: C_21  and  O_22
REMARK   18  A    between atoms: O_22  and  C_23
REMARK   19  A    between atoms: C_24  and  O_25
REMARK   20  A    between atoms: O_25  and  C_26
REMARK   21  A    between atoms: C_26  and  C_27
REMARK   22  A    between atoms: C_34  and  C_35
REMARK   23  A    between atoms: C_34  and  C_36
REMARK                            x       y       z     vdW  Elec       q    Type
REMARK                         _______ _______ _______ _____ _____    ______ ____
ROOT
ATOM      1  C   UNL     1       1.866   4.884  19.775  0.00  0.00    +0.000 C 
ENDROOT
BRANCH   1   2
ATOM      2  C   UNL     1       2.558   3.716  20.543  0.00  0.00    +0.000 C 
ATOM      3  C   UNL     1       2.126   3.634  22.027  0.00  0.00    +0.000 C 
ATOM      4  C   UNL     1       2.237   2.343  19.938  0.00  0.00    +0.000 C 
ENDBRANCH   1   2
BRANCH   1   5
ATOM      5  C   UNL     1       1.705   4.745  18.224  0.00  0.00    +0.000 C 
BRANCH   5   6
ATOM      6  C   UNL     1       2.855   4.452  17.201  0.00  0.00    +0.000 C 
BRANCH   6   7
ATOM      7  N   UNL     1       2.573   3.064  16.748  0.00  0.00    +0.000 NA
ATOM      8  H   UNL     1       1.591   2.950  16.514  0.00  0.00    +0.000 HD
ATOM      9  H   UNL     1       2.833   2.365  17.438  0.00  0.00    +0.000 HD
ENDBRANCH   6   7
BRANCH   6  10
ATOM     10  C   UNL     1       4.384   4.572  17.621  0.00  0.00    +0.000 C 
BRANCH  10  11
ATOM     11  O   UNL     1       5.122   3.498  17.043  0.00  0.00    +0.000 OA
ATOM     12  H   UNL     1       5.452   3.814  16.184  0.00  0.00    +0.000 HD
ENDBRANCH  10  11
BRANCH  10  13
ATOM     13  C   UNL     1       4.963   5.969  17.175  0.00  0.00    +0.000 C 
BRANCH  13  14
ATOM     14  C   UNL     1       6.480   6.276  16.921  0.00  0.00    +0.000 C 
ATOM     15  C   UNL     1       7.320   6.315  18.196  0.00  0.00    +0.000 C 
BRANCH  14  17
ATOM     16  N   UNL     1       6.473   5.179  14.657  0.00  0.00    +0.000 N 
ATOM     17  C   UNL     1       7.058   5.204  15.918  0.00  0.00    +0.000 C 
ATOM     18  O   UNL     1       7.943   4.422  16.257  0.00  0.00    +0.000 OA
ATOM     19  H   UNL     1       5.671   5.778  14.542  0.00  0.00    +0.000 HD
BRANCH  16  20
ATOM     20  C   UNL     1       6.547   4.078  13.688  0.00  0.00    +0.000 C 
BRANCH  20  21
ATOM     21  C   UNL     1       5.358   3.719  12.776  0.00  0.00    +0.000 C 
BRANCH  21  23
ATOM     22  C   UNL     1       7.001   2.341  11.413  0.00  0.00    +0.000 C 
ATOM     23  C   UNL     1       5.546   2.584  11.765  0.00  0.00    +0.000 C 
ENDBRANCH  21  23
ENDBRANCH  20  21
ENDBRANCH  16  20
ENDBRANCH  14  17
ENDBRANCH  13  14
ENDBRANCH  10  13
ENDBRANCH   6  10
ENDBRANCH   5   6
ENDBRANCH   1   5
BRANCH   1  24
ATOM     24  C   UNL     1       2.537   6.276  20.090  0.00  0.00    +0.000 C 
BRANCH  24  25
ATOM     25  C   UNL     1       1.865   7.616  19.750  0.00  0.00    +0.000 A 
ATOM     26  C   UNL     1       2.062   8.308  18.540  0.00  0.00    +0.000 A 
ATOM     27  C   UNL     1       1.629   9.643  18.412  0.00  0.00    +0.000 A 
ATOM     28  C   UNL     1       1.054  10.357  19.491  0.00  0.00    +0.000 A 
ATOM     29  C   UNL     1       0.886   9.690  20.708  0.00  0.00    +0.000 A 
ATOM     30  C   UNL     1       1.220   8.312  20.776  0.00  0.00    +0.000 A 
BRANCH  28  31
ATOM     31  O   UNL     1       0.997  11.720  19.369  0.00  0.00    +0.000 OA
ATOM     32  C   UNL     1      -0.041  12.185  18.507  0.00  0.00    +0.000 C 
ENDBRANCH  28  31
BRANCH  29  33
ATOM     33  O   UNL     1       0.687  10.151  21.967  0.00  0.00    +0.000 OA
BRANCH  33  34
ATOM     34  C   UNL     1      -0.469  10.647  22.622  0.00  0.00    +0.000 C 
BRANCH  34  35
ATOM     35  C   UNL     1      -1.075  11.935  22.117  0.00  0.00    +0.000 A 
ATOM     36  C   UNL     1      -0.366  13.142  22.289  0.00  0.00    +0.000 A 
ATOM     37  C   UNL     1      -0.884  14.321  21.771  0.00  0.00    +0.000 A 
ATOM     38  N   UNL     1      -2.042  14.389  21.092  0.00  0.00    +0.000 NA
ATOM     39  C   UNL     1      -2.712  13.225  20.918  0.00  0.00    +0.000 A 
ATOM     40  C   UNL     1      -2.260  11.989  21.393  0.00  0.00    +0.000 A 
ENDBRANCH  34  35
ENDBRANCH  33  34
ENDBRANCH  29  33
ENDBRANCH  24  25
ENDBRANCH   1  24
TORSDOF 18
ENDMDL
MODEL 7
REMARK VINA RESULT:      -7.0      1.756      3.049
REMARK  Name = 
REMARK  23 active torsions:
REMARK  status: ('A' for Active; 'I' for Inactive)
REMARK    1  A    between atoms: C_1  and  C_2
REMARK    2  A    between atoms: C_2  and  C_3
REMARK    3  A    between atoms: C_3  and  C_4
REMARK    4  A    between atoms: C_4  and  N_5
REMARK    5  A    between atoms: C_6  and  C_8
REMARK    6  A    between atoms: C_8  and  C_9
REMARK    7  A    between atoms: C_8  and  C_10
REMARK    8  A    between atoms: C_10  and  C_11
REMARK    9  A    between atoms: C_11  and  O_12
REMARK   10  A    between atoms: C_11  and  C_13
REMARK   11  A    between atoms: C_13  and  N_14
REMARK   12  A    between atoms: C_13  and  C_15
REMARK   13  A    between atoms: C_15  and  C_16
REMARK   14  A    between atoms: C_16  and  C_17
REMARK   15  A    between atoms: C_16  and  C_34
REMARK   16  A    between atoms: C_17  and  C_18
REMARK   17  A    between atoms: C_21  and  O_22
REMARK   18  A    between atoms: O_22  and  C_23
REMARK   19  A    between atoms: C_24  and  O_25
REMARK   20  A    between atoms: O_25  and  C_26
REMARK   21  A    between atoms: C_26  and  C_27
REMARK   22  A    between atoms: C_34  and  C_35
REMARK   23  A    between atoms: C_34  and  C_36
REMARK                            x       y       z     vdW  Elec       q    Type
REMARK                         _______ _______ _______ _____ _____    ______ ____
ROOT
ATOM      1  C   UNL     1       1.289   5.235  19.788  0.00  0.00    +0.000 C 
ENDROOT
BRANCH   1   2
ATOM      2  C   UNL     1       1.177   4.004  20.739  0.00  0.00    +0.000 C 
ATOM      3  C   UNL     1       0.973   2.672  19.977  0.00  0.00    +0.000 C 
ATOM      4  C   UNL     1       2.435   3.807  21.596  0.00  0.00    +0.000 C 
ENDBRANCH   1   2
BRANCH   1   5
ATOM      5  C   UNL     1       2.093   5.060  18.455  0.00  0.00    +0.000 C 
BRANCH   5   6
ATOM      6  C   UNL     1       3.641   5.237  18.283  0.00  0.00    +0.000 C 
BRANCH   6   7
ATOM      7  N   UNL     1       3.757   6.348  17.303  0.00  0.00    +0.000 NA
ATOM      8  H   UNL     1       2.938   6.392  16.704  0.00  0.00    +0.000 HD
ATOM      9  H   UNL     1       4.588   6.274  16.722  0.00  0.00    +0.000 HD
ENDBRANCH   6   7
BRANCH   6  10
ATOM     10  C   UNL     1       4.564   4.025  17.825  0.00  0.00    +0.000 C 
BRANCH  10  11
ATOM     11  O   UNL     1       4.440   3.840  16.417  0.00  0.00    +0.000 OA
ATOM     12  H   UNL     1       4.958   3.049  16.191  0.00  0.00    +0.000 HD
ENDBRANCH  10  11
BRANCH  10  13
ATOM     13  C   UNL     1       6.061   4.295  18.237  0.00  0.00    +0.000 C 
BRANCH  13  14
ATOM     14  C   UNL     1       6.734   5.710  18.312  0.00  0.00    +0.000 C 
ATOM     15  C   UNL     1       7.899   5.784  19.297  0.00  0.00    +0.000 C 
BRANCH  14  17
ATOM     16  N   UNL     1       7.031   5.172  15.873  0.00  0.00    +0.000 N 
ATOM     17  C   UNL     1       7.211   6.126  16.867  0.00  0.00    +0.000 C 
ATOM     18  O   UNL     1       7.742   7.215  16.657  0.00  0.00    +0.000 OA
ATOM     19  H   UNL     1       6.708   4.273  16.191  0.00  0.00    +0.000 HD
BRANCH  16  20
ATOM     20  C   UNL     1       7.703   5.142  14.566  0.00  0.00    +0.000 C 
BRANCH  20  21
ATOM     21  C   UNL     1       6.958   4.735  13.281  0.00  0.00    +0.000 C 
BRANCH  21  23
ATOM     22  C   UNL     1       5.266   3.294  12.049  0.00  0.00    +0.000 C 
ATOM     23  C   UNL     1       5.917   3.615  13.380  0.00  0.00    +0.000 C 
ENDBRANCH  21  23
ENDBRANCH  20  21
ENDBRANCH  16  20
ENDBRANCH  14  17
ENDBRANCH  13  14
ENDBRANCH  10  13
ENDBRANCH   6  10
ENDBRANCH   5   6
ENDBRANCH   1   5
BRANCH   1  24
ATOM     24  C   UNL     1       1.829   6.513  20.538  0.00  0.00    +0.000 C 
BRANCH  24  25
ATOM     25  C   UNL     1       1.333   7.933  20.220  0.00  0.00    +0.000 A 
ATOM     26  C   UNL     1       1.702   8.654  19.069  0.00  0.00    +0.000 A 
ATOM     27  C   UNL     1       1.425  10.033  18.980  0.00  0.00    +0.000 A 
ATOM     28  C   UNL     1       0.840  10.755  20.048  0.00  0.00    +0.000 A 
ATOM     29  C   UNL     1       0.500  10.055  21.211  0.00  0.00    +0.000 A 
ATOM     30  C   UNL     1       0.681   8.647  21.229  0.00  0.00    +0.000 A 
BRANCH  28  31
ATOM     31  O   UNL     1       0.937  12.120  19.998  0.00  0.00    +0.000 OA
ATOM     32  C   UNL     1      -0.070  12.746  19.201  0.00  0.00    +0.000 C 
ENDBRANCH  28  31
BRANCH  29  33
ATOM     33  O   UNL     1       0.246  10.477  22.473  0.00  0.00    +0.000 OA
BRANCH  33  34
ATOM     34  C   UNL     1      -0.969  10.696  23.171  0.00  0.00    +0.000 C 
BRANCH  34  35
ATOM     35  C   UNL     1      -1.625  12.050  23.049  0.00  0.00    +0.000 A 
ATOM     36  C   UNL     1      -3.009  12.169  23.290  0.00  0.00    +0.000 A 
ATOM     37  C   UNL     1      -3.609  13.420  23.243  0.00  0.00    +0.000 A 
ATOM     38  N   UNL     1      -2.939  14.556  22.985  0.00  0.00    +0.000 NA
ATOM     39  C   UNL     1      -1.607  14.438  22.766  0.00  0.00    +0.000 A 
ATOM     40  C   UNL     1      -0.917  13.222  22.807  0.00  0.00    +0.000 A 
ENDBRANCH  34  35
ENDBRANCH  33  34
ENDBRANCH  29  33
ENDBRANCH  24  25
ENDBRANCH   1  24
TORSDOF 18
ENDMDL
MODEL 8
REMARK VINA RESULT:      -6.9      2.126      4.018
REMARK  Name = 
REMARK  23 active torsions:
REMARK  status: ('A' for Active; 'I' for Inactive)
REMARK    1  A    between atoms: C_1  and  C_2
REMARK    2  A    between atoms: C_2  and  C_3
REMARK    3  A    between atoms: C_3  and  C_4
REMARK    4  A    between atoms: C_4  and  N_5
REMARK    5  A    between atoms: C_6  and  C_8
REMARK    6  A    between atoms: C_8  and  C_9
REMARK    7  A    between atoms: C_8  and  C_10
REMARK    8  A    between atoms: C_10  and  C_11
REMARK    9  A    between atoms: C_11  and  O_12
REMARK   10  A    between atoms: C_11  and  C_13
REMARK   11  A    between atoms: C_13  and  N_14
REMARK   12  A    between atoms: C_13  and  C_15
REMARK   13  A    between atoms: C_15  and  C_16
REMARK   14  A    between atoms: C_16  and  C_17
REMARK   15  A    between atoms: C_16  and  C_34
REMARK   16  A    between atoms: C_17  and  C_18
REMARK   17  A    between atoms: C_21  and  O_22
REMARK   18  A    between atoms: O_22  and  C_23
REMARK   19  A    between atoms: C_24  and  O_25
REMARK   20  A    between atoms: O_25  and  C_26
REMARK   21  A    between atoms: C_26  and  C_27
REMARK   22  A    between atoms: C_34  and  C_35
REMARK   23  A    between atoms: C_34  and  C_36
REMARK                            x       y       z     vdW  Elec       q    Type
REMARK                         _______ _______ _______ _____ _____    ______ ____
ROOT
ATOM      1  C   UNL     1       1.791   4.909  19.296  0.00  0.00    +0.000 C 
ENDROOT
BRANCH   1   2
ATOM      2  C   UNL     1       1.939   3.566  20.074  0.00  0.00    +0.000 C 
ATOM      3  C   UNL     1       2.142   3.771  21.594  0.00  0.00    +0.000 C 
ATOM      4  C   UNL     1       0.703   2.667  19.935  0.00  0.00    +0.000 C 
ENDBRANCH   1   2
BRANCH   1   5
ATOM      5  C   UNL     1       2.227   4.937  17.793  0.00  0.00    +0.000 C 
BRANCH   5   6
ATOM      6  C   UNL     1       3.700   4.865  17.260  0.00  0.00    +0.000 C 
BRANCH   6   7
ATOM      7  N   UNL     1       4.364   3.924  18.199  0.00  0.00    +0.000 NA
ATOM      8  H   UNL     1       4.490   4.349  19.113  0.00  0.00    +0.000 HD
ATOM      9  H   UNL     1       5.265   3.600  17.858  0.00  0.00    +0.000 HD
ENDBRANCH   6   7
BRANCH   6  10
ATOM     10  C   UNL     1       4.586   6.176  17.106  0.00  0.00    +0.000 C 
BRANCH  10  11
ATOM     11  O   UNL     1       3.740   7.324  17.108  0.00  0.00    +0.000 OA
ATOM     12  H   UNL     1       3.000   7.128  16.508  0.00  0.00    +0.000 HD
ENDBRANCH  10  11
BRANCH  10  13
ATOM     13  C   UNL     1       5.652   6.252  18.265  0.00  0.00    +0.000 C 
BRANCH  13  14
ATOM     14  C   UNL     1       7.207   6.209  18.063  0.00  0.00    +0.000 C 
ATOM     15  C   UNL     1       7.976   5.775  19.309  0.00  0.00    +0.000 C 
BRANCH  14  17
ATOM     16  N   UNL     1       7.295   5.769  15.587  0.00  0.00    +0.000 N 
ATOM     17  C   UNL     1       7.539   5.251  16.854  0.00  0.00    +0.000 C 
ATOM     18  O   UNL     1       7.952   4.108  17.038  0.00  0.00    +0.000 OA
ATOM     19  H   UNL     1       6.835   6.665  15.570  0.00  0.00    +0.000 HD
BRANCH  16  20
ATOM     20  C   UNL     1       7.158   4.996  14.346  0.00  0.00    +0.000 C 
BRANCH  20  21
ATOM     21  C   UNL     1       5.917   4.127  14.065  0.00  0.00    +0.000 C 
BRANCH  21  23
ATOM     22  C   UNL     1       6.949   3.733  11.777  0.00  0.00    +0.000 C 
ATOM     23  C   UNL     1       5.901   3.293  12.780  0.00  0.00    +0.000 C 
ENDBRANCH  21  23
ENDBRANCH  20  21
ENDBRANCH  16  20
ENDBRANCH  14  17
ENDBRANCH  13  14
ENDBRANCH  10  13
ENDBRANCH   6  10
ENDBRANCH   5   6
ENDBRANCH   1   5
BRANCH   1  24
ATOM     24  C   UNL     1       2.491   6.106  20.047  0.00  0.00    +0.000 C 
BRANCH  24  25
ATOM     25  C   UNL     1       1.745   7.393  20.434  0.00  0.00    +0.000 A 
ATOM     26  C   UNL     1       0.704   7.442  21.381  0.00  0.00    +0.000 A 
ATOM     27  C   UNL     1      -0.102   8.593  21.486  0.00  0.00    +0.000 A 
ATOM     28  C   UNL     1       0.048   9.701  20.617  0.00  0.00    +0.000 A 
ATOM     29  C   UNL     1       1.057   9.649  19.650  0.00  0.00    +0.000 A 
ATOM     30  C   UNL     1       1.930   8.529  19.643  0.00  0.00    +0.000 A 
BRANCH  28  31
ATOM     31  O   UNL     1      -0.989  10.595  20.571  0.00  0.00    +0.000 OA
ATOM     32  C   UNL     1      -0.916  11.621  21.561  0.00  0.00    +0.000 C 
ENDBRANCH  28  31
BRANCH  29  33
ATOM     33  O   UNL     1       1.247  10.354  18.508  0.00  0.00    +0.000 OA
BRANCH  33  34
ATOM     34  C   UNL     1       1.961  11.550  18.242  0.00  0.00    +0.000 C 
BRANCH  34  35
ATOM     35  C   UNL     1       1.567  12.796  18.998  0.00  0.00    +0.000 A 
ATOM     36  C   UNL     1       2.174  13.066  20.242  0.00  0.00    +0.000 A 
ATOM     37  C   UNL     1       1.866  14.242  20.914  0.00  0.00    +0.000 A 
ATOM     38  N   UNL     1       1.015  15.168  20.441  0.00  0.00    +0.000 NA
ATOM     39  C   UNL     1       0.445  14.910  19.239  0.00  0.00    +0.000 A 
ATOM     40  C   UNL     1       0.706  13.759  18.486  0.00  0.00    +0.000 A 
ENDBRANCH  34  35
ENDBRANCH  33  34
ENDBRANCH  29  33
ENDBRANCH  24  25
ENDBRANCH   1  24
TORSDOF 18
ENDMDL
MODEL 9
REMARK VINA RESULT:      -6.9      1.604      3.228
REMARK  Name = 
REMARK  23 active torsions:
REMARK  status: ('A' for Active; 'I' for Inactive)
REMARK    1  A    between atoms: C_1  and  C_2
REMARK    2  A    between atoms: C_2  and  C_3
REMARK    3  A    between atoms: C_3  and  C_4
REMARK    4  A    between atoms: C_4  and  N_5
REMARK    5  A    between atoms: C_6  and  C_8
REMARK    6  A    between atoms: C_8  and  C_9
REMARK    7  A    between atoms: C_8  and  C_10
REMARK    8  A    between atoms: C_10  and  C_11
REMARK    9  A    between atoms: C_11  and  O_12
REMARK   10  A    between atoms: C_11  and  C_13
REMARK   11  A    between atoms: C_13  and  N_14
REMARK   12  A    between atoms: C_13  and  C_15
REMARK   13  A    between atoms: C_15  and  C_16
REMARK   14  A    between atoms: C_16  and  C_17
REMARK   15  A    between atoms: C_16  and  C_34
REMARK   16  A    between atoms: C_17  and  C_18
REMARK   17  A    between atoms: C_21  and  O_22
REMARK   18  A    between atoms: O_22  and  C_23
REMARK   19  A    between atoms: C_24  and  O_25
REMARK   20  A    between atoms: O_25  and  C_26
REMARK   21  A    between atoms: C_26  and  C_27
REMARK   22  A    between atoms: C_34  and  C_35
REMARK   23  A    between atoms: C_34  and  C_36
REMARK                            x       y       z     vdW  Elec       q    Type
REMARK                         _______ _______ _______ _____ _____    ______ ____
ROOT
ATOM      1  C   UNL     1       1.266   5.039  19.893  0.00  0.00    +0.000 C 
ENDROOT
BRANCH   1   2
ATOM      2  C   UNL     1       1.093   3.729  20.721  0.00  0.00    +0.000 C 
ATOM      3  C   UNL     1       1.097   2.456  19.841  0.00  0.00    +0.000 C 
ATOM      4  C   UNL     1       2.216   3.530  21.748  0.00  0.00    +0.000 C 
ENDBRANCH   1   2
BRANCH   1   5
ATOM      5  C   UNL     1       2.259   5.014  18.683  0.00  0.00    +0.000 C 
BRANCH   5   6
ATOM      6  C   UNL     1       3.748   4.526  18.724  0.00  0.00    +0.000 C 
BRANCH   6   7
ATOM      7  N   UNL     1       4.374   5.401  19.750  0.00  0.00    +0.000 NA
ATOM      8  H   UNL     1       5.366   5.203  19.841  0.00  0.00    +0.000 HD
ATOM      9  H   UNL     1       3.933   5.313  20.662  0.00  0.00    +0.000 HD
ENDBRANCH   6   7
BRANCH   6  10
ATOM     10  C   UNL     1       4.649   4.517  17.413  0.00  0.00    +0.000 C 
BRANCH  10  11
ATOM     11  O   UNL     1       3.921   3.923  16.341  0.00  0.00    +0.000 OA
ATOM     12  H   UNL     1       3.117   3.536  16.727  0.00  0.00    +0.000 HD
ENDBRANCH  10  11
BRANCH  10  13
ATOM     13  C   UNL     1       5.102   5.983  17.053  0.00  0.00    +0.000 C 
BRANCH  13  14
ATOM     14  C   UNL     1       6.569   6.413  16.704  0.00  0.00    +0.000 C 
ATOM     15  C   UNL     1       7.473   6.556  17.927  0.00  0.00    +0.000 C 
BRANCH  14  17
ATOM     16  N   UNL     1       6.845   5.559  14.354  0.00  0.00    +0.000 N 
ATOM     17  C   UNL     1       7.180   5.370  15.690  0.00  0.00    +0.000 C 
ATOM     18  O   UNL     1       7.877   4.434  16.077  0.00  0.00    +0.000 OA
ATOM     19  H   UNL     1       6.164   6.279  14.179  0.00  0.00    +0.000 HD
BRANCH  16  20
ATOM     20  C   UNL     1       6.956   4.559  13.283  0.00  0.00    +0.000 C 
BRANCH  20  21
ATOM     21  C   UNL     1       6.130   3.258  13.301  0.00  0.00    +0.000 C 
BRANCH  21  23
ATOM     22  C   UNL     1       4.294   3.334  11.546  0.00  0.00    +0.000 C 
ATOM     23  C   UNL     1       5.615   2.718  11.963  0.00  0.00    +0.000 C 
ENDBRANCH  21  23
ENDBRANCH  20  21
ENDBRANCH  16  20
ENDBRANCH  14  17
ENDBRANCH  13  14
ENDBRANCH  10  13
ENDBRANCH   6  10
ENDBRANCH   5   6
ENDBRANCH   1   5
BRANCH   1  24
ATOM     24  C   UNL     1       1.618   6.274  20.809  0.00  0.00    +0.000 C 
BRANCH  24  25
ATOM     25  C   UNL     1       1.225   7.715  20.446  0.00  0.00    +0.000 A 
ATOM     26  C   UNL     1       1.707   8.398  19.314  0.00  0.00    +0.000 A 
ATOM     27  C   UNL     1       1.515   9.789  19.193  0.00  0.00    +0.000 A 
ATOM     28  C   UNL     1       0.905  10.557  20.213  0.00  0.00    +0.000 A 
ATOM     29  C   UNL     1       0.452   9.893  21.358  0.00  0.00    +0.000 A 
ATOM     30  C   UNL     1       0.551   8.478  21.402  0.00  0.00    +0.000 A 
BRANCH  28  31
ATOM     31  O   UNL     1       1.082  11.914  20.155  0.00  0.00    +0.000 OA
ATOM     32  C   UNL     1       0.491  12.530  19.010  0.00  0.00    +0.000 C 
ENDBRANCH  28  31
BRANCH  29  33
ATOM     33  O   UNL     1       0.142  10.347  22.597  0.00  0.00    +0.000 OA
BRANCH  33  34
ATOM     34  C   UNL     1      -1.026  10.962  23.115  0.00  0.00    +0.000 C 
BRANCH  34  35
ATOM     35  C   UNL     1      -1.513  12.231  22.456  0.00  0.00    +0.000 A 
ATOM     36  C   UNL     1      -0.941  13.464  22.832  0.00  0.00    +0.000 A 
ATOM     37  C   UNL     1      -1.336  14.628  22.186  0.00  0.00    +0.000 A 
ATOM     38  N   UNL     1      -2.242  14.657  21.194  0.00  0.00    +0.000 NA
ATOM     39  C   UNL     1      -2.778  13.468  20.828  0.00  0.00    +0.000 A 
ATOM     40  C   UNL     1      -2.431  12.245  21.413  0.00  0.00    +0.000 A 
ENDBRANCH  34  35
ENDBRANCH  33  34
ENDBRANCH  29  33
ENDBRANCH  24  25
ENDBRANCH   1  24
TORSDOF 18
ENDMDL
