MODEL 1
REMARK VINA RESULT:      -7.3      0.000      0.000
REMARK  Name = 
REMARK  4 active torsions:
REMARK  status: ('A' for Active; 'I' for Inactive)
REMARK    1  A    between atoms: N_1  and  N_2
REMARK    2  A    between atoms: C_3  and  C_5
REMARK    3  A    between atoms: N_7  and  C_8
REMARK    4  A    between atoms: N_20  and  C_21
REMARK                            x       y       z     vdW  Elec       q    Type
REMARK                         _______ _______ _______ _____ _____    ______ ____
ROOT
ATOM      1  C   UNL     1       1.894   4.013  19.473  0.00  0.00    +0.000 A 
ATOM      2  N   UNL     1       1.700   5.305  19.593  0.00  0.00    +0.000 NA
ATOM      3  N   UNL     1       2.387   6.210  18.748  0.00  0.00    +0.000 N 
ATOM      4  C   UNL     1       3.357   5.811  17.784  0.00  0.00    +0.000 A 
ATOM      5  O   UNL     1       3.952   6.578  17.038  0.00  0.00    +0.000 OA
ATOM      6  C   UNL     1       3.588   4.400  17.760  0.00  0.00    +0.000 A 
ATOM      7  C   UNL     1       2.850   3.518  18.510  0.00  0.00    +0.000 A 
ATOM      8  C   UNL     1       3.234   2.252  18.066  0.00  0.00    +0.000 A 
ATOM      9  N   UNL     1       4.143   2.322  17.089  0.00  0.00    +0.000 NA
ATOM     10  N   UNL     1       4.445   3.652  16.983  0.00  0.00    +0.000 N 
ENDROOT
BRANCH   3  11
ATOM     11  C   UNL     1       2.051   7.596  18.945  0.00  0.00    +0.000 A 
ATOM     12  C   UNL     1       1.655   8.095  20.202  0.00  0.00    +0.000 A 
ATOM     13  C   UNL     1       1.227   9.414  20.373  0.00  0.00    +0.000 A 
ATOM     14  C   UNL     1       1.210  10.278  19.288  0.00  0.00    +0.000 A 
ATOM     15  C   UNL     1       1.642   9.824  18.043  0.00  0.00    +0.000 A 
ATOM     16  C   UNL     1       2.073   8.501  17.876  0.00  0.00    +0.000 A 
ENDBRANCH   3  11
BRANCH  10  17
ATOM     17  C   UNL     1       5.507   4.073  16.135  0.00  0.00    +0.000 A 
ATOM     18  C   UNL     1       5.349   3.981  14.747  0.00  0.00    +0.000 A 
ATOM     19  C   UNL     1       6.334   4.495  13.900  0.00  0.00    +0.000 A 
ATOM     20  C   UNL     1       7.492   5.064  14.431  0.00  0.00    +0.000 A 
ATOM     21  C   UNL     1       7.681   5.095  15.809  0.00  0.00    +0.000 A 
ATOM     22  C   UNL     1       6.698   4.591  16.660  0.00  0.00    +0.000 A 
ENDBRANCH  10  17
BRANCH   1  24
ATOM     23  N   UNL     1       1.595   2.952  21.663  0.00  0.00    +0.000 N 
ATOM     24  C   UNL     1       1.089   3.071  20.375  0.00  0.00    +0.000 C 
ATOM     25  O   UNL     1       0.098   2.494  19.946  0.00  0.00    +0.000 OA
ATOM     26  H   UNL     1       2.361   3.573  21.932  0.00  0.00    +0.000 HD
BRANCH  23  27
ATOM     27  N   UNL     1       0.866   2.251  22.646  0.00  0.00    +0.000 NA
ATOM     28  H   UNL     1      -0.082   2.629  22.706  0.00  0.00    +0.000 HD
ATOM     29  H   UNL     1       1.299   2.440  23.560  0.00  0.00    +0.000 HD
ENDBRANCH  23  27
ENDBRANCH   1  24
TORSDOF 4
ENDMDL
MODEL 2
REMARK VINA RESULT:      -7.2      3.184      7.225
REMARK  Name = 
REMARK  4 active torsions:
REMARK  status: ('A' for Active; 'I' for Inactive)
REMARK    1  A    between atoms: N_1  and  N_2
REMARK    2  A    between atoms: C_3  and  C_5
REMARK    3  A    between atoms: N_7  and  C_8
REMARK    4  A    between atoms: N_20  and  C_21
REMARK                            x       y       z     vdW  Elec       q    Type
REMARK                         _______ _______ _______ _____ _____    ______ ____
ROOT
ATOM      1  C   UNL     1       6.820   6.358  17.448  0.00  0.00    +0.000 A 
ATOM      2  N   UNL     1       7.009   5.924  16.223  0.00  0.00    +0.000 NA
ATOM      3  N   UNL     1       6.074   5.042  15.629  0.00  0.00    +0.000 N 
ATOM      4  C   UNL     1       4.937   4.519  16.309  0.00  0.00    +0.000 A 
ATOM      5  O   UNL     1       4.113   3.764  15.808  0.00  0.00    +0.000 OA
ATOM      6  C   UNL     1       4.834   4.958  17.666  0.00  0.00    +0.000 A 
ATOM      7  C   UNL     1       5.684   5.891  18.206  0.00  0.00    +0.000 A 
ATOM      8  C   UNL     1       5.144   6.195  19.456  0.00  0.00    +0.000 A 
ATOM      9  N   UNL     1       4.017   5.515  19.690  0.00  0.00    +0.000 NA
ATOM     10  N   UNL     1       3.892   4.665  18.627  0.00  0.00    +0.000 N 
ENDROOT
BRANCH   3  11
ATOM     11  C   UNL     1       6.367   4.679  14.266  0.00  0.00    +0.000 A 
ATOM     12  C   UNL     1       5.614   3.709  13.576  0.00  0.00    +0.000 A 
ATOM     13  C   UNL     1       5.961   3.278  12.293  0.00  0.00    +0.000 A 
ATOM     14  C   UNL     1       7.061   3.833  11.655  0.00  0.00    +0.000 A 
ATOM     15  C   UNL     1       7.795   4.829  12.296  0.00  0.00    +0.000 A 
ATOM     16  C   UNL     1       7.443   5.260  13.582  0.00  0.00    +0.000 A 
ENDBRANCH   3  11
BRANCH  10  17
ATOM     17  C   UNL     1       2.873   3.672  18.629  0.00  0.00    +0.000 A 
ATOM     18  C   UNL     1       3.225   2.331  18.826  0.00  0.00    +0.000 A 
ATOM     19  C   UNL     1       2.228   1.360  18.945  0.00  0.00    +0.000 A 
ATOM     20  C   UNL     1       0.884   1.715  18.828  0.00  0.00    +0.000 A 
ATOM     21  C   UNL     1       0.534   3.035  18.565  0.00  0.00    +0.000 A 
ATOM     22  C   UNL     1       1.525   4.011  18.454  0.00  0.00    +0.000 A 
ENDBRANCH  10  17
BRANCH   1  24
ATOM     23  N   UNL     1       7.808   8.602  17.421  0.00  0.00    +0.000 N 
ATOM     24  C   UNL     1       7.832   7.353  18.028  0.00  0.00    +0.000 C 
ATOM     25  O   UNL     1       8.576   7.023  18.942  0.00  0.00    +0.000 OA
ATOM     26  H   UNL     1       7.063   8.789  16.747  0.00  0.00    +0.000 HD
BRANCH  23  27
ATOM     27  N   UNL     1       8.566   9.663  17.959  0.00  0.00    +0.000 NA
ATOM     28  H   UNL     1       8.852   9.432  18.913  0.00  0.00    +0.000 HD
ATOM     29  H   UNL     1       7.951  10.483  18.045  0.00  0.00    +0.000 HD
ENDBRANCH  23  27
ENDBRANCH   1  24
TORSDOF 4
ENDMDL
MODEL 3
REMARK VINA RESULT:      -7.1      1.013      1.378
REMARK  Name = 
REMARK  4 active torsions:
REMARK  status: ('A' for Active; 'I' for Inactive)
REMARK    1  A    between atoms: N_1  and  N_2
REMARK    2  A    between atoms: C_3  and  C_5
REMARK    3  A    between atoms: N_7  and  C_8
REMARK    4  A    between atoms: N_20  and  C_21
REMARK                            x       y       z     vdW  Elec       q    Type
REMARK                         _______ _______ _______ _____ _____    ______ ____
ROOT
ATOM      1  C   UNL     1       2.787   3.927  20.270  0.00  0.00    +0.000 A 
ATOM      2  N   UNL     1       2.401   5.180  20.315  0.00  0.00    +0.000 NA
ATOM      3  N   UNL     1       2.693   6.054  19.239  0.00  0.00    +0.000 N 
ATOM      4  C   UNL     1       3.459   5.677  18.099  0.00  0.00    +0.000 A 
ATOM      5  O   UNL     1       3.712   6.415  17.156  0.00  0.00    +0.000 OA
ATOM      6  C   UNL     1       3.925   4.326  18.149  0.00  0.00    +0.000 A 
ATOM      7  C   UNL     1       3.557   3.454  19.143  0.00  0.00    +0.000 A 
ATOM      8  C   UNL     1       4.043   2.211  18.736  0.00  0.00    +0.000 A 
ATOM      9  N   UNL     1       4.664   2.282  17.555  0.00  0.00    +0.000 NA
ATOM     10  N   UNL     1       4.690   3.615  17.251  0.00  0.00    +0.000 N 
ENDROOT
BRANCH   3  11
ATOM     11  C   UNL     1       2.172   7.388  19.386  0.00  0.00    +0.000 A 
ATOM     12  C   UNL     1       1.637   7.850  20.605  0.00  0.00    +0.000 A 
ATOM     13  C   UNL     1       1.036   9.105  20.721  0.00  0.00    +0.000 A 
ATOM     14  C   UNL     1       0.979   9.946  19.619  0.00  0.00    +0.000 A 
ATOM     15  C   UNL     1       1.543   9.534  18.413  0.00  0.00    +0.000 A 
ATOM     16  C   UNL     1       2.148   8.275  18.301  0.00  0.00    +0.000 A 
ENDBRANCH   3  11
BRANCH  10  17
ATOM     17  C   UNL     1       5.425   4.070  16.121  0.00  0.00    +0.000 A 
ATOM     18  C   UNL     1       6.648   4.724  16.320  0.00  0.00    +0.000 A 
ATOM     19  C   UNL     1       7.436   5.075  15.222  0.00  0.00    +0.000 A 
ATOM     20  C   UNL     1       6.992   4.813  13.925  0.00  0.00    +0.000 A 
ATOM     21  C   UNL     1       5.748   4.224  13.722  0.00  0.00    +0.000 A 
ATOM     22  C   UNL     1       4.960   3.864  14.816  0.00  0.00    +0.000 A 
ENDBRANCH  10  17
BRANCH   1  24
ATOM     23  N   UNL     1       1.048   3.023  21.743  0.00  0.00    +0.000 N 
ATOM     24  C   UNL     1       2.402   3.007  21.434  0.00  0.00    +0.000 C 
ATOM     25  O   UNL     1       3.253   2.342  22.011  0.00  0.00    +0.000 OA
ATOM     26  H   UNL     1       0.423   3.532  21.115  0.00  0.00    +0.000 HD
BRANCH  23  27
ATOM     27  N   UNL     1       0.526   2.106  22.680  0.00  0.00    +0.000 NA
ATOM     28  H   UNL     1       1.056   1.233  22.638  0.00  0.00    +0.000 HD
ATOM     29  H   UNL     1      -0.431   1.866  22.391  0.00  0.00    +0.000 HD
ENDBRANCH  23  27
ENDBRANCH   1  24
TORSDOF 4
ENDMDL
MODEL 4
REMARK VINA RESULT:      -7.1      1.705      5.973
REMARK  Name = 
REMARK  4 active torsions:
REMARK  status: ('A' for Active; 'I' for Inactive)
REMARK    1  A    between atoms: N_1  and  N_2
REMARK    2  A    between atoms: C_3  and  C_5
REMARK    3  A    between atoms: N_7  and  C_8
REMARK    4  A    between atoms: N_20  and  C_21
REMARK                            x       y       z     vdW  Elec       q    Type
REMARK                         _______ _______ _______ _____ _____    ______ ____
ROOT
ATOM      1  C   UNL     1       3.854   3.699  19.393  0.00  0.00    +0.000 A 
ATOM      2  N   UNL     1       4.534   3.782  18.274  0.00  0.00    +0.000 NA
ATOM      3  N   UNL     1       4.575   5.001  17.554  0.00  0.00    +0.000 N 
ATOM      4  C   UNL     1       3.854   6.169  17.935  0.00  0.00    +0.000 A 
ATOM      5  O   UNL     1       3.885   7.233  17.332  0.00  0.00    +0.000 OA
ATOM      6  C   UNL     1       3.063   5.990  19.113  0.00  0.00    +0.000 A 
ATOM      7  C   UNL     1       3.105   4.840  19.863  0.00  0.00    +0.000 A 
ATOM      8  C   UNL     1       2.367   5.127  21.012  0.00  0.00    +0.000 A 
ATOM      9  N   UNL     1       1.901   6.380  21.004  0.00  0.00    +0.000 NA
ATOM     10  N   UNL     1       2.237   6.873  19.773  0.00  0.00    +0.000 N 
ENDROOT
BRANCH   3  11
ATOM     11  C   UNL     1       5.394   4.977  16.370  0.00  0.00    +0.000 A 
ATOM     12  C   UNL     1       4.937   4.420  15.159  0.00  0.00    +0.000 A 
ATOM     13  C   UNL     1       5.766   4.300  14.041  0.00  0.00    +0.000 A 
ATOM     14  C   UNL     1       7.072   4.763  14.100  0.00  0.00    +0.000 A 
ATOM     15  C   UNL     1       7.535   5.362  15.269  0.00  0.00    +0.000 A 
ATOM     16  C   UNL     1       6.700   5.483  16.389  0.00  0.00    +0.000 A 
ENDBRANCH   3  11
BRANCH  10  17
ATOM     17  C   UNL     1       1.751   8.145  19.362  0.00  0.00    +0.000 A 
ATOM     18  C   UNL     1       1.165   8.991  20.311  0.00  0.00    +0.000 A 
ATOM     19  C   UNL     1       0.788  10.287  19.949  0.00  0.00    +0.000 A 
ATOM     20  C   UNL     1       0.956  10.727  18.636  0.00  0.00    +0.000 A 
ATOM     21  C   UNL     1       1.476   9.866  17.675  0.00  0.00    +0.000 A 
ATOM     22  C   UNL     1       1.863   8.573  18.033  0.00  0.00    +0.000 A 
ENDBRANCH  10  17
BRANCH   1  24
ATOM     23  N   UNL     1       5.161   1.945  20.501  0.00  0.00    +0.000 N 
ATOM     24  C   UNL     1       3.884   2.374  20.163  0.00  0.00    +0.000 C 
ATOM     25  O   UNL     1       2.845   1.782  20.425  0.00  0.00    +0.000 OA
ATOM     26  H   UNL     1       5.939   2.584  20.326  0.00  0.00    +0.000 HD
BRANCH  23  27
ATOM     27  N   UNL     1       5.330   0.831  21.350  0.00  0.00    +0.000 NA
ATOM     28  H   UNL     1       6.010   0.186  20.941  0.00  0.00    +0.000 HD
ATOM     29  H   UNL     1       4.441   0.315  21.381  0.00  0.00    +0.000 HD
ENDBRANCH  23  27
ENDBRANCH   1  24
TORSDOF 4
ENDMDL
MODEL 5
REMARK VINA RESULT:      -6.9      3.522      5.854
REMARK  Name = 
REMARK  4 active torsions:
REMARK  status: ('A' for Active; 'I' for Inactive)
REMARK    1  A    between atoms: N_1  and  N_2
REMARK    2  A    between atoms: C_3  and  C_5
REMARK    3  A    between atoms: N_7  and  C_8
REMARK    4  A    between atoms: N_20  and  C_21
REMARK                            x       y       z     vdW  Elec       q    Type
REMARK                         _______ _______ _______ _____ _____    ______ ____
ROOT
ATOM      1  C   UNL     1       6.674   5.955  17.260  0.00  0.00    +0.000 A 
ATOM      2  N   UNL     1       5.648   5.477  17.926  0.00  0.00    +0.000 NA
ATOM      3  N   UNL     1       4.814   4.495  17.339  0.00  0.00    +0.000 N 
ATOM      4  C   UNL     1       4.972   4.016  16.007  0.00  0.00    +0.000 A 
ATOM      5  O   UNL     1       4.267   3.161  15.487  0.00  0.00    +0.000 OA
ATOM      6  C   UNL     1       6.051   4.637  15.304  0.00  0.00    +0.000 A 
ATOM      7  C   UNL     1       6.918   5.513  15.907  0.00  0.00    +0.000 A 
ATOM      8  C   UNL     1       7.926   5.735  14.968  0.00  0.00    +0.000 A 
ATOM      9  N   UNL     1       7.724   5.034  13.847  0.00  0.00    +0.000 NA
ATOM     10  N   UNL     1       6.501   4.445  14.016  0.00  0.00    +0.000 N 
ENDROOT
BRANCH   3  11
ATOM     11  C   UNL     1       3.754   4.016  18.188  0.00  0.00    +0.000 A 
ATOM     12  C   UNL     1       3.981   3.055  19.193  0.00  0.00    +0.000 A 
ATOM     13  C   UNL     1       2.938   2.511  19.946  0.00  0.00    +0.000 A 
ATOM     14  C   UNL     1       1.636   2.938  19.728  0.00  0.00    +0.000 A 
ATOM     15  C   UNL     1       1.388   3.922  18.773  0.00  0.00    +0.000 A 
ATOM     16  C   UNL     1       2.438   4.468  18.021  0.00  0.00    +0.000 A 
ENDBRANCH   3  11
BRANCH  10  17
ATOM     17  C   UNL     1       5.897   3.743  12.936  0.00  0.00    +0.000 A 
ATOM     18  C   UNL     1       6.560   2.642  12.382  0.00  0.00    +0.000 A 
ATOM     19  C   UNL     1       5.931   1.873  11.400  0.00  0.00    +0.000 A 
ATOM     20  C   UNL     1       4.660   2.222  10.940  0.00  0.00    +0.000 A 
ATOM     21  C   UNL     1       4.028   3.355  11.441  0.00  0.00    +0.000 A 
ATOM     22  C   UNL     1       4.647   4.122  12.428  0.00  0.00    +0.000 A 
ENDBRANCH  10  17
BRANCH   1  24
ATOM     23  N   UNL     1       7.581   8.231  17.358  0.00  0.00    +0.000 N 
ATOM     24  C   UNL     1       7.578   6.977  17.958  0.00  0.00    +0.000 C 
ATOM     25  O   UNL     1       8.225   6.663  18.948  0.00  0.00    +0.000 OA
ATOM     26  H   UNL     1       6.911   8.399  16.605  0.00  0.00    +0.000 HD
BRANCH  23  27
ATOM     27  N   UNL     1       8.236   9.311  17.985  0.00  0.00    +0.000 NA
ATOM     28  H   UNL     1       7.585   9.795  18.606  0.00  0.00    +0.000 HD
ATOM     29  H   UNL     1       8.489   9.995  17.259  0.00  0.00    +0.000 HD
ENDBRANCH  23  27
ENDBRANCH   1  24
TORSDOF 4
ENDMDL
MODEL 6
REMARK VINA RESULT:      -6.9      3.239      6.504
REMARK  Name = 
REMARK  4 active torsions:
REMARK  status: ('A' for Active; 'I' for Inactive)
REMARK    1  A    between atoms: N_1  and  N_2
REMARK    2  A    between atoms: C_3  and  C_5
REMARK    3  A    between atoms: N_7  and  C_8
REMARK    4  A    between atoms: N_20  and  C_21
REMARK                            x       y       z     vdW  Elec       q    Type
REMARK                         _______ _______ _______ _____ _____    ______ ____
ROOT
ATOM      1  C   UNL     1       6.423   4.966  15.436  0.00  0.00    +0.000 A 
ATOM      2  N   UNL     1       6.966   6.029  15.982  0.00  0.00    +0.000 NA
ATOM      3  N   UNL     1       6.659   6.377  17.319  0.00  0.00    +0.000 N 
ATOM      4  C   UNL     1       5.721   5.671  18.126  0.00  0.00    +0.000 A 
ATOM      5  O   UNL     1       5.451   5.951  19.286  0.00  0.00    +0.000 OA
ATOM      6  C   UNL     1       5.099   4.577  17.447  0.00  0.00    +0.000 A 
ATOM      7  C   UNL     1       5.472   4.181  16.187  0.00  0.00    +0.000 A 
ATOM      8  C   UNL     1       4.789   2.985  15.963  0.00  0.00    +0.000 A 
ATOM      9  N   UNL     1       4.044   2.633  17.016  0.00  0.00    +0.000 NA
ATOM     10  N   UNL     1       4.149   3.681  17.887  0.00  0.00    +0.000 N 
ENDROOT
BRANCH   3  11
ATOM     11  C   UNL     1       7.356   7.535  17.818  0.00  0.00    +0.000 A 
ATOM     12  C   UNL     1       7.093   8.830  17.331  0.00  0.00    +0.000 A 
ATOM     13  C   UNL     1       7.840   9.939  17.735  0.00  0.00    +0.000 A 
ATOM     14  C   UNL     1       8.858   9.781  18.664  0.00  0.00    +0.000 A 
ATOM     15  C   UNL     1       9.109   8.519  19.198  0.00  0.00    +0.000 A 
ATOM     16  C   UNL     1       8.355   7.409  18.792  0.00  0.00    +0.000 A 
ENDBRANCH   3  11
BRANCH  10  17
ATOM     17  C   UNL     1       3.347   3.710  19.062  0.00  0.00    +0.000 A 
ATOM     18  C   UNL     1       2.252   4.581  19.120  0.00  0.00    +0.000 A 
ATOM     19  C   UNL     1       1.387   4.540  20.216  0.00  0.00    +0.000 A 
ATOM     20  C   UNL     1       1.633   3.662  21.273  0.00  0.00    +0.000 A 
ATOM     21  C   UNL     1       2.757   2.843  21.249  0.00  0.00    +0.000 A 
ATOM     22  C   UNL     1       3.620   2.874  20.152  0.00  0.00    +0.000 A 
ENDBRANCH  10  17
BRANCH   1  24
ATOM     23  N   UNL     1       6.302   3.393  13.559  0.00  0.00    +0.000 N 
ATOM     24  C   UNL     1       6.827   4.600  14.003  0.00  0.00    +0.000 C 
ATOM     25  O   UNL     1       7.557   5.337  13.354  0.00  0.00    +0.000 OA
ATOM     26  H   UNL     1       5.615   2.925  14.153  0.00  0.00    +0.000 HD
BRANCH  23  27
ATOM     27  N   UNL     1       6.455   3.011  12.209  0.00  0.00    +0.000 NA
ATOM     28  H   UNL     1       6.291   2.006  12.116  0.00  0.00    +0.000 HD
ATOM     29  H   UNL     1       7.438   3.158  11.945  0.00  0.00    +0.000 HD
ENDBRANCH  23  27
ENDBRANCH   1  24
TORSDOF 4
ENDMDL
MODEL 7
REMARK VINA RESULT:      -6.9      1.070      1.419
REMARK  Name = 
REMARK  4 active torsions:
REMARK  status: ('A' for Active; 'I' for Inactive)
REMARK    1  A    between atoms: N_1  and  N_2
REMARK    2  A    between atoms: C_3  and  C_5
REMARK    3  A    between atoms: N_7  and  C_8
REMARK    4  A    between atoms: N_20  and  C_21
REMARK                            x       y       z     vdW  Elec       q    Type
REMARK                         _______ _______ _______ _____ _____    ______ ____
ROOT
ATOM      1  C   UNL     1       2.607   4.508  20.374  0.00  0.00    +0.000 A 
ATOM      2  N   UNL     1       2.233   5.759  20.236  0.00  0.00    +0.000 NA
ATOM      3  N   UNL     1       2.606   6.490  19.083  0.00  0.00    +0.000 N 
ATOM      4  C   UNL     1       3.442   5.971  18.053  0.00  0.00    +0.000 A 
ATOM      5  O   UNL     1       3.766   6.585  17.044  0.00  0.00    +0.000 OA
ATOM      6  C   UNL     1       3.888   4.636  18.302  0.00  0.00    +0.000 A 
ATOM      7  C   UNL     1       3.444   3.896  19.369  0.00  0.00    +0.000 A 
ATOM      8  C   UNL     1       3.941   2.610  19.154  0.00  0.00    +0.000 A 
ATOM      9  N   UNL     1       4.641   2.531  18.018  0.00  0.00    +0.000 NA
ATOM     10  N   UNL     1       4.703   3.815  17.553  0.00  0.00    +0.000 N 
ENDROOT
BRANCH   3  11
ATOM     11  C   UNL     1       2.093   7.835  19.027  0.00  0.00    +0.000 A 
ATOM     12  C   UNL     1       2.270   8.653  17.894  0.00  0.00    +0.000 A 
ATOM     13  C   UNL     1       1.868   9.991  17.877  0.00  0.00    +0.000 A 
ATOM     14  C   UNL     1       1.249  10.537  18.992  0.00  0.00    +0.000 A 
ATOM     15  C   UNL     1       1.018   9.737  20.109  0.00  0.00    +0.000 A 
ATOM     16  C   UNL     1       1.421   8.395  20.121  0.00  0.00    +0.000 A 
ENDBRANCH   3  11
BRANCH  10  17
ATOM     17  C   UNL     1       5.517   4.124  16.428  0.00  0.00    +0.000 A 
ATOM     18  C   UNL     1       5.042   3.839  15.142  0.00  0.00    +0.000 A 
ATOM     19  C   UNL     1       5.778   4.239  14.023  0.00  0.00    +0.000 A 
ATOM     20  C   UNL     1       7.004   4.886  14.183  0.00  0.00    +0.000 A 
ATOM     21  C   UNL     1       7.510   5.110  15.459  0.00  0.00    +0.000 A 
ATOM     22  C   UNL     1       6.776   4.720  16.580  0.00  0.00    +0.000 A 
ENDBRANCH  10  17
BRANCH   1  24
ATOM     23  N   UNL     1       1.062   2.890  21.378  0.00  0.00    +0.000 N 
ATOM     24  C   UNL     1       2.134   3.742  21.614  0.00  0.00    +0.000 C 
ATOM     25  O   UNL     1       2.682   3.909  22.696  0.00  0.00    +0.000 OA
ATOM     26  H   UNL     1       0.767   2.754  20.409  0.00  0.00    +0.000 HD
BRANCH  23  27
ATOM     27  N   UNL     1       0.630   2.003  22.386  0.00  0.00    +0.000 NA
ATOM     28  H   UNL     1      -0.327   1.700  22.190  0.00  0.00    +0.000 HD
ATOM     29  H   UNL     1       0.581   2.525  23.271  0.00  0.00    +0.000 HD
ENDBRANCH  23  27
ENDBRANCH   1  24
TORSDOF 4
ENDMDL
MODEL 8
REMARK VINA RESULT:      -6.8      8.471     10.243
REMARK  Name = 
REMARK  4 active torsions:
REMARK  status: ('A' for Active; 'I' for Inactive)
REMARK    1  A    between atoms: N_1  and  N_2
REMARK    2  A    between atoms: C_3  and  C_5
REMARK    3  A    between atoms: N_7  and  C_8
REMARK    4  A    between atoms: N_20  and  C_21
REMARK                            x       y       z     vdW  Elec       q    Type
REMARK                         _______ _______ _______ _____ _____    ______ ____
ROOT
ATOM      1  C   UNL     1      -1.628  12.368  21.422  0.00  0.00    +0.000 A 
ATOM      2  N   UNL     1      -2.186  11.790  20.385  0.00  0.00    +0.000 NA
ATOM      3  N   UNL     1      -1.761  12.115  19.074  0.00  0.00    +0.000 N 
ATOM      4  C   UNL     1      -0.780  13.106  18.783  0.00  0.00    +0.000 A 
ATOM      5  O   UNL     1      -0.392  13.393  17.658  0.00  0.00    +0.000 OA
ATOM      6  C   UNL     1      -0.272  13.762  19.948  0.00  0.00    +0.000 A 
ATOM      7  C   UNL     1      -0.613  13.376  21.221  0.00  0.00    +0.000 A 
ATOM      8  C   UNL     1       0.226  14.108  22.061  0.00  0.00    +0.000 A 
ATOM      9  N   UNL     1       1.057  14.896  21.371  0.00  0.00    +0.000 NA
ATOM     10  N   UNL     1       0.665  14.764  20.067  0.00  0.00    +0.000 N 
ENDROOT
BRANCH   3  11
ATOM     11  C   UNL     1      -2.415  11.377  18.025  0.00  0.00    +0.000 A 
ATOM     12  C   UNL     1      -1.788  10.300  17.369  0.00  0.00    +0.000 A 
ATOM     13  C   UNL     1      -2.378   9.651  16.281  0.00  0.00    +0.000 A 
ATOM     14  C   UNL     1      -3.631  10.051  15.838  0.00  0.00    +0.000 A 
ATOM     15  C   UNL     1      -4.294  11.082  16.499  0.00  0.00    +0.000 A 
ATOM     16  C   UNL     1      -3.701  11.729  17.592  0.00  0.00    +0.000 A 
ENDBRANCH   3  11
BRANCH  10  17
ATOM     17  C   UNL     1       1.241  15.595  19.067  0.00  0.00    +0.000 A 
ATOM     18  C   UNL     1       0.533  16.717  18.619  0.00  0.00    +0.000 A 
ATOM     19  C   UNL     1       1.131  17.605  17.722  0.00  0.00    +0.000 A 
ATOM     20  C   UNL     1       2.417  17.358  17.240  0.00  0.00    +0.000 A 
ATOM     21  C   UNL     1       3.097  16.209  17.631  0.00  0.00    +0.000 A 
ATOM     22  C   UNL     1       2.508  15.322  18.533  0.00  0.00    +0.000 A 
ENDBRANCH  10  17
BRANCH   1  24
ATOM     23  N   UNL     1      -3.382  12.336  23.136  0.00  0.00    +0.000 N 
ATOM     24  C   UNL     1      -2.086  11.945  22.823  0.00  0.00    +0.000 C 
ATOM     25  O   UNL     1      -1.334  11.325  23.563  0.00  0.00    +0.000 OA
ATOM     26  H   UNL     1      -3.947  12.749  22.391  0.00  0.00    +0.000 HD
BRANCH  23  27
ATOM     27  N   UNL     1      -3.991  11.875  24.321  0.00  0.00    +0.000 NA
ATOM     28  H   UNL     1      -5.003  12.005  24.261  0.00  0.00    +0.000 HD
ATOM     29  H   UNL     1      -3.679  12.477  25.095  0.00  0.00    +0.000 HD
ENDBRANCH  23  27
ENDBRANCH   1  24
TORSDOF 4
ENDMDL
MODEL 9
REMARK VINA RESULT:      -6.8      8.004     10.046
REMARK  Name = 
REMARK  4 active torsions:
REMARK  status: ('A' for Active; 'I' for Inactive)
REMARK    1  A    between atoms: N_1  and  N_2
REMARK    2  A    between atoms: C_3  and  C_5
REMARK    3  A    between atoms: N_7  and  C_8
REMARK    4  A    between atoms: N_20  and  C_21
REMARK                            x       y       z     vdW  Elec       q    Type
REMARK                         _______ _______ _______ _____ _____    ______ ____
ROOT
ATOM      1  C   UNL     1      -0.687  12.013  21.253  0.00  0.00    +0.000 A 
ATOM      2  N   UNL     1      -1.403  11.477  20.293  0.00  0.00    +0.000 NA
ATOM      3  N   UNL     1      -1.345  12.006  18.981  0.00  0.00    +0.000 N 
ATOM      4  C   UNL     1      -0.589  13.159  18.626  0.00  0.00    +0.000 A 
ATOM      5  O   UNL     1      -0.519  13.624  17.496  0.00  0.00    +0.000 OA
ATOM      6  C   UNL     1       0.099  13.751  19.731  0.00  0.00    +0.000 A 
ATOM      7  C   UNL     1       0.122  13.178  20.979  0.00  0.00    +0.000 A 
ATOM      8  C   UNL     1       1.042  13.931  21.709  0.00  0.00    +0.000 A 
ATOM      9  N   UNL     1       1.583  14.906  20.972  0.00  0.00    +0.000 NA
ATOM     10  N   UNL     1       0.910  14.863  19.783  0.00  0.00    +0.000 N 
ENDROOT
BRANCH   3  11
ATOM     11  C   UNL     1      -2.137  11.299  18.009  0.00  0.00    +0.000 A 
ATOM     12  C   UNL     1      -1.605  10.248  17.236  0.00  0.00    +0.000 A 
ATOM     13  C   UNL     1      -2.339   9.632  16.219  0.00  0.00    +0.000 A 
ATOM     14  C   UNL     1      -3.642  10.039  15.967  0.00  0.00    +0.000 A 
ATOM     15  C   UNL     1      -4.209  11.043  16.748  0.00  0.00    +0.000 A 
ATOM     16  C   UNL     1      -3.471  11.657  17.769  0.00  0.00    +0.000 A 
ENDBRANCH   3  11
BRANCH  10  17
ATOM     17  C   UNL     1       1.126  15.877  18.809  0.00  0.00    +0.000 A 
ATOM     18  C   UNL     1       0.093  16.777  18.519  0.00  0.00    +0.000 A 
ATOM     19  C   UNL     1       0.325  17.847  17.651  0.00  0.00    +0.000 A 
ATOM     20  C   UNL     1       1.571  18.000  17.041  0.00  0.00    +0.000 A 
ATOM     21  C   UNL     1       2.578  17.069  17.275  0.00  0.00    +0.000 A 
ATOM     22  C   UNL     1       2.355  16.003  18.147  0.00  0.00    +0.000 A 
ENDBRANCH  10  17
BRANCH   1  24
ATOM     23  N   UNL     1      -0.085  10.152  22.732  0.00  0.00    +0.000 N 
ATOM     24  C   UNL     1      -0.742  11.373  22.645  0.00  0.00    +0.000 C 
ATOM     25  O   UNL     1      -1.333  11.927  23.562  0.00  0.00    +0.000 OA
ATOM     26  H   UNL     1       0.466   9.850  21.926  0.00  0.00    +0.000 HD
BRANCH  23  27
ATOM     27  N   UNL     1       0.085   9.529  23.986  0.00  0.00    +0.000 NA
ATOM     28  H   UNL     1      -0.072   8.523  23.895  0.00  0.00    +0.000 HD
ATOM     29  H   UNL     1      -0.653   9.871  24.614  0.00  0.00    +0.000 HD
ENDBRANCH  23  27
ENDBRANCH   1  24
TORSDOF 4
ENDMDL
