MODEL 1
REMARK VINA RESULT:      -8.4      0.000      0.000
REMARK  Name = 
REMARK  3 active torsions:
REMARK  status: ('A' for Active; 'I' for Inactive)
REMARK    1  A    between atoms: C_1  and  C_2
REMARK    2  A    between atoms: C_2  and  C_3
REMARK    3  A    between atoms: C_7  and  C_8
REMARK                            x       y       z     vdW  Elec       q    Type
REMARK                         _______ _______ _______ _____ _____    ______ ____
ROOT
ATOM      1  C   UNL     1       2.384   7.111  18.805  0.00  0.00    +0.000 A 
ATOM      2  C   UNL     1       3.472   6.976  17.949  0.00  0.00    +0.000 A 
ATOM      3  C   UNL     1       3.948   5.705  17.607  0.00  0.00    +0.000 A 
ATOM      4  C   UNL     1       3.309   4.525  18.099  0.00  0.00    +0.000 A 
ATOM      5  C   UNL     1       2.226   4.648  18.986  0.00  0.00    +0.000 A 
ATOM      6  C   UNL     1       1.781   5.956  19.315  0.00  0.00    +0.000 A 
ATOM      7  C   UNL     1       3.819   3.196  17.581  0.00  0.00    +0.000 C 
ATOM      8  O   UNL     1       3.166   2.166  17.616  0.00  0.00    +0.000 OA
ATOM      9  N   UNL     1       5.070   3.180  16.991  0.00  0.00    +0.000 N 
ATOM     10  C   UNL     1       5.911   4.340  17.059  0.00  0.00    +0.000 C 
ATOM     11  C   UNL     1       7.099   4.435  16.110  0.00  0.00    +0.000 C 
ATOM     12  N   UNL     1       7.337   5.886  15.918  0.00  0.00    +0.000 NA
ATOM     13  C   UNL     1       6.209   6.594  16.561  0.00  0.00    +0.000 C 
ATOM     14  C   UNL     1       5.101   5.557  16.650  0.00  0.00    +0.000 C 
ATOM     15  H   UNL     1       5.443   2.258  16.795  0.00  0.00    +0.000 HD
ATOM     16  H   UNL     1       7.330   6.085  14.915  0.00  0.00    +0.000 HD
ENDROOT
BRANCH   5  17
ATOM     17  C   UNL     1       1.469   3.537  19.684  0.00  0.00    +0.000 C 
ATOM     18  F   UNL     1       2.155   2.583  20.351  0.00  0.00    +0.000 F 
ATOM     19  F   UNL     1       0.623   4.060  20.627  0.00  0.00    +0.000 F 
ATOM     20  F   UNL     1       0.647   2.873  18.816  0.00  0.00    +0.000 F 
ENDBRANCH   5  17
BRANCH   1  22
ATOM     21  C   UNL     1       1.593   9.309  17.898  0.00  0.00    +0.000 C 
ATOM     22  C   UNL     1       1.845   8.478  19.147  0.00  0.00    +0.000 C 
ENDBRANCH   1  22
TORSDOF 2
ENDMDL
MODEL 2
REMARK VINA RESULT:      -8.4      1.148      1.349
REMARK  Name = 
REMARK  3 active torsions:
REMARK  status: ('A' for Active; 'I' for Inactive)
REMARK    1  A    between atoms: C_1  and  C_2
REMARK    2  A    between atoms: C_2  and  C_3
REMARK    3  A    between atoms: C_7  and  C_8
REMARK                            x       y       z     vdW  Elec       q    Type
REMARK                         _______ _______ _______ _____ _____    ______ ____
ROOT
ATOM      1  C   UNL     1       2.420   6.720  19.530  0.00  0.00    +0.000 A 
ATOM      2  C   UNL     1       3.165   6.617  18.360  0.00  0.00    +0.000 A 
ATOM      3  C   UNL     1       3.671   5.378  17.952  0.00  0.00    +0.000 A 
ATOM      4  C   UNL     1       3.406   4.193  18.705  0.00  0.00    +0.000 A 
ATOM      5  C   UNL     1       2.677   4.287  19.903  0.00  0.00    +0.000 A 
ATOM      6  C   UNL     1       2.191   5.565  20.286  0.00  0.00    +0.000 A 
ATOM      7  C   UNL     1       3.893   2.881  18.124  0.00  0.00    +0.000 C 
ATOM      8  O   UNL     1       3.440   1.795  18.445  0.00  0.00    +0.000 OA
ATOM      9  N   UNL     1       4.861   2.941  17.139  0.00  0.00    +0.000 N 
ATOM     10  C   UNL     1       5.506   4.188  16.841  0.00  0.00    +0.000 C 
ATOM     11  C   UNL     1       6.280   4.313  15.534  0.00  0.00    +0.000 C 
ATOM     12  N   UNL     1       6.234   5.754  15.185  0.00  0.00    +0.000 NA
ATOM     13  C   UNL     1       5.301   6.396  16.135  0.00  0.00    +0.000 C 
ATOM     14  C   UNL     1       4.444   5.258  16.665  0.00  0.00    +0.000 C 
ATOM     15  H   UNL     1       5.272   2.051  16.882  0.00  0.00    +0.000 HD
ATOM     16  H   UNL     1       5.863   5.845  14.236  0.00  0.00    +0.000 HD
ENDROOT
BRANCH   5  17
ATOM     17  C   UNL     1       2.362   3.179  20.886  0.00  0.00    +0.000 C 
ATOM     18  F   UNL     1       3.352   2.361  21.305  0.00  0.00    +0.000 F 
ATOM     19  F   UNL     1       1.852   3.705  22.045  0.00  0.00    +0.000 F 
ATOM     20  F   UNL     1       1.372   2.363  20.415  0.00  0.00    +0.000 F 
ENDBRANCH   5  17
BRANCH   1  22
ATOM     21  C   UNL     1       1.090   7.936  21.272  0.00  0.00    +0.000 C 
ATOM     22  C   UNL     1       1.842   8.048  19.954  0.00  0.00    +0.000 C 
ENDBRANCH   1  22
TORSDOF 2
ENDMDL
MODEL 3
REMARK VINA RESULT:      -8.2      1.266      1.456
REMARK  Name = 
REMARK  3 active torsions:
REMARK  status: ('A' for Active; 'I' for Inactive)
REMARK    1  A    between atoms: C_1  and  C_2
REMARK    2  A    between atoms: C_2  and  C_3
REMARK    3  A    between atoms: C_7  and  C_8
REMARK                            x       y       z     vdW  Elec       q    Type
REMARK                         _______ _______ _______ _____ _____    ______ ____
ROOT
ATOM      1  C   UNL     1       2.551   7.940  18.147  0.00  0.00    +0.000 A 
ATOM      2  C   UNL     1       3.668   7.452  17.477  0.00  0.00    +0.000 A 
ATOM      3  C   UNL     1       4.196   6.198  17.805  0.00  0.00    +0.000 A 
ATOM      4  C   UNL     1       3.583   5.382  18.805  0.00  0.00    +0.000 A 
ATOM      5  C   UNL     1       2.470   5.875  19.508  0.00  0.00    +0.000 A 
ATOM      6  C   UNL     1       1.972   7.156  19.151  0.00  0.00    +0.000 A 
ATOM      7  C   UNL     1       4.152   3.993  19.009  0.00  0.00    +0.000 C 
ATOM      8  O   UNL     1       3.533   3.083  19.537  0.00  0.00    +0.000 OA
ATOM      9  N   UNL     1       5.419   3.745  18.514  0.00  0.00    +0.000 N 
ATOM     10  C   UNL     1       6.219   4.826  18.014  0.00  0.00    +0.000 C 
ATOM     11  C   UNL     1       7.431   4.497  17.151  0.00  0.00    +0.000 C 
ATOM     12  N   UNL     1       7.625   5.679  16.275  0.00  0.00    +0.000 NA
ATOM     13  C   UNL     1       6.456   6.560  16.480  0.00  0.00    +0.000 C 
ATOM     14  C   UNL     1       5.381   5.651  17.054  0.00  0.00    +0.000 C 
ATOM     15  H   UNL     1       5.829   2.862  18.798  0.00  0.00    +0.000 HD
ATOM     16  H   UNL     1       7.642   5.362  15.304  0.00  0.00    +0.000 HD
ENDROOT
BRANCH   5  17
ATOM     17  C   UNL     1       1.731   5.214  20.653  0.00  0.00    +0.000 C 
ATOM     18  F   UNL     1       2.431   4.695  21.685  0.00  0.00    +0.000 F 
ATOM     19  F   UNL     1       0.879   6.110  21.246  0.00  0.00    +0.000 F 
ATOM     20  F   UNL     1       0.917   4.211  20.207  0.00  0.00    +0.000 F 
ENDBRANCH   5  17
BRANCH   1  22
ATOM     21  C   UNL     1       0.926   9.736  18.791  0.00  0.00    +0.000 C 
ATOM     22  C   UNL     1       1.957   9.275  17.771  0.00  0.00    +0.000 C 
ENDBRANCH   1  22
TORSDOF 2
ENDMDL
MODEL 4
REMARK VINA RESULT:      -8.2      1.100      1.445
REMARK  Name = 
REMARK  3 active torsions:
REMARK  status: ('A' for Active; 'I' for Inactive)
REMARK    1  A    between atoms: C_1  and  C_2
REMARK    2  A    between atoms: C_2  and  C_3
REMARK    3  A    between atoms: C_7  and  C_8
REMARK                            x       y       z     vdW  Elec       q    Type
REMARK                         _______ _______ _______ _____ _____    ______ ____
ROOT
ATOM      1  C   UNL     1       2.274   6.614  19.816  0.00  0.00    +0.000 A 
ATOM      2  C   UNL     1       3.031   6.587  18.649  0.00  0.00    +0.000 A 
ATOM      3  C   UNL     1       3.567   5.380  18.184  0.00  0.00    +0.000 A 
ATOM      4  C   UNL     1       3.319   4.153  18.873  0.00  0.00    +0.000 A 
ATOM      5  C   UNL     1       2.578   4.172  20.067  0.00  0.00    +0.000 A 
ATOM      6  C   UNL     1       2.062   5.418  20.510  0.00  0.00    +0.000 A 
ATOM      7  C   UNL     1       3.838   2.883  18.232  0.00  0.00    +0.000 C 
ATOM      8  O   UNL     1       3.405   1.772  18.492  0.00  0.00    +0.000 OA
ATOM      9  N   UNL     1       4.815   3.012  17.261  0.00  0.00    +0.000 N 
ATOM     10  C   UNL     1       5.436   4.285  17.033  0.00  0.00    +0.000 C 
ATOM     11  C   UNL     1       6.219   4.493  15.742  0.00  0.00    +0.000 C 
ATOM     12  N   UNL     1       6.147   5.949  15.466  0.00  0.00    +0.000 NA
ATOM     13  C   UNL     1       5.192   6.522  16.438  0.00  0.00    +0.000 C 
ATOM     14  C   UNL     1       4.353   5.342  16.901  0.00  0.00    +0.000 C 
ATOM     15  H   UNL     1       5.246   2.145  16.963  0.00  0.00    +0.000 HD
ATOM     16  H   UNL     1       5.782   6.080  14.519  0.00  0.00    +0.000 HD
ENDROOT
BRANCH   5  17
ATOM     17  C   UNL     1       2.277   3.008  20.989  0.00  0.00    +0.000 C 
ATOM     18  F   UNL     1       1.648   3.236  22.163  0.00  0.00    +0.000 F 
ATOM     19  F   UNL     1       1.476   2.095  20.354  0.00  0.00    +0.000 F 
ATOM     20  F   UNL     1       3.413   2.312  21.298  0.00  0.00    +0.000 F 
ENDBRANCH   5  17
BRANCH   1  22
ATOM     21  C   UNL     1       1.508   8.911  19.170  0.00  0.00    +0.000 C 
ATOM     22  C   UNL     1       1.664   7.907  20.301  0.00  0.00    +0.000 C 
ENDBRANCH   1  22
TORSDOF 2
ENDMDL
MODEL 5
REMARK VINA RESULT:      -8.1      3.338      4.727
REMARK  Name = 
REMARK  3 active torsions:
REMARK  status: ('A' for Active; 'I' for Inactive)
REMARK    1  A    between atoms: C_1  and  C_2
REMARK    2  A    between atoms: C_2  and  C_3
REMARK    3  A    between atoms: C_7  and  C_8
REMARK                            x       y       z     vdW  Elec       q    Type
REMARK                         _______ _______ _______ _____ _____    ______ ____
ROOT
ATOM      1  C   UNL     1       2.593   7.587  18.151  0.00  0.00    +0.000 A 
ATOM      2  C   UNL     1       2.438   6.689  19.201  0.00  0.00    +0.000 A 
ATOM      3  C   UNL     1       3.280   5.575  19.307  0.00  0.00    +0.000 A 
ATOM      4  C   UNL     1       4.332   5.358  18.366  0.00  0.00    +0.000 A 
ATOM      5  C   UNL     1       4.482   6.244  17.285  0.00  0.00    +0.000 A 
ATOM      6  C   UNL     1       3.600   7.355  17.208  0.00  0.00    +0.000 A 
ATOM      7  C   UNL     1       5.266   4.194  18.628  0.00  0.00    +0.000 C 
ATOM      8  O   UNL     1       6.382   4.106  18.146  0.00  0.00    +0.000 OA
ATOM      9  N   UNL     1       4.835   3.218  19.508  0.00  0.00    +0.000 N 
ATOM     10  C   UNL     1       3.481   3.226  19.982  0.00  0.00    +0.000 C 
ATOM     11  C   UNL     1       3.133   2.389  21.207  0.00  0.00    +0.000 C 
ATOM     12  N   UNL     1       1.975   3.070  21.836  0.00  0.00    +0.000 NA
ATOM     13  C   UNL     1       1.795   4.354  21.124  0.00  0.00    +0.000 C 
ATOM     14  C   UNL     1       3.139   4.623  20.466  0.00  0.00    +0.000 C 
ATOM     15  H   UNL     1       5.411   2.385  19.545  0.00  0.00    +0.000 HD
ATOM     16  H   UNL     1       2.203   3.258  22.814  0.00  0.00    +0.000 HD
ENDROOT
BRANCH   5  17
ATOM     17  C   UNL     1       5.467   6.148  16.138  0.00  0.00    +0.000 C 
ATOM     18  F   UNL     1       5.645   4.965  15.512  0.00  0.00    +0.000 F 
ATOM     19  F   UNL     1       5.107   7.007  15.131  0.00  0.00    +0.000 F 
ATOM     20  F   UNL     1       6.712   6.567  16.516  0.00  0.00    +0.000 F 
ENDBRANCH   5  17
BRANCH   1  22
ATOM     21  C   UNL     1       1.207   9.245  19.419  0.00  0.00    +0.000 C 
ATOM     22  C   UNL     1       1.712   8.808  18.053  0.00  0.00    +0.000 C 
ENDBRANCH   1  22
TORSDOF 2
ENDMDL
MODEL 6
REMARK VINA RESULT:      -7.7      3.440      4.704
REMARK  Name = 
REMARK  3 active torsions:
REMARK  status: ('A' for Active; 'I' for Inactive)
REMARK    1  A    between atoms: C_1  and  C_2
REMARK    2  A    between atoms: C_2  and  C_3
REMARK    3  A    between atoms: C_7  and  C_8
REMARK                            x       y       z     vdW  Elec       q    Type
REMARK                         _______ _______ _______ _____ _____    ______ ____
ROOT
ATOM      1  C   UNL     1       2.979   7.605  17.808  0.00  0.00    +0.000 A 
ATOM      2  C   UNL     1       2.450   6.372  18.176  0.00  0.00    +0.000 A 
ATOM      3  C   UNL     1       3.291   5.264  18.341  0.00  0.00    +0.000 A 
ATOM      4  C   UNL     1       4.704   5.383  18.170  0.00  0.00    +0.000 A 
ATOM      5  C   UNL     1       5.248   6.617  17.772  0.00  0.00    +0.000 A 
ATOM      6  C   UNL     1       4.359   7.712  17.606  0.00  0.00    +0.000 A 
ATOM      7  C   UNL     1       5.544   4.162  18.485  0.00  0.00    +0.000 C 
ATOM      8  O   UNL     1       6.736   4.213  18.737  0.00  0.00    +0.000 OA
ATOM      9  N   UNL     1       4.896   2.942  18.542  0.00  0.00    +0.000 N 
ATOM     10  C   UNL     1       3.530   2.833  18.120  0.00  0.00    +0.000 C 
ATOM     11  C   UNL     1       2.736   1.598  18.528  0.00  0.00    +0.000 C 
ATOM     12  N   UNL     1       1.319   2.035  18.572  0.00  0.00    +0.000 NA
ATOM     13  C   UNL     1       1.318   3.503  18.399  0.00  0.00    +0.000 C 
ATOM     14  C   UNL     1       2.724   3.939  18.778  0.00  0.00    +0.000 C 
ATOM     15  H   UNL     1       5.504   2.133  18.603  0.00  0.00    +0.000 HD
ATOM     16  H   UNL     1       0.939   1.804  19.492  0.00  0.00    +0.000 HD
ENDROOT
BRANCH   5  17
ATOM     17  C   UNL     1       6.695   6.932  17.455  0.00  0.00    +0.000 C 
ATOM     18  F   UNL     1       7.640   6.739  18.401  0.00  0.00    +0.000 F 
ATOM     19  F   UNL     1       7.124   6.174  16.396  0.00  0.00    +0.000 F 
ATOM     20  F   UNL     1       6.841   8.224  17.033  0.00  0.00    +0.000 F 
ENDBRANCH   5  17
BRANCH   1  22
ATOM     21  C   UNL     1       1.396   9.156  18.977  0.00  0.00    +0.000 C 
ATOM     22  C   UNL     1       2.082   8.809  17.665  0.00  0.00    +0.000 C 
ENDBRANCH   1  22
TORSDOF 2
ENDMDL
MODEL 7
REMARK VINA RESULT:      -7.5      3.308      4.816
REMARK  Name = 
REMARK  3 active torsions:
REMARK  status: ('A' for Active; 'I' for Inactive)
REMARK    1  A    between atoms: C_1  and  C_2
REMARK    2  A    between atoms: C_2  and  C_3
REMARK    3  A    between atoms: C_7  and  C_8
REMARK                            x       y       z     vdW  Elec       q    Type
REMARK                         _______ _______ _______ _____ _____    ______ ____
ROOT
ATOM      1  C   UNL     1       2.670   7.663  18.074  0.00  0.00    +0.000 A 
ATOM      2  C   UNL     1       2.220   6.725  18.998  0.00  0.00    +0.000 A 
ATOM      3  C   UNL     1       2.980   5.582  19.271  0.00  0.00    +0.000 A 
ATOM      4  C   UNL     1       4.243   5.373  18.639  0.00  0.00    +0.000 A 
ATOM      5  C   UNL     1       4.698   6.299  17.684  0.00  0.00    +0.000 A 
ATOM      6  C   UNL     1       3.891   7.439  17.428  0.00  0.00    +0.000 A 
ATOM      7  C   UNL     1       5.049   4.169  19.084  0.00  0.00    +0.000 C 
ATOM      8  O   UNL     1       6.253   4.067  18.917  0.00  0.00    +0.000 OA
ATOM      9  N   UNL     1       4.378   3.171  19.766  0.00  0.00    +0.000 N 
ATOM     10  C   UNL     1       2.946   3.200  19.857  0.00  0.00    +0.000 C 
ATOM     11  C   UNL     1       2.264   2.323  20.899  0.00  0.00    +0.000 C 
ATOM     12  N   UNL     1       0.992   3.013  21.225  0.00  0.00    +0.000 NA
ATOM     13  C   UNL     1       1.036   4.331  20.556  0.00  0.00    +0.000 C 
ATOM     14  C   UNL     1       2.512   4.586  20.300  0.00  0.00    +0.000 C 
ATOM     15  H   UNL     1       4.906   2.319  19.915  0.00  0.00    +0.000 HD
ATOM     16  H   UNL     1       0.950   3.151  22.237  0.00  0.00    +0.000 HD
ENDROOT
BRANCH   5  17
ATOM     17  C   UNL     1       5.954   6.221  16.842  0.00  0.00    +0.000 C 
ATOM     18  F   UNL     1       6.150   7.122  15.855  0.00  0.00    +0.000 F 
ATOM     19  F   UNL     1       7.065   6.351  17.636  0.00  0.00    +0.000 F 
ATOM     20  F   UNL     1       6.090   4.991  16.262  0.00  0.00    +0.000 F 
ENDBRANCH   5  17
BRANCH   1  22
ATOM     21  C   UNL     1       1.191   9.427  19.063  0.00  0.00    +0.000 C 
ATOM     22  C   UNL     1       1.872   8.914  17.803  0.00  0.00    +0.000 C 
ENDBRANCH   1  22
TORSDOF 2
ENDMDL
MODEL 8
REMARK VINA RESULT:      -7.2      2.564      4.567
REMARK  Name = 
REMARK  3 active torsions:
REMARK  status: ('A' for Active; 'I' for Inactive)
REMARK    1  A    between atoms: C_1  and  C_2
REMARK    2  A    between atoms: C_2  and  C_3
REMARK    3  A    between atoms: C_7  and  C_8
REMARK                            x       y       z     vdW  Elec       q    Type
REMARK                         _______ _______ _______ _____ _____    ______ ____
ROOT
ATOM      1  C   UNL     1       4.614   4.482  16.631  0.00  0.00    +0.000 A 
ATOM      2  C   UNL     1       4.205   5.750  17.032  0.00  0.00    +0.000 A 
ATOM      3  C   UNL     1       3.494   5.917  18.227  0.00  0.00    +0.000 A 
ATOM      4  C   UNL     1       3.206   4.801  19.071  0.00  0.00    +0.000 A 
ATOM      5  C   UNL     1       3.590   3.512  18.664  0.00  0.00    +0.000 A 
ATOM      6  C   UNL     1       4.299   3.386  17.440  0.00  0.00    +0.000 A 
ATOM      7  C   UNL     1       2.537   5.093  20.399  0.00  0.00    +0.000 C 
ATOM      8  O   UNL     1       2.563   4.327  21.348  0.00  0.00    +0.000 OA
ATOM      9  N   UNL     1       1.920   6.322  20.544  0.00  0.00    +0.000 N 
ATOM     10  C   UNL     1       1.757   7.183  19.408  0.00  0.00    +0.000 C 
ATOM     11  C   UNL     1       1.421   8.650  19.647  0.00  0.00    +0.000 C 
ATOM     12  N   UNL     1       1.963   9.376  18.473  0.00  0.00    +0.000 NA
ATOM     13  C   UNL     1       2.756   8.400  17.695  0.00  0.00    +0.000 C 
ATOM     14  C   UNL     1       3.086   7.293  18.682  0.00  0.00    +0.000 C 
ATOM     15  H   UNL     1       1.356   6.426  21.380  0.00  0.00    +0.000 HD
ATOM     16  H   UNL     1       2.580  10.118  18.809  0.00  0.00    +0.000 HD
ENDROOT
BRANCH   5  17
ATOM     17  C   UNL     1       3.308   2.197  19.361  0.00  0.00    +0.000 C 
ATOM     18  F   UNL     1       2.048   1.910  19.755  0.00  0.00    +0.000 F 
ATOM     19  F   UNL     1       3.651   1.147  18.548  0.00  0.00    +0.000 F 
ATOM     20  F   UNL     1       4.094   2.044  20.469  0.00  0.00    +0.000 F 
ENDBRANCH   5  17
BRANCH   1  22
ATOM     21  C   UNL     1       6.880   4.640  15.573  0.00  0.00    +0.000 C 
ATOM     22  C   UNL     1       5.412   4.303  15.363  0.00  0.00    +0.000 C 
ENDBRANCH   1  22
TORSDOF 2
ENDMDL
