MODEL 1
REMARK VINA RESULT:      -8.3      0.000      0.000
REMARK  Name = 
REMARK  2 active torsions:
REMARK  status: ('A' for Active; 'I' for Inactive)
REMARK    1  A    between atoms: C_6  and  O_7
REMARK    2  A    between atoms: O_7  and  S_8
REMARK                            x       y       z     vdW  Elec       q    Type
REMARK                         _______ _______ _______ _____ _____    ______ ____
ROOT
ATOM      1  O   UNL     1       3.437   0.910  18.646  0.00  0.00    +0.000 OA
ATOM      2  C   UNL     1       3.561   2.121  18.454  0.00  0.00    +0.000 A 
ATOM      3  O   UNL     1       4.287   2.610  17.383  0.00  0.00    +0.000 OA
ATOM      4  C   UNL     1       4.380   3.989  17.104  0.00  0.00    +0.000 A 
ATOM      5  C   UNL     1       5.157   4.347  16.000  0.00  0.00    +0.000 A 
ATOM      6  C   UNL     1       5.299   5.692  15.670  0.00  0.00    +0.000 A 
ATOM      7  C   UNL     1       4.680   6.654  16.461  0.00  0.00    +0.000 A 
ATOM      8  C   UNL     1       3.899   6.279  17.561  0.00  0.00    +0.000 A 
ATOM      9  C   UNL     1       3.723   4.932  17.903  0.00  0.00    +0.000 A 
ATOM     10  C   UNL     1       2.911   4.469  19.032  0.00  0.00    +0.000 A 
ATOM     11  C   UNL     1       2.157   5.327  19.851  0.00  0.00    +0.000 A 
ATOM     12  C   UNL     1       1.387   4.838  20.913  0.00  0.00    +0.000 A 
ATOM     13  C   UNL     1       1.362   3.478  21.189  0.00  0.00    +0.000 A 
ATOM     14  C   UNL     1       2.100   2.607  20.396  0.00  0.00    +0.000 A 
ATOM     15  C   UNL     1       2.858   3.099  19.315  0.00  0.00    +0.000 A 
ENDROOT
BRANCH   6  16
ATOM     16  O   UNL     1       6.113   5.967  14.604  0.00  0.00    +0.000 OA
BRANCH  16  17
ATOM     17  S   UNL     1       7.334   4.968  14.146  0.00  0.00    +0.000 S 
ATOM     18  O   UNL     1       6.669   3.925  13.368  0.00  0.00    +0.000 OA
ATOM     19  O   UNL     1       8.244   5.817  13.378  0.00  0.00    +0.000 OA
ATOM     20  O   UNL     1       7.879   4.509  15.420  0.00  0.00    +0.000 OA
ENDBRANCH  16  17
ENDBRANCH   6  16
TORSDOF 2
ENDMDL
MODEL 2
REMARK VINA RESULT:      -8.1      3.219      6.834
REMARK  Name = 
REMARK  2 active torsions:
REMARK  status: ('A' for Active; 'I' for Inactive)
REMARK    1  A    between atoms: C_6  and  O_7
REMARK    2  A    between atoms: O_7  and  S_8
REMARK                            x       y       z     vdW  Elec       q    Type
REMARK                         _______ _______ _______ _____ _____    ______ ____
ROOT
ATOM      1  O   UNL     1       7.743   6.848  16.763  0.00  0.00    +0.000 OA
ATOM      2  C   UNL     1       6.961   5.896  16.794  0.00  0.00    +0.000 A 
ATOM      3  O   UNL     1       6.257   5.579  17.941  0.00  0.00    +0.000 OA
ATOM      4  C   UNL     1       5.303   4.540  17.976  0.00  0.00    +0.000 A 
ATOM      5  C   UNL     1       4.674   4.318  19.203  0.00  0.00    +0.000 A 
ATOM      6  C   UNL     1       3.728   3.303  19.313  0.00  0.00    +0.000 A 
ATOM      7  C   UNL     1       3.443   2.517  18.201  0.00  0.00    +0.000 A 
ATOM      8  C   UNL     1       4.078   2.756  16.976  0.00  0.00    +0.000 A 
ATOM      9  C   UNL     1       5.019   3.784  16.833  0.00  0.00    +0.000 A 
ATOM     10  C   UNL     1       5.711   4.098  15.580  0.00  0.00    +0.000 A 
ATOM     11  C   UNL     1       5.447   3.446  14.362  0.00  0.00    +0.000 A 
ATOM     12  C   UNL     1       6.126   3.787  13.187  0.00  0.00    +0.000 A 
ATOM     13  C   UNL     1       7.095   4.780  13.202  0.00  0.00    +0.000 A 
ATOM     14  C   UNL     1       7.377   5.439  14.394  0.00  0.00    +0.000 A 
ATOM     15  C   UNL     1       6.678   5.109  15.571  0.00  0.00    +0.000 A 
ENDROOT
BRANCH   6  16
ATOM     16  O   UNL     1       3.189   3.115  20.557  0.00  0.00    +0.000 OA
BRANCH  16  17
ATOM     17  S   UNL     1       1.618   3.455  20.897  0.00  0.00    +0.000 S 
ATOM     18  O   UNL     1       1.558   4.915  20.882  0.00  0.00    +0.000 OA
ATOM     19  O   UNL     1       0.855   2.802  19.833  0.00  0.00    +0.000 OA
ATOM     20  O   UNL     1       1.429   2.862  22.217  0.00  0.00    +0.000 OA
ENDBRANCH  16  17
ENDBRANCH   6  16
TORSDOF 2
ENDMDL
MODEL 3
REMARK VINA RESULT:      -8.0      3.080      6.759
REMARK  Name = 
REMARK  2 active torsions:
REMARK  status: ('A' for Active; 'I' for Inactive)
REMARK    1  A    between atoms: C_6  and  O_7
REMARK    2  A    between atoms: O_7  and  S_8
REMARK                            x       y       z     vdW  Elec       q    Type
REMARK                         _______ _______ _______ _____ _____    ______ ____
ROOT
ATOM      1  O   UNL     1       7.875   6.813  16.410  0.00  0.00    +0.000 OA
ATOM      2  C   UNL     1       6.946   6.005  16.456  0.00  0.00    +0.000 A 
ATOM      3  O   UNL     1       6.127   5.910  17.565  0.00  0.00    +0.000 OA
ATOM      4  C   UNL     1       5.015   5.043  17.608  0.00  0.00    +0.000 A 
ATOM      5  C   UNL     1       4.280   5.037  18.796  0.00  0.00    +0.000 A 
ATOM      6  C   UNL     1       3.174   4.200  18.912  0.00  0.00    +0.000 A 
ATOM      7  C   UNL     1       2.835   3.371  17.847  0.00  0.00    +0.000 A 
ATOM      8  C   UNL     1       3.578   3.394  16.661  0.00  0.00    +0.000 A 
ATOM      9  C   UNL     1       4.683   4.241  16.510  0.00  0.00    +0.000 A 
ATOM     10  C   UNL     1       5.497   4.325  15.295  0.00  0.00    +0.000 A 
ATOM     11  C   UNL     1       5.208   3.616  14.115  0.00  0.00    +0.000 A 
ATOM     12  C   UNL     1       6.008   3.734  12.973  0.00  0.00    +0.000 A 
ATOM     13  C   UNL     1       7.125   4.558  12.986  0.00  0.00    +0.000 A 
ATOM     14  C   UNL     1       7.435   5.270  14.139  0.00  0.00    +0.000 A 
ATOM     15  C   UNL     1       6.617   5.165  15.281  0.00  0.00    +0.000 A 
ENDROOT
BRANCH   6  16
ATOM     16  O   UNL     1       2.532   4.215  20.121  0.00  0.00    +0.000 OA
BRANCH  16  17
ATOM     17  S   UNL     1       2.433   2.886  21.082  0.00  0.00    +0.000 S 
ATOM     18  O   UNL     1       2.175   3.427  22.415  0.00  0.00    +0.000 OA
ATOM     19  O   UNL     1       1.337   2.098  20.519  0.00  0.00    +0.000 OA
ATOM     20  O   UNL     1       3.748   2.272  20.931  0.00  0.00    +0.000 OA
ENDBRANCH  16  17
ENDBRANCH   6  16
TORSDOF 2
ENDMDL
MODEL 4
REMARK VINA RESULT:      -8.0      1.733      2.783
REMARK  Name = 
REMARK  2 active torsions:
REMARK  status: ('A' for Active; 'I' for Inactive)
REMARK    1  A    between atoms: C_6  and  O_7
REMARK    2  A    between atoms: O_7  and  S_8
REMARK                            x       y       z     vdW  Elec       q    Type
REMARK                         _______ _______ _______ _____ _____    ______ ____
ROOT
ATOM      1  O   UNL     1       2.046   7.466  20.080  0.00  0.00    +0.000 OA
ATOM      2  C   UNL     1       2.482   6.570  19.355  0.00  0.00    +0.000 A 
ATOM      3  O   UNL     1       3.325   6.847  18.295  0.00  0.00    +0.000 OA
ATOM      4  C   UNL     1       3.893   5.831  17.499  0.00  0.00    +0.000 A 
ATOM      5  C   UNL     1       4.717   6.251  16.453  0.00  0.00    +0.000 A 
ATOM      6  C   UNL     1       5.305   5.302  15.621  0.00  0.00    +0.000 A 
ATOM      7  C   UNL     1       5.042   3.953  15.838  0.00  0.00    +0.000 A 
ATOM      8  C   UNL     1       4.219   3.548  16.895  0.00  0.00    +0.000 A 
ATOM      9  C   UNL     1       3.631   4.480  17.759  0.00  0.00    +0.000 A 
ATOM     10  C   UNL     1       2.771   4.127  18.891  0.00  0.00    +0.000 A 
ATOM     11  C   UNL     1       2.503   2.802  19.280  0.00  0.00    +0.000 A 
ATOM     12  C   UNL     1       1.682   2.511  20.375  0.00  0.00    +0.000 A 
ATOM     13  C   UNL     1       1.099   3.538  21.103  0.00  0.00    +0.000 A 
ATOM     14  C   UNL     1       1.345   4.858  20.740  0.00  0.00    +0.000 A 
ATOM     15  C   UNL     1       2.188   5.149  19.650  0.00  0.00    +0.000 A 
ENDROOT
BRANCH   6  16
ATOM     16  O   UNL     1       6.061   5.791  14.590  0.00  0.00    +0.000 OA
BRANCH  16  17
ATOM     17  S   UNL     1       7.254   4.912  13.879  0.00  0.00    +0.000 S 
ATOM     18  O   UNL     1       8.038   4.401  15.001  0.00  0.00    +0.000 OA
ATOM     19  O   UNL     1       6.553   3.887  13.106  0.00  0.00    +0.000 OA
ATOM     20  O   UNL     1       7.951   5.902  13.064  0.00  0.00    +0.000 OA
ENDBRANCH  16  17
ENDBRANCH   6  16
TORSDOF 2
ENDMDL
MODEL 5
REMARK VINA RESULT:      -7.8      3.854      6.113
REMARK  Name = 
REMARK  2 active torsions:
REMARK  status: ('A' for Active; 'I' for Inactive)
REMARK    1  A    between atoms: C_6  and  O_7
REMARK    2  A    between atoms: O_7  and  S_8
REMARK                            x       y       z     vdW  Elec       q    Type
REMARK                         _______ _______ _______ _____ _____    ______ ____
ROOT
ATOM      1  O   UNL     1       2.098  10.222  17.519  0.00  0.00    +0.000 OA
ATOM      2  C   UNL     1       1.956   9.276  18.296  0.00  0.00    +0.000 A 
ATOM      3  O   UNL     1       2.529   8.044  18.044  0.00  0.00    +0.000 OA
ATOM      4  C   UNL     1       2.440   6.972  18.956  0.00  0.00    +0.000 A 
ATOM      5  C   UNL     1       3.053   5.778  18.569  0.00  0.00    +0.000 A 
ATOM      6  C   UNL     1       2.998   4.675  19.416  0.00  0.00    +0.000 A 
ATOM      7  C   UNL     1       2.315   4.779  20.624  0.00  0.00    +0.000 A 
ATOM      8  C   UNL     1       1.711   5.985  20.999  0.00  0.00    +0.000 A 
ATOM      9  C   UNL     1       1.769   7.116  20.175  0.00  0.00    +0.000 A 
ATOM     10  C   UNL     1       1.171   8.411  20.510  0.00  0.00    +0.000 A 
ATOM     11  C   UNL     1       0.537   8.680  21.737  0.00  0.00    +0.000 A 
ATOM     12  C   UNL     1      -0.012   9.936  22.018  0.00  0.00    +0.000 A 
ATOM     13  C   UNL     1       0.049  10.952  21.075  0.00  0.00    +0.000 A 
ATOM     14  C   UNL     1       0.669  10.713  19.853  0.00  0.00    +0.000 A 
ATOM     15  C   UNL     1       1.238   9.454  19.580  0.00  0.00    +0.000 A 
ENDROOT
BRANCH   6  16
ATOM     16  O   UNL     1       3.581   3.527  18.949  0.00  0.00    +0.000 OA
BRANCH  16  17
ATOM     17  S   UNL     1       2.725   2.353  18.182  0.00  0.00    +0.000 S 
ATOM     18  O   UNL     1       1.673   2.000  19.132  0.00  0.00    +0.000 OA
ATOM     19  O   UNL     1       2.250   2.983  16.950  0.00  0.00    +0.000 OA
ATOM     20  O   UNL     1       3.718   1.305  17.971  0.00  0.00    +0.000 OA
ENDBRANCH  16  17
ENDBRANCH   6  16
TORSDOF 2
ENDMDL
MODEL 6
REMARK VINA RESULT:      -7.7      1.463      2.337
REMARK  Name = 
REMARK  2 active torsions:
REMARK  status: ('A' for Active; 'I' for Inactive)
REMARK    1  A    between atoms: C_6  and  O_7
REMARK    2  A    between atoms: O_7  and  S_8
REMARK                            x       y       z     vdW  Elec       q    Type
REMARK                         _______ _______ _______ _____ _____    ______ ____
ROOT
ATOM      1  O   UNL     1       2.738   2.478  19.621  0.00  0.00    +0.000 OA
ATOM      2  C   UNL     1       3.257   3.309  18.872  0.00  0.00    +0.000 A 
ATOM      3  O   UNL     1       4.037   2.922  17.797  0.00  0.00    +0.000 OA
ATOM      4  C   UNL     1       4.578   3.854  16.887  0.00  0.00    +0.000 A 
ATOM      5  C   UNL     1       5.358   3.329  15.855  0.00  0.00    +0.000 A 
ATOM      6  C   UNL     1       5.931   4.191  14.924  0.00  0.00    +0.000 A 
ATOM      7  C   UNL     1       5.730   5.561  15.053  0.00  0.00    +0.000 A 
ATOM      8  C   UNL     1       4.940   6.071  16.090  0.00  0.00    +0.000 A 
ATOM      9  C   UNL     1       4.335   5.225  17.028  0.00  0.00    +0.000 A 
ATOM     10  C   UNL     1       3.487   5.689  18.129  0.00  0.00    +0.000 A 
ATOM     11  C   UNL     1       3.125   7.035  18.318  0.00  0.00    +0.000 A 
ATOM     12  C   UNL     1       2.304   7.431  19.379  0.00  0.00    +0.000 A 
ATOM     13  C   UNL     1       1.832   6.492  20.287  0.00  0.00    +0.000 A 
ATOM     14  C   UNL     1       2.176   5.154  20.124  0.00  0.00    +0.000 A 
ATOM     15  C   UNL     1       2.986   4.755  19.044  0.00  0.00    +0.000 A 
ENDROOT
BRANCH   6  16
ATOM     16  O   UNL     1       6.721   3.607  13.969  0.00  0.00    +0.000 OA
BRANCH  16  17
ATOM     17  S   UNL     1       6.302   3.574  12.380  0.00  0.00    +0.000 S 
ATOM     18  O   UNL     1       7.119   4.622  11.774  0.00  0.00    +0.000 OA
ATOM     19  O   UNL     1       6.622   2.217  11.938  0.00  0.00    +0.000 OA
ATOM     20  O   UNL     1       4.873   3.870  12.410  0.00  0.00    +0.000 OA
ENDBRANCH  16  17
ENDBRANCH   6  16
TORSDOF 2
ENDMDL
MODEL 7
REMARK VINA RESULT:      -7.7      3.165      4.597
REMARK  Name = 
REMARK  2 active torsions:
REMARK  status: ('A' for Active; 'I' for Inactive)
REMARK    1  A    between atoms: C_6  and  O_7
REMARK    2  A    between atoms: O_7  and  S_8
REMARK                            x       y       z     vdW  Elec       q    Type
REMARK                         _______ _______ _______ _____ _____    ______ ____
ROOT
ATOM      1  O   UNL     1       1.730  10.486  17.415  0.00  0.00    +0.000 OA
ATOM      2  C   UNL     1       2.040   9.386  17.876  0.00  0.00    +0.000 A 
ATOM      3  O   UNL     1       2.958   8.571  17.240  0.00  0.00    +0.000 OA
ATOM      4  C   UNL     1       3.380   7.342  17.790  0.00  0.00    +0.000 A 
ATOM      5  C   UNL     1       4.301   6.611  17.036  0.00  0.00    +0.000 A 
ATOM      6  C   UNL     1       4.757   5.385  17.513  0.00  0.00    +0.000 A 
ATOM      7  C   UNL     1       4.268   4.904  18.724  0.00  0.00    +0.000 A 
ATOM      8  C   UNL     1       3.349   5.652  19.470  0.00  0.00    +0.000 A 
ATOM      9  C   UNL     1       2.891   6.897  19.023  0.00  0.00    +0.000 A 
ATOM     10  C   UNL     1       1.941   7.737  19.758  0.00  0.00    +0.000 A 
ATOM     11  C   UNL     1       1.444   7.416  21.033  0.00  0.00    +0.000 A 
ATOM     12  C   UNL     1       0.546   8.254  21.703  0.00  0.00    +0.000 A 
ATOM     13  C   UNL     1       0.111   9.430  21.108  0.00  0.00    +0.000 A 
ATOM     14  C   UNL     1       0.586   9.772  19.846  0.00  0.00    +0.000 A 
ATOM     15  C   UNL     1       1.506   8.937  19.183  0.00  0.00    +0.000 A 
ENDROOT
BRANCH   6  16
ATOM     16  O   UNL     1       5.622   4.706  16.698  0.00  0.00    +0.000 OA
BRANCH  16  17
ATOM     17  S   UNL     1       7.181   5.177  16.481  0.00  0.00    +0.000 S 
ATOM     18  O   UNL     1       7.474   4.814  15.096  0.00  0.00    +0.000 OA
ATOM     19  O   UNL     1       7.177   6.615  16.748  0.00  0.00    +0.000 OA
ATOM     20  O   UNL     1       7.905   4.388  17.472  0.00  0.00    +0.000 OA
ENDBRANCH  16  17
ENDBRANCH   6  16
TORSDOF 2
ENDMDL
MODEL 8
REMARK VINA RESULT:      -7.7      5.381      7.010
REMARK  Name = 
REMARK  2 active torsions:
REMARK  status: ('A' for Active; 'I' for Inactive)
REMARK    1  A    between atoms: C_6  and  O_7
REMARK    2  A    between atoms: O_7  and  S_8
REMARK                            x       y       z     vdW  Elec       q    Type
REMARK                         _______ _______ _______ _____ _____    ______ ____
ROOT
ATOM      1  O   UNL     1       3.617   3.552  20.069  0.00  0.00    +0.000 OA
ATOM      2  C   UNL     1       3.371   4.635  19.534  0.00  0.00    +0.000 A 
ATOM      3  O   UNL     1       2.539   5.562  20.134  0.00  0.00    +0.000 OA
ATOM      4  C   UNL     1       2.304   6.835  19.573  0.00  0.00    +0.000 A 
ATOM      5  C   UNL     1       1.432   7.670  20.276  0.00  0.00    +0.000 A 
ATOM      6  C   UNL     1       1.147   8.937  19.778  0.00  0.00    +0.000 A 
ATOM      7  C   UNL     1       1.722   9.340  18.577  0.00  0.00    +0.000 A 
ATOM      8  C   UNL     1       2.600   8.494  17.888  0.00  0.00    +0.000 A 
ATOM      9  C   UNL     1       2.919   7.222  18.377  0.00  0.00    +0.000 A 
ATOM     10  C   UNL     1       3.837   6.291  17.715  0.00  0.00    +0.000 A 
ATOM     11  C   UNL     1       4.559   6.608  16.550  0.00  0.00    +0.000 A 
ATOM     12  C   UNL     1       5.433   5.691  15.957  0.00  0.00    +0.000 A 
ATOM     13  C   UNL     1       5.600   4.428  16.509  0.00  0.00    +0.000 A 
ATOM     14  C   UNL     1       4.897   4.088  17.659  0.00  0.00    +0.000 A 
ATOM     15  C   UNL     1       4.034   5.019  18.266  0.00  0.00    +0.000 A 
ENDROOT
BRANCH   6  16
ATOM     16  O   UNL     1       0.248   9.679  20.497  0.00  0.00    +0.000 OA
BRANCH  16  17
ATOM     17  S   UNL     1       0.377   9.886  22.122  0.00  0.00    +0.000 S 
ATOM     18  O   UNL     1      -0.624   8.977  22.678  0.00  0.00    +0.000 OA
ATOM     19  O   UNL     1       1.761   9.535  22.435  0.00  0.00    +0.000 OA
ATOM     20  O   UNL     1       0.065  11.300  22.300  0.00  0.00    +0.000 OA
ENDBRANCH  16  17
ENDBRANCH   6  16
TORSDOF 2
ENDMDL
MODEL 9
REMARK VINA RESULT:      -7.6      4.576      6.316
REMARK  Name = 
REMARK  2 active torsions:
REMARK  status: ('A' for Active; 'I' for Inactive)
REMARK    1  A    between atoms: C_6  and  O_7
REMARK    2  A    between atoms: O_7  and  S_8
REMARK                            x       y       z     vdW  Elec       q    Type
REMARK                         _______ _______ _______ _____ _____    ______ ____
ROOT
ATOM      1  O   UNL     1       0.980  11.690  18.632  0.00  0.00    +0.000 OA
ATOM      2  C   UNL     1       1.066  10.564  19.128  0.00  0.00    +0.000 A 
ATOM      3  O   UNL     1       1.759   9.549  18.495  0.00  0.00    +0.000 OA
ATOM      4  C   UNL     1       1.931   8.277  19.081  0.00  0.00    +0.000 A 
ATOM      5  C   UNL     1       2.641   7.340  18.327  0.00  0.00    +0.000 A 
ATOM      6  C   UNL     1       2.843   6.061  18.839  0.00  0.00    +0.000 A 
ATOM      7  C   UNL     1       2.314   5.737  20.084  0.00  0.00    +0.000 A 
ATOM      8  C   UNL     1       1.610   6.690  20.830  0.00  0.00    +0.000 A 
ATOM      9  C   UNL     1       1.410   7.990  20.348  0.00  0.00    +0.000 A 
ATOM     10  C   UNL     1       0.695   9.039  21.078  0.00  0.00    +0.000 A 
ATOM     11  C   UNL     1       0.195   8.875  22.383  0.00  0.00    +0.000 A 
ATOM     12  C   UNL     1      -0.473   9.910  23.047  0.00  0.00    +0.000 A 
ATOM     13  C   UNL     1      -0.670  11.132  22.419  0.00  0.00    +0.000 A 
ATOM     14  C   UNL     1      -0.187  11.320  21.128  0.00  0.00    +0.000 A 
ATOM     15  C   UNL     1       0.504  10.285  20.469  0.00  0.00    +0.000 A 
ENDROOT
BRANCH   6  16
ATOM     16  O   UNL     1       3.507   5.184  18.024  0.00  0.00    +0.000 OA
BRANCH  16  17
ATOM     17  S   UNL     1       4.922   4.473  18.462  0.00  0.00    +0.000 S 
ATOM     18  O   UNL     1       5.611   4.239  17.195  0.00  0.00    +0.000 OA
ATOM     19  O   UNL     1       5.572   5.445  19.341  0.00  0.00    +0.000 OA
ATOM     20  O   UNL     1       4.483   3.257  19.139  0.00  0.00    +0.000 OA
ENDBRANCH  16  17
ENDBRANCH   6  16
TORSDOF 2
ENDMDL
