MODEL 1
REMARK VINA RESULT:      -8.6      0.000      0.000
REMARK  Name = 
REMARK  5 active torsions:
REMARK  status: ('A' for Active; 'I' for Inactive)
REMARK    1  A    between atoms: C_2  and  C_3
REMARK    2  A    between atoms: C_3  and  N_4
REMARK    3  A    between atoms: C_8  and  C_9
REMARK    4  A    between atoms: N_22  and  C_23
REMARK    5  A    between atoms: C_23  and  C_24
REMARK                            x       y       z     vdW  Elec       q    Type
REMARK                         _______ _______ _______ _____ _____    ______ ____
ROOT
ATOM      1  N   UNL     1       4.853   5.206  18.134  0.00  0.00    +0.000 N 
ATOM      2  C   UNL     1       4.529   6.491  17.725  0.00  0.00    +0.000 C 
ATOM      3  O   UNL     1       5.386   7.353  17.507  0.00  0.00    +0.000 OA
ATOM      4  C   UNL     1       3.076   6.783  17.484  0.00  0.00    +0.000 C 
ATOM      5  C   UNL     1       2.345   6.752  18.801  0.00  0.00    +0.000 C 
ATOM      6  N   UNL     1       2.158   5.645  19.452  0.00  0.00    +0.000 NA
ATOM      7  C   UNL     1       2.614   4.413  18.937  0.00  0.00    +0.000 A 
ATOM      8  C   UNL     1       1.744   3.329  19.129  0.00  0.00    +0.000 A 
ATOM      9  C   UNL     1       2.080   2.039  18.717  0.00  0.00    +0.000 A 
ATOM     10  C   UNL     1       3.307   1.809  18.115  0.00  0.00    +0.000 A 
ATOM     11  C   UNL     1       4.206   2.863  17.947  0.00  0.00    +0.000 A 
ATOM     12  C   UNL     1       3.882   4.176  18.350  0.00  0.00    +0.000 A 
ENDROOT
BRANCH   5  13
ATOM     13  C   UNL     1       1.831   8.035  19.367  0.00  0.00    +0.000 A 
ATOM     14  C   UNL     1       1.539   8.110  20.734  0.00  0.00    +0.000 A 
ATOM     15  C   UNL     1       1.007   9.283  21.277  0.00  0.00    +0.000 A 
ATOM     16  C   UNL     1       0.775  10.388  20.458  0.00  0.00    +0.000 A 
ATOM     17  C   UNL     1       1.092  10.329  19.102  0.00  0.00    +0.000 A 
ATOM     18  C   UNL     1       1.628   9.160  18.557  0.00  0.00    +0.000 A 
ENDBRANCH   5  13
BRANCH   1  19
ATOM     19  C   UNL     1       6.253   4.917  18.470  0.00  0.00    +0.000 C 
BRANCH  19  21
ATOM     20  O   UNL     1       8.258   4.134  17.380  0.00  0.00    +0.000 OA
ATOM     21  C   UNL     1       7.156   4.666  17.264  0.00  0.00    +0.000 C 
ATOM     22  N   UNL     1       6.683   5.141  16.067  0.00  0.00    +0.000 N 
ATOM     23  H   UNL     1       5.743   5.530  16.022  0.00  0.00    +0.000 HD
BRANCH  22  24
ATOM     24  C   UNL     1       7.423   4.966  14.841  0.00  0.00    +0.000 C 
BRANCH  24  25
ATOM     25  C   UNL     1       6.537   4.324  13.845  0.00  0.00    +0.000 A 
ATOM     26  C   UNL     1       5.202   3.976  13.856  0.00  0.00    +0.000 A 
ATOM     27  C   UNL     1       4.940   3.370  12.603  0.00  0.00    +0.000 A 
ATOM     28  C   UNL     1       6.128   3.390  11.911  0.00  0.00    +0.000 A 
ATOM     29  O   UNL     1       7.106   3.966  12.658  0.00  0.00    +0.000 OA
ENDBRANCH  24  25
ENDBRANCH  22  24
ENDBRANCH  19  21
ENDBRANCH   1  19
TORSDOF 5
ENDMDL
MODEL 2
REMARK VINA RESULT:      -8.4      0.934      1.306
REMARK  Name = 
REMARK  5 active torsions:
REMARK  status: ('A' for Active; 'I' for Inactive)
REMARK    1  A    between atoms: C_2  and  C_3
REMARK    2  A    between atoms: C_3  and  N_4
REMARK    3  A    between atoms: C_8  and  C_9
REMARK    4  A    between atoms: N_22  and  C_23
REMARK    5  A    between atoms: C_23  and  C_24
REMARK                            x       y       z     vdW  Elec       q    Type
REMARK                         _______ _______ _______ _____ _____    ______ ____
ROOT
ATOM      1  N   UNL     1       5.117   5.622  18.467  0.00  0.00    +0.000 N 
ATOM      2  C   UNL     1       4.509   6.615  17.713  0.00  0.00    +0.000 C 
ATOM      3  O   UNL     1       5.154   7.435  17.053  0.00  0.00    +0.000 OA
ATOM      4  C   UNL     1       3.008   6.613  17.671  0.00  0.00    +0.000 C 
ATOM      5  C   UNL     1       2.479   6.979  19.033  0.00  0.00    +0.000 C 
ATOM      6  N   UNL     1       2.589   6.176  20.046  0.00  0.00    +0.000 NA
ATOM      7  C   UNL     1       3.193   4.908  19.907  0.00  0.00    +0.000 A 
ATOM      8  C   UNL     1       2.573   3.871  20.621  0.00  0.00    +0.000 A 
ATOM      9  C   UNL     1       3.084   2.573  20.619  0.00  0.00    +0.000 A 
ATOM     10  C   UNL     1       4.241   2.293  19.909  0.00  0.00    +0.000 A 
ATOM     11  C   UNL     1       4.897   3.314  19.220  0.00  0.00    +0.000 A 
ATOM     12  C   UNL     1       4.393   4.632  19.205  0.00  0.00    +0.000 A 
ENDROOT
BRANCH   5  13
ATOM     13  C   UNL     1       1.816   8.306  19.213  0.00  0.00    +0.000 A 
ATOM     14  C   UNL     1       1.782   9.203  18.139  0.00  0.00    +0.000 A 
ATOM     15  C   UNL     1       1.215  10.470  18.298  0.00  0.00    +0.000 A 
ATOM     16  C   UNL     1       0.670  10.841  19.527  0.00  0.00    +0.000 A 
ATOM     17  C   UNL     1       0.673   9.941  20.591  0.00  0.00    +0.000 A 
ATOM     18  C   UNL     1       1.236   8.672  20.434  0.00  0.00    +0.000 A 
ENDBRANCH   5  13
BRANCH   1  19
ATOM     19  C   UNL     1       6.579   5.654  18.606  0.00  0.00    +0.000 C 
BRANCH  19  21
ATOM     20  O   UNL     1       8.145   4.119  17.600  0.00  0.00    +0.000 OA
ATOM     21  C   UNL     1       7.342   5.035  17.436  0.00  0.00    +0.000 C 
ATOM     22  N   UNL     1       7.120   5.621  16.216  0.00  0.00    +0.000 N 
ATOM     23  H   UNL     1       6.408   6.345  16.132  0.00  0.00    +0.000 HD
BRANCH  22  24
ATOM     24  C   UNL     1       7.763   5.135  15.019  0.00  0.00    +0.000 C 
BRANCH  24  25
ATOM     25  C   UNL     1       6.737   4.516  14.153  0.00  0.00    +0.000 A 
ATOM     26  C   UNL     1       5.398   4.231  14.332  0.00  0.00    +0.000 A 
ATOM     27  C   UNL     1       4.961   3.612  13.136  0.00  0.00    +0.000 A 
ATOM     28  C   UNL     1       6.056   3.562  12.307  0.00  0.00    +0.000 A 
ATOM     29  O   UNL     1       7.141   4.106  12.917  0.00  0.00    +0.000 OA
ENDBRANCH  24  25
ENDBRANCH  22  24
ENDBRANCH  19  21
ENDBRANCH   1  19
TORSDOF 5
ENDMDL
MODEL 3
REMARK VINA RESULT:      -8.0      0.698      1.248
REMARK  Name = 
REMARK  5 active torsions:
REMARK  status: ('A' for Active; 'I' for Inactive)
REMARK    1  A    between atoms: C_2  and  C_3
REMARK    2  A    between atoms: C_3  and  N_4
REMARK    3  A    between atoms: C_8  and  C_9
REMARK    4  A    between atoms: N_22  and  C_23
REMARK    5  A    between atoms: C_23  and  C_24
REMARK                            x       y       z     vdW  Elec       q    Type
REMARK                         _______ _______ _______ _____ _____    ______ ____
ROOT
ATOM      1  N   UNL     1       4.505   5.083  18.261  0.00  0.00    +0.000 N 
ATOM      2  C   UNL     1       4.211   6.398  17.930  0.00  0.00    +0.000 C 
ATOM      3  O   UNL     1       5.088   7.238  17.708  0.00  0.00    +0.000 OA
ATOM      4  C   UNL     1       2.759   6.753  17.780  0.00  0.00    +0.000 C 
ATOM      5  C   UNL     1       2.096   6.684  19.131  0.00  0.00    +0.000 C 
ATOM      6  N   UNL     1       1.900   5.555  19.738  0.00  0.00    +0.000 NA
ATOM      7  C   UNL     1       2.281   4.333  19.143  0.00  0.00    +0.000 A 
ATOM      8  C   UNL     1       1.381   3.273  19.329  0.00  0.00    +0.000 A 
ATOM      9  C   UNL     1       1.645   1.993  18.841  0.00  0.00    +0.000 A 
ATOM     10  C   UNL     1       2.831   1.749  18.165  0.00  0.00    +0.000 A 
ATOM     11  C   UNL     1       3.759   2.777  17.999  0.00  0.00    +0.000 A 
ATOM     12  C   UNL     1       3.508   4.079  18.480  0.00  0.00    +0.000 A 
ENDROOT
BRANCH   5  13
ATOM     13  C   UNL     1       1.660   7.956  19.782  0.00  0.00    +0.000 A 
ATOM     14  C   UNL     1       1.458   9.094  18.991  0.00  0.00    +0.000 A 
ATOM     15  C   UNL     1       1.102  10.309  19.583  0.00  0.00    +0.000 A 
ATOM     16  C   UNL     1       0.938  10.389  20.966  0.00  0.00    +0.000 A 
ATOM     17  C   UNL     1       1.107   9.253  21.755  0.00  0.00    +0.000 A 
ATOM     18  C   UNL     1       1.459   8.036  21.166  0.00  0.00    +0.000 A 
ENDBRANCH   5  13
BRANCH   1  19
ATOM     19  C   UNL     1       5.908   4.727  18.509  0.00  0.00    +0.000 C 
BRANCH  19  21
ATOM     20  O   UNL     1       7.957   5.521  17.513  0.00  0.00    +0.000 OA
ATOM     21  C   UNL     1       6.851   5.012  17.342  0.00  0.00    +0.000 C 
ATOM     22  N   UNL     1       6.347   4.730  16.098  0.00  0.00    +0.000 N 
ATOM     23  H   UNL     1       5.444   4.266  16.019  0.00  0.00    +0.000 HD
BRANCH  22  24
ATOM     24  C   UNL     1       7.129   4.937  14.903  0.00  0.00    +0.000 C 
BRANCH  24  25
ATOM     25  C   UNL     1       6.466   4.239  13.781  0.00  0.00    +0.000 A 
ATOM     26  C   UNL     1       6.929   3.706  12.595  0.00  0.00    +0.000 A 
ATOM     27  C   UNL     1       5.796   3.183  11.926  0.00  0.00    +0.000 A 
ATOM     28  C   UNL     1       4.719   3.428  12.745  0.00  0.00    +0.000 A 
ATOM     29  O   UNL     1       5.116   4.071  13.874  0.00  0.00    +0.000 OA
ENDBRANCH  24  25
ENDBRANCH  22  24
ENDBRANCH  19  21
ENDBRANCH   1  19
TORSDOF 5
ENDMDL
MODEL 4
REMARK VINA RESULT:      -8.0      1.308      1.792
REMARK  Name = 
REMARK  5 active torsions:
REMARK  status: ('A' for Active; 'I' for Inactive)
REMARK    1  A    between atoms: C_2  and  C_3
REMARK    2  A    between atoms: C_3  and  N_4
REMARK    3  A    between atoms: C_8  and  C_9
REMARK    4  A    between atoms: N_22  and  C_23
REMARK    5  A    between atoms: C_23  and  C_24
REMARK                            x       y       z     vdW  Elec       q    Type
REMARK                         _______ _______ _______ _____ _____    ______ ____
ROOT
ATOM      1  N   UNL     1       4.565   5.715  18.495  0.00  0.00    +0.000 N 
ATOM      2  C   UNL     1       3.912   6.695  17.762  0.00  0.00    +0.000 C 
ATOM      3  O   UNL     1       4.504   7.436  16.971  0.00  0.00    +0.000 OA
ATOM      4  C   UNL     1       2.421   6.779  17.915  0.00  0.00    +0.000 C 
ATOM      5  C   UNL     1       2.097   7.255  19.307  0.00  0.00    +0.000 C 
ATOM      6  N   UNL     1       2.301   6.508  20.348  0.00  0.00    +0.000 NA
ATOM      7  C   UNL     1       2.816   5.201  20.216  0.00  0.00    +0.000 A 
ATOM      8  C   UNL     1       2.245   4.246  21.072  0.00  0.00    +0.000 A 
ATOM      9  C   UNL     1       2.685   2.923  21.090  0.00  0.00    +0.000 A 
ATOM     10  C   UNL     1       3.722   2.534  20.255  0.00  0.00    +0.000 A 
ATOM     11  C   UNL     1       4.331   3.472  19.422  0.00  0.00    +0.000 A 
ATOM     12  C   UNL     1       3.896   4.814  19.384  0.00  0.00    +0.000 A 
ENDROOT
BRANCH   5  13
ATOM     13  C   UNL     1       1.531   8.626  19.483  0.00  0.00    +0.000 A 
ATOM     14  C   UNL     1       1.513   9.503  18.391  0.00  0.00    +0.000 A 
ATOM     15  C   UNL     1       1.038  10.808  18.543  0.00  0.00    +0.000 A 
ATOM     16  C   UNL     1       0.570  11.239  19.785  0.00  0.00    +0.000 A 
ATOM     17  C   UNL     1       0.557  10.361  20.868  0.00  0.00    +0.000 A 
ATOM     18  C   UNL     1       1.027   9.055  20.717  0.00  0.00    +0.000 A 
ENDBRANCH   5  13
BRANCH   1  19
ATOM     19  C   UNL     1       6.032   5.669  18.441  0.00  0.00    +0.000 C 
BRANCH  19  21
ATOM     20  O   UNL     1       7.660   4.042  17.717  0.00  0.00    +0.000 OA
ATOM     21  C   UNL     1       6.600   4.621  17.486  0.00  0.00    +0.000 C 
ATOM     22  N   UNL     1       5.885   4.431  16.331  0.00  0.00    +0.000 N 
ATOM     23  H   UNL     1       4.991   4.903  16.215  0.00  0.00    +0.000 HD
BRANCH  22  24
ATOM     24  C   UNL     1       6.296   3.464  15.341  0.00  0.00    +0.000 C 
BRANCH  24  25
ATOM     25  C   UNL     1       6.819   4.190  14.164  0.00  0.00    +0.000 A 
ATOM     26  C   UNL     1       6.617   4.056  12.805  0.00  0.00    +0.000 A 
ATOM     27  C   UNL     1       7.420   5.043  12.185  0.00  0.00    +0.000 A 
ATOM     28  C   UNL     1       8.056   5.715  13.202  0.00  0.00    +0.000 A 
ATOM     29  O   UNL     1       7.699   5.203  14.409  0.00  0.00    +0.000 OA
ENDBRANCH  24  25
ENDBRANCH  22  24
ENDBRANCH  19  21
ENDBRANCH   1  19
TORSDOF 5
ENDMDL
MODEL 5
REMARK VINA RESULT:      -7.9      3.713      7.416
REMARK  Name = 
REMARK  5 active torsions:
REMARK  status: ('A' for Active; 'I' for Inactive)
REMARK    1  A    between atoms: C_2  and  C_3
REMARK    2  A    between atoms: C_3  and  N_4
REMARK    3  A    between atoms: C_8  and  C_9
REMARK    4  A    between atoms: N_22  and  C_23
REMARK    5  A    between atoms: C_23  and  C_24
REMARK                            x       y       z     vdW  Elec       q    Type
REMARK                         _______ _______ _______ _____ _____    ______ ____
ROOT
ATOM      1  N   UNL     1       6.669   5.352  18.138  0.00  0.00    +0.000 N 
ATOM      2  C   UNL     1       7.265   4.423  17.298  0.00  0.00    +0.000 C 
ATOM      3  O   UNL     1       8.489   4.272  17.239  0.00  0.00    +0.000 OA
ATOM      4  C   UNL     1       6.348   3.541  16.500  0.00  0.00    +0.000 C 
ATOM      5  C   UNL     1       5.634   4.380  15.472  0.00  0.00    +0.000 C 
ATOM      6  N   UNL     1       4.731   5.249  15.809  0.00  0.00    +0.000 NA
ATOM      7  C   UNL     1       4.362   5.429  17.159  0.00  0.00    +0.000 A 
ATOM      8  C   UNL     1       2.991   5.631  17.380  0.00  0.00    +0.000 A 
ATOM      9  C   UNL     1       2.483   5.870  18.657  0.00  0.00    +0.000 A 
ATOM     10  C   UNL     1       3.347   5.927  19.739  0.00  0.00    +0.000 A 
ATOM     11  C   UNL     1       4.719   5.766  19.541  0.00  0.00    +0.000 A 
ATOM     12  C   UNL     1       5.252   5.516  18.259  0.00  0.00    +0.000 A 
ENDROOT
BRANCH   5  13
ATOM     13  C   UNL     1       5.985   4.203  14.031  0.00  0.00    +0.000 A 
ATOM     14  C   UNL     1       5.148   3.433  13.214  0.00  0.00    +0.000 A 
ATOM     15  C   UNL     1       5.483   3.208  11.876  0.00  0.00    +0.000 A 
ATOM     16  C   UNL     1       6.649   3.761  11.347  0.00  0.00    +0.000 A 
ATOM     17  C   UNL     1       7.469   4.554  12.147  0.00  0.00    +0.000 A 
ATOM     18  C   UNL     1       7.136   4.784  13.483  0.00  0.00    +0.000 A 
ENDBRANCH   5  13
BRANCH   1  19
ATOM     19  C   UNL     1       7.536   6.293  18.859  0.00  0.00    +0.000 C 
BRANCH  19  21
ATOM     20  O   UNL     1       7.522   7.735  16.925  0.00  0.00    +0.000 OA
ATOM     21  C   UNL     1       7.837   7.586  18.104  0.00  0.00    +0.000 C 
ATOM     22  N   UNL     1       8.541   8.528  18.810  0.00  0.00    +0.000 N 
ATOM     23  H   UNL     1       8.734   8.370  19.797  0.00  0.00    +0.000 HD
BRANCH  22  24
ATOM     24  C   UNL     1       8.886   9.803  18.229  0.00  0.00    +0.000 C 
BRANCH  24  25
ATOM     25  C   UNL     1       9.558  10.622  19.260  0.00  0.00    +0.000 A 
ATOM     26  C   UNL     1       9.220  10.979  20.550  0.00  0.00    +0.000 A 
ATOM     27  C   UNL     1      10.271  11.802  21.023  0.00  0.00    +0.000 A 
ATOM     28  C   UNL     1      11.179  11.892  19.995  0.00  0.00    +0.000 A 
ATOM     29  O   UNL     1      10.754  11.180  18.919  0.00  0.00    +0.000 OA
ENDBRANCH  24  25
ENDBRANCH  22  24
ENDBRANCH  19  21
ENDBRANCH   1  19
TORSDOF 5
ENDMDL
MODEL 6
REMARK VINA RESULT:      -7.7      1.903      7.329
REMARK  Name = 
REMARK  5 active torsions:
REMARK  status: ('A' for Active; 'I' for Inactive)
REMARK    1  A    between atoms: C_2  and  C_3
REMARK    2  A    between atoms: C_3  and  N_4
REMARK    3  A    between atoms: C_8  and  C_9
REMARK    4  A    between atoms: N_22  and  C_23
REMARK    5  A    between atoms: C_23  and  C_24
REMARK                            x       y       z     vdW  Elec       q    Type
REMARK                         _______ _______ _______ _____ _____    ______ ____
ROOT
ATOM      1  N   UNL     1       4.394   5.602  18.491  0.00  0.00    +0.000 N 
ATOM      2  C   UNL     1       5.653   5.612  17.910  0.00  0.00    +0.000 C 
ATOM      3  O   UNL     1       6.393   6.599  17.951  0.00  0.00    +0.000 OA
ATOM      4  C   UNL     1       6.121   4.334  17.278  0.00  0.00    +0.000 C 
ATOM      5  C   UNL     1       5.287   4.058  16.054  0.00  0.00    +0.000 C 
ATOM      6  N   UNL     1       4.038   3.719  16.141  0.00  0.00    +0.000 NA
ATOM      7  C   UNL     1       3.411   3.571  17.397  0.00  0.00    +0.000 A 
ATOM      8  C   UNL     1       2.520   2.491  17.494  0.00  0.00    +0.000 A 
ATOM      9  C   UNL     1       1.790   2.246  18.658  0.00  0.00    +0.000 A 
ATOM     10  C   UNL     1       1.931   3.094  19.746  0.00  0.00    +0.000 A 
ATOM     11  C   UNL     1       2.782   4.196  19.662  0.00  0.00    +0.000 A 
ATOM     12  C   UNL     1       3.534   4.457  18.497  0.00  0.00    +0.000 A 
ENDROOT
BRANCH   5  13
ATOM     13  C   UNL     1       5.924   4.186  14.708  0.00  0.00    +0.000 A 
ATOM     14  C   UNL     1       5.375   3.489  13.625  0.00  0.00    +0.000 A 
ATOM     15  C   UNL     1       5.983   3.550  12.368  0.00  0.00    +0.000 A 
ATOM     16  C   UNL     1       7.134   4.317  12.186  0.00  0.00    +0.000 A 
ATOM     17  C   UNL     1       7.667   5.037  13.254  0.00  0.00    +0.000 A 
ATOM     18  C   UNL     1       7.059   4.981  14.510  0.00  0.00    +0.000 A 
ENDBRANCH   5  13
BRANCH   1  19
ATOM     19  C   UNL     1       3.868   6.861  19.032  0.00  0.00    +0.000 C 
BRANCH  19  21
ATOM     20  O   UNL     1       3.369   7.776  16.856  0.00  0.00    +0.000 OA
ATOM     21  C   UNL     1       3.050   7.687  18.040  0.00  0.00    +0.000 C 
ATOM     22  N   UNL     1       1.990   8.370  18.579  0.00  0.00    +0.000 N 
ATOM     23  H   UNL     1       1.746   8.221  19.557  0.00  0.00    +0.000 HD
BRANCH  22  24
ATOM     24  C   UNL     1       1.122   9.181  17.760  0.00  0.00    +0.000 C 
BRANCH  24  25
ATOM     25  C   UNL     1       0.358  10.089  18.643  0.00  0.00    +0.000 A 
ATOM     26  C   UNL     1      -0.989  10.358  18.784  0.00  0.00    +0.000 A 
ATOM     27  C   UNL     1      -1.093  11.347  19.791  0.00  0.00    +0.000 A 
ATOM     28  C   UNL     1       0.192  11.615  20.201  0.00  0.00    +0.000 A 
ATOM     29  O   UNL     1       1.081  10.858  19.507  0.00  0.00    +0.000 OA
ENDBRANCH  24  25
ENDBRANCH  22  24
ENDBRANCH  19  21
ENDBRANCH   1  19
TORSDOF 5
ENDMDL
MODEL 7
REMARK VINA RESULT:      -7.5      2.081      7.349
REMARK  Name = 
REMARK  5 active torsions:
REMARK  status: ('A' for Active; 'I' for Inactive)
REMARK    1  A    between atoms: C_2  and  C_3
REMARK    2  A    between atoms: C_3  and  N_4
REMARK    3  A    between atoms: C_8  and  C_9
REMARK    4  A    between atoms: N_22  and  C_23
REMARK    5  A    between atoms: C_23  and  C_24
REMARK                            x       y       z     vdW  Elec       q    Type
REMARK                         _______ _______ _______ _____ _____    ______ ____
ROOT
ATOM      1  N   UNL     1       3.685   5.478  19.128  0.00  0.00    +0.000 N 
ATOM      2  C   UNL     1       5.005   5.474  18.700  0.00  0.00    +0.000 C 
ATOM      3  O   UNL     1       5.756   6.440  18.860  0.00  0.00    +0.000 OA
ATOM      4  C   UNL     1       5.517   4.203  18.087  0.00  0.00    +0.000 C 
ATOM      5  C   UNL     1       4.828   3.985  16.764  0.00  0.00    +0.000 C 
ATOM      6  N   UNL     1       3.571   3.676  16.693  0.00  0.00    +0.000 NA
ATOM      7  C   UNL     1       2.795   3.507  17.860  0.00  0.00    +0.000 A 
ATOM      8  C   UNL     1       1.875   2.448  17.816  0.00  0.00    +0.000 A 
ATOM      9  C   UNL     1       1.007   2.188  18.876  0.00  0.00    +0.000 A 
ATOM     10  C   UNL     1       1.035   2.999  20.000  0.00  0.00    +0.000 A 
ATOM     11  C   UNL     1       1.915   4.081  20.053  0.00  0.00    +0.000 A 
ATOM     12  C   UNL     1       2.806   4.357  18.994  0.00  0.00    +0.000 A 
ENDROOT
BRANCH   5  13
ATOM     13  C   UNL     1       5.623   4.136  15.508  0.00  0.00    +0.000 A 
ATOM     14  C   UNL     1       6.789   4.910  15.527  0.00  0.00    +0.000 A 
ATOM     15  C   UNL     1       7.521   5.110  14.354  0.00  0.00    +0.000 A 
ATOM     16  C   UNL     1       7.095   4.529  13.159  0.00  0.00    +0.000 A 
ATOM     17  C   UNL     1       5.952   3.732  13.140  0.00  0.00    +0.000 A 
ATOM     18  C   UNL     1       5.221   3.527  14.313  0.00  0.00    +0.000 A 
ENDBRANCH   5  13
BRANCH   1  19
ATOM     19  C   UNL     1       3.127   6.735  19.644  0.00  0.00    +0.000 C 
BRANCH  19  21
ATOM     20  O   UNL     1       2.846   7.552  17.391  0.00  0.00    +0.000 OA
ATOM     21  C   UNL     1       2.533   7.652  18.575  0.00  0.00    +0.000 C 
ATOM     22  N   UNL     1       1.694   8.631  19.043  0.00  0.00    +0.000 N 
ATOM     23  H   UNL     1       1.434   8.636  20.028  0.00  0.00    +0.000 HD
BRANCH  22  24
ATOM     24  C   UNL     1       1.051   9.562  18.148  0.00  0.00    +0.000 C 
BRANCH  24  25
ATOM     25  C   UNL     1       0.251  10.510  18.953  0.00  0.00    +0.000 A 
ATOM     26  C   UNL     1      -0.224  11.784  18.716  0.00  0.00    +0.000 A 
ATOM     27  C   UNL     1      -0.912  12.176  19.889  0.00  0.00    +0.000 A 
ATOM     28  C   UNL     1      -0.815  11.120  20.763  0.00  0.00    +0.000 A 
ATOM     29  O   UNL     1      -0.108  10.102  20.204  0.00  0.00    +0.000 OA
ENDBRANCH  24  25
ENDBRANCH  22  24
ENDBRANCH  19  21
ENDBRANCH   1  19
TORSDOF 5
ENDMDL
MODEL 8
REMARK VINA RESULT:      -7.5      2.167      7.092
REMARK  Name = 
REMARK  5 active torsions:
REMARK  status: ('A' for Active; 'I' for Inactive)
REMARK    1  A    between atoms: C_2  and  C_3
REMARK    2  A    between atoms: C_3  and  N_4
REMARK    3  A    between atoms: C_8  and  C_9
REMARK    4  A    between atoms: N_22  and  C_23
REMARK    5  A    between atoms: C_23  and  C_24
REMARK                            x       y       z     vdW  Elec       q    Type
REMARK                         _______ _______ _______ _____ _____    ______ ____
ROOT
ATOM      1  N   UNL     1       3.477   5.473  19.304  0.00  0.00    +0.000 N 
ATOM      2  C   UNL     1       4.812   5.458  18.929  0.00  0.00    +0.000 C 
ATOM      3  O   UNL     1       5.567   6.414  19.129  0.00  0.00    +0.000 OA
ATOM      4  C   UNL     1       5.335   4.187  18.323  0.00  0.00    +0.000 C 
ATOM      5  C   UNL     1       4.698   3.990  16.973  0.00  0.00    +0.000 C 
ATOM      6  N   UNL     1       3.441   3.696  16.848  0.00  0.00    +0.000 NA
ATOM      7  C   UNL     1       2.618   3.524  17.981  0.00  0.00    +0.000 A 
ATOM      8  C   UNL     1       1.689   2.475  17.890  0.00  0.00    +0.000 A 
ATOM      9  C   UNL     1       0.776   2.214  18.913  0.00  0.00    +0.000 A 
ATOM     10  C   UNL     1       0.769   3.014  20.045  0.00  0.00    +0.000 A 
ATOM     11  C   UNL     1       1.657   4.086  20.144  0.00  0.00    +0.000 A 
ATOM     12  C   UNL     1       2.592   4.362  19.124  0.00  0.00    +0.000 A 
ENDROOT
BRANCH   5  13
ATOM     13  C   UNL     1       5.543   4.145  15.751  0.00  0.00    +0.000 A 
ATOM     14  C   UNL     1       6.751   4.846  15.841  0.00  0.00    +0.000 A 
ATOM     15  C   UNL     1       7.534   5.050  14.701  0.00  0.00    +0.000 A 
ATOM     16  C   UNL     1       7.117   4.544  13.470  0.00  0.00    +0.000 A 
ATOM     17  C   UNL     1       5.931   3.819  13.380  0.00  0.00    +0.000 A 
ATOM     18  C   UNL     1       5.149   3.610  14.518  0.00  0.00    +0.000 A 
ENDBRANCH   5  13
BRANCH   1  19
ATOM     19  C   UNL     1       2.912   6.730  19.810  0.00  0.00    +0.000 C 
BRANCH  19  21
ATOM     20  O   UNL     1       2.671   7.519  17.542  0.00  0.00    +0.000 OA
ATOM     21  C   UNL     1       2.380   7.669  18.727  0.00  0.00    +0.000 C 
ATOM     22  N   UNL     1       1.625   8.720  19.181  0.00  0.00    +0.000 N 
ATOM     23  H   UNL     1       1.377   8.766  20.168  0.00  0.00    +0.000 HD
BRANCH  22  24
ATOM     24  C   UNL     1       1.047   9.680  18.272  0.00  0.00    +0.000 C 
BRANCH  24  25
ATOM     25  C   UNL     1       1.428  11.037  18.719  0.00  0.00    +0.000 A 
ATOM     26  C   UNL     1       1.023  11.834  19.771  0.00  0.00    +0.000 A 
ATOM     27  C   UNL     1       1.746  13.045  19.652  0.00  0.00    +0.000 A 
ATOM     28  C   UNL     1       2.544  12.910  18.541  0.00  0.00    +0.000 A 
ATOM     29  O   UNL     1       2.357  11.693  17.965  0.00  0.00    +0.000 OA
ENDBRANCH  24  25
ENDBRANCH  22  24
ENDBRANCH  19  21
ENDBRANCH   1  19
TORSDOF 5
ENDMDL
MODEL 9
REMARK VINA RESULT:      -7.5      2.170      7.532
REMARK  Name = 
REMARK  5 active torsions:
REMARK  status: ('A' for Active; 'I' for Inactive)
REMARK    1  A    between atoms: C_2  and  C_3
REMARK    2  A    between atoms: C_3  and  N_4
REMARK    3  A    between atoms: C_8  and  C_9
REMARK    4  A    between atoms: N_22  and  C_23
REMARK    5  A    between atoms: C_23  and  C_24
REMARK                            x       y       z     vdW  Elec       q    Type
REMARK                         _______ _______ _______ _____ _____    ______ ____
ROOT
ATOM      1  N   UNL     1       3.296   5.956  17.892  0.00  0.00    +0.000 N 
ATOM      2  C   UNL     1       4.320   6.508  17.138  0.00  0.00    +0.000 C 
ATOM      3  O   UNL     1       4.225   7.616  16.601  0.00  0.00    +0.000 OA
ATOM      4  C   UNL     1       5.600   5.728  17.054  0.00  0.00    +0.000 C 
ATOM      5  C   UNL     1       5.357   4.472  16.257  0.00  0.00    +0.000 C 
ATOM      6  N   UNL     1       4.633   3.501  16.720  0.00  0.00    +0.000 NA
ATOM      7  C   UNL     1       4.058   3.570  18.007  0.00  0.00    +0.000 A 
ATOM      8  C   UNL     1       4.080   2.370  18.735  0.00  0.00    +0.000 A 
ATOM      9  C   UNL     1       3.507   2.273  20.003  0.00  0.00    +0.000 A 
ATOM     10  C   UNL     1       2.885   3.379  20.561  0.00  0.00    +0.000 A 
ATOM     11  C   UNL     1       2.818   4.573  19.842  0.00  0.00    +0.000 A 
ATOM     12  C   UNL     1       3.397   4.694  18.562  0.00  0.00    +0.000 A 
ENDROOT
BRANCH   5  13
ATOM     13  C   UNL     1       5.966   4.355  14.898  0.00  0.00    +0.000 A 
ATOM     14  C   UNL     1       7.132   5.074  14.608  0.00  0.00    +0.000 A 
ATOM     15  C   UNL     1       7.691   5.022  13.328  0.00  0.00    +0.000 A 
ATOM     16  C   UNL     1       7.093   4.245  12.337  0.00  0.00    +0.000 A 
ATOM     17  C   UNL     1       5.949   3.503  12.628  0.00  0.00    +0.000 A 
ATOM     18  C   UNL     1       5.391   3.549  13.907  0.00  0.00    +0.000 A 
ENDBRANCH   5  13
BRANCH   1  19
ATOM     19  C   UNL     1       2.000   6.647  17.916  0.00  0.00    +0.000 C 
BRANCH  19  21
ATOM     20  O   UNL     1       2.112   8.075  19.857  0.00  0.00    +0.000 OA
ATOM     21  C   UNL     1       2.013   7.995  18.635  0.00  0.00    +0.000 C 
ATOM     22  N   UNL     1       1.832   9.090  17.830  0.00  0.00    +0.000 N 
ATOM     23  H   UNL     1       1.803   8.967  16.819  0.00  0.00    +0.000 HD
BRANCH  22  24
ATOM     24  C   UNL     1       1.833  10.430  18.368  0.00  0.00    +0.000 C 
BRANCH  24  25
ATOM     25  C   UNL     1       0.466  10.750  18.832  0.00  0.00    +0.000 A 
ATOM     26  C   UNL     1      -0.771  10.714  18.221  0.00  0.00    +0.000 A 
ATOM     27  C   UNL     1      -1.704  11.160  19.187  0.00  0.00    +0.000 A 
ATOM     28  C   UNL     1      -0.979  11.436  20.322  0.00  0.00    +0.000 A 
ATOM     29  O   UNL     1       0.341  11.192  20.116  0.00  0.00    +0.000 OA
ENDBRANCH  24  25
ENDBRANCH  22  24
ENDBRANCH  19  21
ENDBRANCH   1  19
TORSDOF 5
ENDMDL
