MODEL 1
REMARK VINA RESULT:      -6.0      0.000      0.000
REMARK  Name = 
REMARK  13 active torsions:
REMARK  status: ('A' for Active; 'I' for Inactive)
REMARK    1  A    between atoms: N_4  and  C_5
REMARK    2  A    between atoms: C_5  and  C_6
REMARK    3  A    between atoms: C_6  and  C_7
REMARK    4  A    between atoms: C_7  and  C_8
REMARK    5  A    between atoms: C_8  and  C_9
REMARK    6  A    between atoms: C_9  and  C_10
REMARK    7  A    between atoms: C_10  and  C_11
REMARK    8  A    between atoms: C_11  and  C_12
REMARK    9  A    between atoms: C_12  and  C_13
REMARK   10  A    between atoms: C_13  and  C_14
REMARK   11  A    between atoms: C_14  and  C_15
REMARK   12  A    between atoms: C_15  and  C_16
REMARK   13  A    between atoms: C_16  and  N_17
REMARK                            x       y       z     vdW  Elec       q    Type
REMARK                         _______ _______ _______ _____ _____    ______ ____
ROOT
ATOM      1  C   UNL     1       2.739   5.055  20.426  0.00  0.00    +0.000 C 
ENDROOT
BRANCH   1   2
ATOM      2  C   UNL     1       3.215   6.319  19.705  0.00  0.00    +0.000 C 
BRANCH   2   3
ATOM      3  C   UNL     1       2.326   6.709  18.527  0.00  0.00    +0.000 C 
BRANCH   3   4
ATOM      4  C   UNL     1       2.702   8.059  17.913  0.00  0.00    +0.000 C 
BRANCH   4   5
ATOM      5  C   UNL     1       1.523   9.033  17.792  0.00  0.00    +0.000 C 
BRANCH   5   6
ATOM      6  C   UNL     1       0.984   9.542  19.132  0.00  0.00    +0.000 C 
BRANCH   6  10
ATOM      7  C   UNL     1      -2.625  11.673  18.494  0.00  0.00    +0.000 A 
ATOM      8  C   UNL     1      -1.794  11.988  19.563  0.00  0.00    +0.000 A 
ATOM      9  C   UNL     1      -0.626  11.261  19.750  0.00  0.00    +0.000 A 
ATOM     10  N   UNL     1      -0.278  10.278  18.891  0.00  0.00    +0.000 N 
ATOM     11  C   UNL     1      -1.053   9.997  17.824  0.00  0.00    +0.000 A 
ATOM     12  C   UNL     1      -2.259  10.660  17.622  0.00  0.00    +0.000 A 
ENDBRANCH   6  10
ENDBRANCH   5   6
ENDBRANCH   4   5
ENDBRANCH   3   4
ENDBRANCH   2   3
ENDBRANCH   1   2
BRANCH   1  13
ATOM     13  C   UNL     1       1.246   4.760  20.224  0.00  0.00    +0.000 C 
BRANCH  13  14
ATOM     14  C   UNL     1       0.917   3.264  20.158  0.00  0.00    +0.000 C 
BRANCH  14  15
ATOM     15  C   UNL     1       0.793   2.779  18.710  0.00  0.00    +0.000 C 
BRANCH  15  16
ATOM     16  C   UNL     1       2.096   2.249  18.118  0.00  0.00    +0.000 C 
BRANCH  16  17
ATOM     17  C   UNL     1       2.886   3.264  17.275  0.00  0.00    +0.000 C 
BRANCH  17  18
ATOM     18  C   UNL     1       4.406   3.076  17.302  0.00  0.00    +0.000 C 
BRANCH  18  19
ATOM     19  N   UNL     1       5.179   4.358  17.339  0.00  0.00    +0.000 N 
ATOM     20  C   UNL     1       6.094   4.644  18.295  0.00  0.00    +0.000 A 
ATOM     21  C   UNL     1       6.770   5.857  18.311  0.00  0.00    +0.000 A 
ATOM     22  C   UNL     1       6.508   6.793  17.327  0.00  0.00    +0.000 A 
ATOM     23  C   UNL     1       5.585   6.489  16.340  0.00  0.00    +0.000 A 
ATOM     24  C   UNL     1       4.925   5.264  16.358  0.00  0.00    +0.000 A 
ENDBRANCH  18  19
ENDBRANCH  17  18
ENDBRANCH  16  17
ENDBRANCH  15  16
ENDBRANCH  14  15
ENDBRANCH  13  14
ENDBRANCH   1  13
TORSDOF 13
ENDMDL
MODEL 2
REMARK VINA RESULT:      -5.9      1.315      8.225
REMARK  Name = 
REMARK  13 active torsions:
REMARK  status: ('A' for Active; 'I' for Inactive)
REMARK    1  A    between atoms: N_4  and  C_5
REMARK    2  A    between atoms: C_5  and  C_6
REMARK    3  A    between atoms: C_6  and  C_7
REMARK    4  A    between atoms: C_7  and  C_8
REMARK    5  A    between atoms: C_8  and  C_9
REMARK    6  A    between atoms: C_9  and  C_10
REMARK    7  A    between atoms: C_10  and  C_11
REMARK    8  A    between atoms: C_11  and  C_12
REMARK    9  A    between atoms: C_12  and  C_13
REMARK   10  A    between atoms: C_13  and  C_14
REMARK   11  A    between atoms: C_14  and  C_15
REMARK   12  A    between atoms: C_15  and  C_16
REMARK   13  A    between atoms: C_16  and  N_17
REMARK                            x       y       z     vdW  Elec       q    Type
REMARK                         _______ _______ _______ _____ _____    ______ ____
ROOT
ATOM      1  C   UNL     1       1.616   5.822  19.805  0.00  0.00    +0.000 C 
ENDROOT
BRANCH   1   2
ATOM      2  C   UNL     1       2.207   4.880  20.858  0.00  0.00    +0.000 C 
BRANCH   2   3
ATOM      3  C   UNL     1       1.402   3.594  21.032  0.00  0.00    +0.000 C 
BRANCH   3   4
ATOM      4  C   UNL     1       1.549   2.630  19.853  0.00  0.00    +0.000 C 
BRANCH   4   5
ATOM      5  C   UNL     1       2.987   2.150  19.622  0.00  0.00    +0.000 C 
BRANCH   5   6
ATOM      6  C   UNL     1       3.455   2.234  18.167  0.00  0.00    +0.000 C 
BRANCH   6  10
ATOM      7  C   UNL     1       5.715   5.777  17.605  0.00  0.00    +0.000 A 
ATOM      8  C   UNL     1       4.940   5.259  16.574  0.00  0.00    +0.000 A 
ATOM      9  C   UNL     1       4.222   4.090  16.788  0.00  0.00    +0.000 A 
ATOM     10  N   UNL     1       4.248   3.473  17.990  0.00  0.00    +0.000 N 
ATOM     11  C   UNL     1       4.959   3.994  19.011  0.00  0.00    +0.000 A 
ATOM     12  C   UNL     1       5.736   5.133  18.832  0.00  0.00    +0.000 A 
ENDBRANCH   6  10
ENDBRANCH   5   6
ENDBRANCH   4   5
ENDBRANCH   3   4
ENDBRANCH   2   3
ENDBRANCH   1   2
BRANCH   1  13
ATOM     13  C   UNL     1       2.435   7.105  19.602  0.00  0.00    +0.000 C 
BRANCH  13  14
ATOM     14  C   UNL     1       2.559   7.531  18.135  0.00  0.00    +0.000 C 
BRANCH  14  15
ATOM     15  C   UNL     1       1.934   8.909  17.894  0.00  0.00    +0.000 C 
BRANCH  15  16
ATOM     16  C   UNL     1       1.294   9.526  19.134  0.00  0.00    +0.000 C 
BRANCH  16  17
ATOM     17  C   UNL     1       0.296  10.661  18.853  0.00  0.00    +0.000 C 
BRANCH  17  18
ATOM     18  C   UNL     1      -1.163  10.330  19.184  0.00  0.00    +0.000 C 
BRANCH  18  19
ATOM     19  N   UNL     1      -2.099  10.469  18.025  0.00  0.00    +0.000 N 
ATOM     20  C   UNL     1      -1.935   9.806  16.855  0.00  0.00    +0.000 A 
ATOM     21  C   UNL     1      -2.810   9.984  15.792  0.00  0.00    +0.000 A 
ATOM     22  C   UNL     1      -3.877  10.854  15.930  0.00  0.00    +0.000 A 
ATOM     23  C   UNL     1      -4.052  11.516  17.133  0.00  0.00    +0.000 A 
ATOM     24  C   UNL     1      -3.152  11.314  18.176  0.00  0.00    +0.000 A 
ENDBRANCH  18  19
ENDBRANCH  17  18
ENDBRANCH  16  17
ENDBRANCH  15  16
ENDBRANCH  14  15
ENDBRANCH  13  14
ENDBRANCH   1  13
TORSDOF 13
ENDMDL
MODEL 3
REMARK VINA RESULT:      -5.7      0.798      7.807
REMARK  Name = 
REMARK  13 active torsions:
REMARK  status: ('A' for Active; 'I' for Inactive)
REMARK    1  A    between atoms: N_4  and  C_5
REMARK    2  A    between atoms: C_5  and  C_6
REMARK    3  A    between atoms: C_6  and  C_7
REMARK    4  A    between atoms: C_7  and  C_8
REMARK    5  A    between atoms: C_8  and  C_9
REMARK    6  A    between atoms: C_9  and  C_10
REMARK    7  A    between atoms: C_10  and  C_11
REMARK    8  A    between atoms: C_11  and  C_12
REMARK    9  A    between atoms: C_12  and  C_13
REMARK   10  A    between atoms: C_13  and  C_14
REMARK   11  A    between atoms: C_14  and  C_15
REMARK   12  A    between atoms: C_15  and  C_16
REMARK   13  A    between atoms: C_16  and  N_17
REMARK                            x       y       z     vdW  Elec       q    Type
REMARK                         _______ _______ _______ _____ _____    ______ ____
ROOT
ATOM      1  C   UNL     1       2.335   4.710  20.967  0.00  0.00    +0.000 C 
ENDROOT
BRANCH   1   2
ATOM      2  C   UNL     1       1.464   3.455  21.062  0.00  0.00    +0.000 C 
BRANCH   2   3
ATOM      3  C   UNL     1       0.752   3.118  19.754  0.00  0.00    +0.000 C 
BRANCH   3   4
ATOM      4  C   UNL     1       1.585   2.228  18.830  0.00  0.00    +0.000 C 
BRANCH   4   5
ATOM      5  C   UNL     1       2.310   2.998  17.719  0.00  0.00    +0.000 C 
BRANCH   5   6
ATOM      6  C   UNL     1       3.778   2.605  17.533  0.00  0.00    +0.000 C 
BRANCH   6  10
ATOM      7  C   UNL     1       6.177   6.091  17.800  0.00  0.00    +0.000 A 
ATOM      8  C   UNL     1       5.538   5.757  16.611  0.00  0.00    +0.000 A 
ATOM      9  C   UNL     1       4.771   4.601  16.555  0.00  0.00    +0.000 A 
ATOM     10  N   UNL     1       4.617   3.821  17.646  0.00  0.00    +0.000 N 
ATOM     11  C   UNL     1       5.193   4.160  18.818  0.00  0.00    +0.000 A 
ATOM     12  C   UNL     1       6.014   5.279  18.911  0.00  0.00    +0.000 A 
ENDBRANCH   6  10
ENDBRANCH   5   6
ENDBRANCH   4   5
ENDBRANCH   3   4
ENDBRANCH   2   3
ENDBRANCH   1   2
BRANCH   1  13
ATOM     13  C   UNL     1       1.729   5.812  20.085  0.00  0.00    +0.000 C 
BRANCH  13  14
ATOM     14  C   UNL     1       2.734   6.893  19.673  0.00  0.00    +0.000 C 
BRANCH  14  15
ATOM     15  C   UNL     1       2.640   7.209  18.176  0.00  0.00    +0.000 C 
BRANCH  15  16
ATOM     16  C   UNL     1       1.594   8.265  17.829  0.00  0.00    +0.000 C 
BRANCH  16  17
ATOM     17  C   UNL     1       1.649   9.540  18.687  0.00  0.00    +0.000 C 
BRANCH  17  18
ATOM     18  C   UNL     1       0.614   9.601  19.815  0.00  0.00    +0.000 C 
BRANCH  18  19
ATOM     19  N   UNL     1      -0.603  10.406  19.483  0.00  0.00    +0.000 N 
ATOM     20  C   UNL     1      -1.366  10.180  18.388  0.00  0.00    +0.000 A 
ATOM     21  C   UNL     1      -2.473  10.969  18.100  0.00  0.00    +0.000 A 
ATOM     22  C   UNL     1      -2.808  12.005  18.952  0.00  0.00    +0.000 A 
ATOM     23  C   UNL     1      -2.035  12.222  20.081  0.00  0.00    +0.000 A 
ATOM     24  C   UNL     1      -0.932  11.412  20.336  0.00  0.00    +0.000 A 
ENDBRANCH  18  19
ENDBRANCH  17  18
ENDBRANCH  16  17
ENDBRANCH  15  16
ENDBRANCH  14  15
ENDBRANCH  13  14
ENDBRANCH   1  13
TORSDOF 13
ENDMDL
MODEL 4
REMARK VINA RESULT:      -5.7      4.102      7.706
REMARK  Name = 
REMARK  13 active torsions:
REMARK  status: ('A' for Active; 'I' for Inactive)
REMARK    1  A    between atoms: N_4  and  C_5
REMARK    2  A    between atoms: C_5  and  C_6
REMARK    3  A    between atoms: C_6  and  C_7
REMARK    4  A    between atoms: C_7  and  C_8
REMARK    5  A    between atoms: C_8  and  C_9
REMARK    6  A    between atoms: C_9  and  C_10
REMARK    7  A    between atoms: C_10  and  C_11
REMARK    8  A    between atoms: C_11  and  C_12
REMARK    9  A    between atoms: C_12  and  C_13
REMARK   10  A    between atoms: C_13  and  C_14
REMARK   11  A    between atoms: C_14  and  C_15
REMARK   12  A    between atoms: C_15  and  C_16
REMARK   13  A    between atoms: C_16  and  N_17
REMARK                            x       y       z     vdW  Elec       q    Type
REMARK                         _______ _______ _______ _____ _____    ______ ____
ROOT
ATOM      1  C   UNL     1       4.693   5.453  17.854  0.00  0.00    +0.000 C 
ENDROOT
BRANCH   1   2
ATOM      2  C   UNL     1       3.568   6.364  18.353  0.00  0.00    +0.000 C 
BRANCH   2   3
ATOM      3  C   UNL     1       3.303   6.227  19.850  0.00  0.00    +0.000 C 
BRANCH   3   4
ATOM      4  C   UNL     1       1.824   6.368  20.213  0.00  0.00    +0.000 C 
BRANCH   4   5
ATOM      5  C   UNL     1       1.182   5.067  20.709  0.00  0.00    +0.000 C 
BRANCH   5   6
ATOM      6  C   UNL     1       2.181   4.018  21.205  0.00  0.00    +0.000 C 
BRANCH   6  10
ATOM      7  C   UNL     1       3.471   1.645  17.936  0.00  0.00    +0.000 A 
ATOM      8  C   UNL     1       4.272   1.799  19.062  0.00  0.00    +0.000 A 
ATOM      9  C   UNL     1       3.824   2.594  20.109  0.00  0.00    +0.000 A 
ATOM     10  N   UNL     1       2.613   3.190  20.055  0.00  0.00    +0.000 N 
ATOM     11  C   UNL     1       1.808   3.009  18.988  0.00  0.00    +0.000 A 
ATOM     12  C   UNL     1       2.232   2.266  17.892  0.00  0.00    +0.000 A 
ENDBRANCH   6  10
ENDBRANCH   5   6
ENDBRANCH   4   5
ENDBRANCH   3   4
ENDBRANCH   2   3
ENDBRANCH   1   2
BRANCH   1  13
ATOM     13  C   UNL     1       5.385   5.973  16.586  0.00  0.00    +0.000 C 
BRANCH  13  14
ATOM     14  C   UNL     1       6.904   5.766  16.584  0.00  0.00    +0.000 C 
BRANCH  14  15
ATOM     15  C   UNL     1       7.582   6.563  17.703  0.00  0.00    +0.000 C 
BRANCH  15  16
ATOM     16  C   UNL     1       7.643   8.066  17.446  0.00  0.00    +0.000 C 
BRANCH  16  17
ATOM     17  C   UNL     1       8.566   8.850  18.393  0.00  0.00    +0.000 C 
BRANCH  17  18
ATOM     18  C   UNL     1       8.569  10.367  18.177  0.00  0.00    +0.000 C 
BRANCH  18  19
ATOM     19  N   UNL     1       9.748  11.066  18.777  0.00  0.00    +0.000 N 
ATOM     20  C   UNL     1       9.856  11.336  20.100  0.00  0.00    +0.000 A 
ATOM     21  C   UNL     1      10.954  12.013  20.614  0.00  0.00    +0.000 A 
ATOM     22  C   UNL     1      11.964  12.418  19.759  0.00  0.00    +0.000 A 
ATOM     23  C   UNL     1      11.858  12.125  18.410  0.00  0.00    +0.000 A 
ATOM     24  C   UNL     1      10.741  11.446  17.930  0.00  0.00    +0.000 A 
ENDBRANCH  18  19
ENDBRANCH  17  18
ENDBRANCH  16  17
ENDBRANCH  15  16
ENDBRANCH  14  15
ENDBRANCH  13  14
ENDBRANCH   1  13
TORSDOF 13
ENDMDL
MODEL 5
REMARK VINA RESULT:      -5.7      1.683      7.501
REMARK  Name = 
REMARK  13 active torsions:
REMARK  status: ('A' for Active; 'I' for Inactive)
REMARK    1  A    between atoms: N_4  and  C_5
REMARK    2  A    between atoms: C_5  and  C_6
REMARK    3  A    between atoms: C_6  and  C_7
REMARK    4  A    between atoms: C_7  and  C_8
REMARK    5  A    between atoms: C_8  and  C_9
REMARK    6  A    between atoms: C_9  and  C_10
REMARK    7  A    between atoms: C_10  and  C_11
REMARK    8  A    between atoms: C_11  and  C_12
REMARK    9  A    between atoms: C_12  and  C_13
REMARK   10  A    between atoms: C_13  and  C_14
REMARK   11  A    between atoms: C_14  and  C_15
REMARK   12  A    between atoms: C_15  and  C_16
REMARK   13  A    between atoms: C_16  and  N_17
REMARK                            x       y       z     vdW  Elec       q    Type
REMARK                         _______ _______ _______ _____ _____    ______ ____
ROOT
ATOM      1  C   UNL     1       3.532   7.655  17.356  0.00  0.00    +0.000 C 
ENDROOT
BRANCH   1   2
ATOM      2  C   UNL     1       4.754   6.744  17.506  0.00  0.00    +0.000 C 
BRANCH   2   3
ATOM      3  C   UNL     1       5.088   5.974  16.231  0.00  0.00    +0.000 C 
BRANCH   3   4
ATOM      4  C   UNL     1       5.429   4.505  16.490  0.00  0.00    +0.000 C 
BRANCH   4   5
ATOM      5  C   UNL     1       4.761   3.927  17.742  0.00  0.00    +0.000 C 
BRANCH   5   6
ATOM      6  C   UNL     1       3.421   3.232  17.480  0.00  0.00    +0.000 C 
BRANCH   6  10
ATOM      7  C   UNL     1       1.341   2.921  21.161  0.00  0.00    +0.000 A 
ATOM      8  C   UNL     1       2.724   2.787  21.114  0.00  0.00    +0.000 A 
ATOM      9  C   UNL     1       3.372   2.882  19.889  0.00  0.00    +0.000 A 
ATOM     10  N   UNL     1       2.678   3.131  18.757  0.00  0.00    +0.000 N 
ATOM     11  C   UNL     1       1.342   3.309  18.799  0.00  0.00    +0.000 A 
ATOM     12  C   UNL     1       0.640   3.171  19.992  0.00  0.00    +0.000 A 
ENDBRANCH   6  10
ENDBRANCH   5   6
ENDBRANCH   4   5
ENDBRANCH   3   4
ENDBRANCH   2   3
ENDBRANCH   1   2
BRANCH   1  13
ATOM     13  C   UNL     1       2.340   7.230  18.226  0.00  0.00    +0.000 C 
BRANCH  13  14
ATOM     14  C   UNL     1       2.748   6.572  19.549  0.00  0.00    +0.000 C 
BRANCH  14  15
ATOM     15  C   UNL     1       1.662   6.737  20.618  0.00  0.00    +0.000 C 
BRANCH  15  16
ATOM     16  C   UNL     1       1.455   8.178  21.076  0.00  0.00    +0.000 C 
BRANCH  16  17
ATOM     17  C   UNL     1       0.007   8.541  21.445  0.00  0.00    +0.000 C 
BRANCH  17  18
ATOM     18  C   UNL     1      -0.203  10.000  21.861  0.00  0.00    +0.000 C 
BRANCH  18  19
ATOM     19  N   UNL     1      -0.171  10.971  20.722  0.00  0.00    +0.000 N 
ATOM     20  C   UNL     1       0.529  12.130  20.755  0.00  0.00    +0.000 A 
ATOM     21  C   UNL     1       0.510  13.018  19.688  0.00  0.00    +0.000 A 
ATOM     22  C   UNL     1      -0.236  12.713  18.563  0.00  0.00    +0.000 A 
ATOM     23  C   UNL     1      -0.936  11.518  18.527  0.00  0.00    +0.000 A 
ATOM     24  C   UNL     1      -0.895  10.654  19.617  0.00  0.00    +0.000 A 
ENDBRANCH  18  19
ENDBRANCH  17  18
ENDBRANCH  16  17
ENDBRANCH  15  16
ENDBRANCH  14  15
ENDBRANCH  13  14
ENDBRANCH   1  13
TORSDOF 13
ENDMDL
MODEL 6
REMARK VINA RESULT:      -5.7      1.824      7.669
REMARK  Name = 
REMARK  13 active torsions:
REMARK  status: ('A' for Active; 'I' for Inactive)
REMARK    1  A    between atoms: N_4  and  C_5
REMARK    2  A    between atoms: C_5  and  C_6
REMARK    3  A    between atoms: C_6  and  C_7
REMARK    4  A    between atoms: C_7  and  C_8
REMARK    5  A    between atoms: C_8  and  C_9
REMARK    6  A    between atoms: C_9  and  C_10
REMARK    7  A    between atoms: C_10  and  C_11
REMARK    8  A    between atoms: C_11  and  C_12
REMARK    9  A    between atoms: C_12  and  C_13
REMARK   10  A    between atoms: C_13  and  C_14
REMARK   11  A    between atoms: C_14  and  C_15
REMARK   12  A    between atoms: C_15  and  C_16
REMARK   13  A    between atoms: C_16  and  N_17
REMARK                            x       y       z     vdW  Elec       q    Type
REMARK                         _______ _______ _______ _____ _____    ______ ____
ROOT
ATOM      1  C   UNL     1       4.950   5.440  18.982  0.00  0.00    +0.000 C 
ENDROOT
BRANCH   1   2
ATOM      2  C   UNL     1       5.096   5.718  17.483  0.00  0.00    +0.000 C 
BRANCH   2   3
ATOM      3  C   UNL     1       5.878   4.635  16.745  0.00  0.00    +0.000 C 
BRANCH   3   4
ATOM      4  C   UNL     1       5.055   3.372  16.487  0.00  0.00    +0.000 C 
BRANCH   4   5
ATOM      5  C   UNL     1       3.569   3.520  16.835  0.00  0.00    +0.000 C 
BRANCH   5   6
ATOM      6  C   UNL     1       2.942   2.278  17.475  0.00  0.00    +0.000 C 
BRANCH   6  10
ATOM      7  C   UNL     1       1.566   3.265  21.361  0.00  0.00    +0.000 A 
ATOM      8  C   UNL     1       2.816   2.686  21.176  0.00  0.00    +0.000 A 
ATOM      9  C   UNL     1       3.230   2.363  19.891  0.00  0.00    +0.000 A 
ATOM     10  N   UNL     1       2.447   2.634  18.824  0.00  0.00    +0.000 N 
ATOM     11  C   UNL     1       1.253   3.239  18.988  0.00  0.00    +0.000 A 
ATOM     12  C   UNL     1       0.770   3.534  20.259  0.00  0.00    +0.000 A 
ENDBRANCH   6  10
ENDBRANCH   5   6
ENDBRANCH   4   5
ENDBRANCH   3   4
ENDBRANCH   2   3
ENDBRANCH   1   2
BRANCH   1  13
ATOM     13  C   UNL     1       3.630   5.953  19.575  0.00  0.00    +0.000 C 
BRANCH  13  14
ATOM     14  C   UNL     1       2.701   6.601  18.541  0.00  0.00    +0.000 C 
BRANCH  14  15
ATOM     15  C   UNL     1       2.070   7.889  19.080  0.00  0.00    +0.000 C 
BRANCH  15  16
ATOM     16  C   UNL     1       1.695   8.897  17.998  0.00  0.00    +0.000 C 
BRANCH  16  17
ATOM     17  C   UNL     1       1.181  10.249  18.520  0.00  0.00    +0.000 C 
BRANCH  17  18
ATOM     18  C   UNL     1      -0.288  10.253  18.954  0.00  0.00    +0.000 C 
BRANCH  18  19
ATOM     19  N   UNL     1      -0.487  10.352  20.434  0.00  0.00    +0.000 N 
ATOM     20  C   UNL     1      -0.861  11.495  21.057  0.00  0.00    +0.000 A 
ATOM     21  C   UNL     1      -1.007  11.553  22.437  0.00  0.00    +0.000 A 
ATOM     22  C   UNL     1      -0.771  10.419  23.193  0.00  0.00    +0.000 A 
ATOM     23  C   UNL     1      -0.405   9.248  22.551  0.00  0.00    +0.000 A 
ATOM     24  C   UNL     1      -0.267   9.228  21.165  0.00  0.00    +0.000 A 
ENDBRANCH  18  19
ENDBRANCH  17  18
ENDBRANCH  16  17
ENDBRANCH  15  16
ENDBRANCH  14  15
ENDBRANCH  13  14
ENDBRANCH   1  13
TORSDOF 13
ENDMDL
MODEL 7
REMARK VINA RESULT:      -5.6      1.679      2.494
REMARK  Name = 
REMARK  13 active torsions:
REMARK  status: ('A' for Active; 'I' for Inactive)
REMARK    1  A    between atoms: N_4  and  C_5
REMARK    2  A    between atoms: C_5  and  C_6
REMARK    3  A    between atoms: C_6  and  C_7
REMARK    4  A    between atoms: C_7  and  C_8
REMARK    5  A    between atoms: C_8  and  C_9
REMARK    6  A    between atoms: C_9  and  C_10
REMARK    7  A    between atoms: C_10  and  C_11
REMARK    8  A    between atoms: C_11  and  C_12
REMARK    9  A    between atoms: C_12  and  C_13
REMARK   10  A    between atoms: C_13  and  C_14
REMARK   11  A    between atoms: C_14  and  C_15
REMARK   12  A    between atoms: C_15  and  C_16
REMARK   13  A    between atoms: C_16  and  N_17
REMARK                            x       y       z     vdW  Elec       q    Type
REMARK                         _______ _______ _______ _____ _____    ______ ____
ROOT
ATOM      1  C   UNL     1       1.555   5.381  20.692  0.00  0.00    +0.000 C 
ENDROOT
BRANCH   1   2
ATOM      2  C   UNL     1       2.373   6.186  19.678  0.00  0.00    +0.000 C 
BRANCH   2   3
ATOM      3  C   UNL     1       2.121   7.689  19.761  0.00  0.00    +0.000 C 
BRANCH   3   4
ATOM      4  C   UNL     1       1.425   8.110  21.057  0.00  0.00    +0.000 C 
BRANCH   4   5
ATOM      5  C   UNL     1       0.699   9.457  20.960  0.00  0.00    +0.000 C 
BRANCH   5   6
ATOM      6  C   UNL     1       0.021   9.905  22.258  0.00  0.00    +0.000 C 
BRANCH   6  10
ATOM      7  C   UNL     1      -2.655  13.057  21.322  0.00  0.00    +0.000 A 
ATOM      8  C   UNL     1      -1.977  12.379  20.316  0.00  0.00    +0.000 A 
ATOM      9  C   UNL     1      -1.098  11.360  20.658  0.00  0.00    +0.000 A 
ATOM     10  N   UNL     1      -0.921  11.006  21.950  0.00  0.00    +0.000 N 
ATOM     11  C   UNL     1      -1.609  11.625  22.930  0.00  0.00    +0.000 A 
ATOM     12  C   UNL     1      -2.461  12.686  22.643  0.00  0.00    +0.000 A 
ENDBRANCH   6  10
ENDBRANCH   5   6
ENDBRANCH   4   5
ENDBRANCH   3   4
ENDBRANCH   2   3
ENDBRANCH   1   2
BRANCH   1  13
ATOM     13  C   UNL     1       2.287   4.140  21.222  0.00  0.00    +0.000 C 
BRANCH  13  14
ATOM     14  C   UNL     1       1.485   2.842  21.074  0.00  0.00    +0.000 C 
BRANCH  14  15
ATOM     15  C   UNL     1       0.786   2.763  19.713  0.00  0.00    +0.000 C 
BRANCH  15  16
ATOM     16  C   UNL     1       1.621   2.096  18.624  0.00  0.00    +0.000 C 
BRANCH  16  17
ATOM     17  C   UNL     1       2.384   3.065  17.705  0.00  0.00    +0.000 C 
BRANCH  17  18
ATOM     18  C   UNL     1       3.906   2.892  17.712  0.00  0.00    +0.000 C 
BRANCH  18  19
ATOM     19  N   UNL     1       4.667   4.181  17.670  0.00  0.00    +0.000 N 
ATOM     20  C   UNL     1       4.470   5.127  16.721  0.00  0.00    +0.000 A 
ATOM     21  C   UNL     1       5.217   6.298  16.700  0.00  0.00    +0.000 A 
ATOM     22  C   UNL     1       6.179   6.507  17.671  0.00  0.00    +0.000 A 
ATOM     23  C   UNL     1       6.365   5.545  18.650  0.00  0.00    +0.000 A 
ATOM     24  C   UNL     1       5.599   4.382  18.638  0.00  0.00    +0.000 A 
ENDBRANCH  18  19
ENDBRANCH  17  18
ENDBRANCH  16  17
ENDBRANCH  15  16
ENDBRANCH  14  15
ENDBRANCH  13  14
ENDBRANCH   1  13
TORSDOF 13
ENDMDL
MODEL 8
REMARK VINA RESULT:      -5.6      5.380      8.585
REMARK  Name = 
REMARK  13 active torsions:
REMARK  status: ('A' for Active; 'I' for Inactive)
REMARK    1  A    between atoms: N_4  and  C_5
REMARK    2  A    between atoms: C_5  and  C_6
REMARK    3  A    between atoms: C_6  and  C_7
REMARK    4  A    between atoms: C_7  and  C_8
REMARK    5  A    between atoms: C_8  and  C_9
REMARK    6  A    between atoms: C_9  and  C_10
REMARK    7  A    between atoms: C_10  and  C_11
REMARK    8  A    between atoms: C_11  and  C_12
REMARK    9  A    between atoms: C_12  and  C_13
REMARK   10  A    between atoms: C_13  and  C_14
REMARK   11  A    between atoms: C_14  and  C_15
REMARK   12  A    between atoms: C_15  and  C_16
REMARK   13  A    between atoms: C_16  and  N_17
REMARK                            x       y       z     vdW  Elec       q    Type
REMARK                         _______ _______ _______ _____ _____    ______ ____
ROOT
ATOM      1  C   UNL     1       7.758   6.064  18.693  0.00  0.00    +0.000 C 
ENDROOT
BRANCH   1   2
ATOM      2  C   UNL     1       7.539   4.807  17.847  0.00  0.00    +0.000 C 
BRANCH   2   3
ATOM      3  C   UNL     1       6.310   4.896  16.946  0.00  0.00    +0.000 C 
BRANCH   3   4
ATOM      4  C   UNL     1       5.003   4.603  17.683  0.00  0.00    +0.000 C 
BRANCH   4   5
ATOM      5  C   UNL     1       4.287   5.859  18.194  0.00  0.00    +0.000 C 
BRANCH   5   6
ATOM      6  C   UNL     1       2.761   5.809  18.076  0.00  0.00    +0.000 C 
BRANCH   6  10
ATOM      7  C   UNL     1       1.235   2.925  20.784  0.00  0.00    +0.000 A 
ATOM      8  C   UNL     1       0.943   2.849  19.426  0.00  0.00    +0.000 A 
ATOM      9  C   UNL     1       1.449   3.818  18.570  0.00  0.00    +0.000 A 
ATOM     10  N   UNL     1       2.240   4.808  19.036  0.00  0.00    +0.000 N 
ATOM     11  C   UNL     1       2.567   4.864  20.344  0.00  0.00    +0.000 A 
ATOM     12  C   UNL     1       2.044   3.949  21.250  0.00  0.00    +0.000 A 
ENDBRANCH   6  10
ENDBRANCH   5   6
ENDBRANCH   4   5
ENDBRANCH   3   4
ENDBRANCH   2   3
ENDBRANCH   1   2
BRANCH   1  13
ATOM     13  C   UNL     1       7.808   7.358  17.867  0.00  0.00    +0.000 C 
BRANCH  13  14
ATOM     14  C   UNL     1       8.610   8.482  18.532  0.00  0.00    +0.000 C 
BRANCH  14  15
ATOM     15  C   UNL     1       8.183   9.860  18.016  0.00  0.00    +0.000 C 
BRANCH  15  16
ATOM     16  C   UNL     1       9.199  10.966  18.284  0.00  0.00    +0.000 C 
BRANCH  16  17
ATOM     17  C   UNL     1       9.981  10.825  19.600  0.00  0.00    +0.000 C 
BRANCH  17  18
ATOM     18  C   UNL     1       9.223  11.286  20.850  0.00  0.00    +0.000 C 
BRANCH  18  19
ATOM     19  N   UNL     1       9.543  12.684  21.276  0.00  0.00    +0.000 N 
ATOM     20  C   UNL     1       8.968  13.283  22.346  0.00  0.00    +0.000 A 
ATOM     21  C   UNL     1       9.271  14.594  22.692  0.00  0.00    +0.000 A 
ATOM     22  C   UNL     1      10.183  15.304  21.932  0.00  0.00    +0.000 A 
ATOM     23  C   UNL     1      10.782  14.682  20.849  0.00  0.00    +0.000 A 
ATOM     24  C   UNL     1      10.452  13.368  20.531  0.00  0.00    +0.000 A 
ENDBRANCH  18  19
ENDBRANCH  17  18
ENDBRANCH  16  17
ENDBRANCH  15  16
ENDBRANCH  14  15
ENDBRANCH  13  14
ENDBRANCH   1  13
TORSDOF 13
ENDMDL
MODEL 9
REMARK VINA RESULT:      -5.6      1.389      7.833
REMARK  Name = 
REMARK  13 active torsions:
REMARK  status: ('A' for Active; 'I' for Inactive)
REMARK    1  A    between atoms: N_4  and  C_5
REMARK    2  A    between atoms: C_5  and  C_6
REMARK    3  A    between atoms: C_6  and  C_7
REMARK    4  A    between atoms: C_7  and  C_8
REMARK    5  A    between atoms: C_8  and  C_9
REMARK    6  A    between atoms: C_9  and  C_10
REMARK    7  A    between atoms: C_10  and  C_11
REMARK    8  A    between atoms: C_11  and  C_12
REMARK    9  A    between atoms: C_12  and  C_13
REMARK   10  A    between atoms: C_13  and  C_14
REMARK   11  A    between atoms: C_14  and  C_15
REMARK   12  A    between atoms: C_15  and  C_16
REMARK   13  A    between atoms: C_16  and  N_17
REMARK                            x       y       z     vdW  Elec       q    Type
REMARK                         _______ _______ _______ _____ _____    ______ ____
ROOT
ATOM      1  C   UNL     1       2.743   6.917  17.811  0.00  0.00    +0.000 C 
ENDROOT
BRANCH   1   2
ATOM      2  C   UNL     1       4.269   6.792  17.786  0.00  0.00    +0.000 C 
BRANCH   2   3
ATOM      3  C   UNL     1       4.811   6.330  16.436  0.00  0.00    +0.000 C 
BRANCH   3   4
ATOM      4  C   UNL     1       5.492   4.961  16.500  0.00  0.00    +0.000 C 
BRANCH   4   5
ATOM      5  C   UNL     1       5.068   4.116  17.707  0.00  0.00    +0.000 C 
BRANCH   5   6
ATOM      6  C   UNL     1       3.856   3.214  17.452  0.00  0.00    +0.000 C 
BRANCH   6  10
ATOM      7  C   UNL     1       1.150   3.529  20.701  0.00  0.00    +0.000 A 
ATOM      8  C   UNL     1       0.763   2.925  19.510  0.00  0.00    +0.000 A 
ATOM      9  C   UNL     1       1.670   2.851  18.462  0.00  0.00    +0.000 A 
ATOM     10  N   UNL     1       2.926   3.330  18.599  0.00  0.00    +0.000 N 
ATOM     11  C   UNL     1       3.326   3.875  19.766  0.00  0.00    +0.000 A 
ATOM     12  C   UNL     1       2.440   4.020  20.828  0.00  0.00    +0.000 A 
ENDBRANCH   6  10
ENDBRANCH   5   6
ENDBRANCH   4   5
ENDBRANCH   3   4
ENDBRANCH   2   3
ENDBRANCH   1   2
BRANCH   1  13
ATOM     13  C   UNL     1       2.234   8.034  18.735  0.00  0.00    +0.000 C 
BRANCH  13  14
ATOM     14  C   UNL     1       1.825   7.542  20.128  0.00  0.00    +0.000 C 
BRANCH  14  15
ATOM     15  C   UNL     1       1.509   8.710  21.067  0.00  0.00    +0.000 C 
BRANCH  15  16
ATOM     16  C   UNL     1       0.021   8.891  21.354  0.00  0.00    +0.000 C 
BRANCH  16  17
ATOM     17  C   UNL     1      -0.576  10.222  20.868  0.00  0.00    +0.000 C 
BRANCH  17  18
ATOM     18  C   UNL     1      -0.207  10.605  19.431  0.00  0.00    +0.000 C 
BRANCH  18  19
ATOM     19  N   UNL     1      -1.371  10.642  18.491  0.00  0.00    +0.000 N 
ATOM     20  C   UNL     1      -1.439   9.891  17.366  0.00  0.00    +0.000 A 
ATOM     21  C   UNL     1      -2.525   9.975  16.504  0.00  0.00    +0.000 A 
ATOM     22  C   UNL     1      -3.563  10.839  16.801  0.00  0.00    +0.000 A 
ATOM     23  C   UNL     1      -3.498  11.591  17.962  0.00  0.00    +0.000 A 
ATOM     24  C   UNL     1      -2.393  11.482  18.801  0.00  0.00    +0.000 A 
ENDBRANCH  18  19
ENDBRANCH  17  18
ENDBRANCH  16  17
ENDBRANCH  15  16
ENDBRANCH  14  15
ENDBRANCH  13  14
ENDBRANCH   1  13
TORSDOF 13
ENDMDL
