MODEL 1
REMARK VINA RESULT:      -7.5      0.000      0.000
REMARK  Name = 
REMARK  5 active torsions:
REMARK  status: ('A' for Active; 'I' for Inactive)
REMARK    1  A    between atoms: O_1  and  C_2
REMARK    2  A    between atoms: C_2  and  C_3
REMARK    3  A    between atoms: C_3  and  N_4
REMARK    4  A    between atoms: C_6  and  C_7
REMARK    5  A    between atoms: C_10  and  O_11
REMARK                            x       y       z     vdW  Elec       q    Type
REMARK                         _______ _______ _______ _____ _____    ______ ____
ROOT
ATOM      1  N   UNL     1       3.056   4.307  19.794  0.00  0.00    +0.000 N 
ATOM      2  N   UNL     1       2.359   5.328  20.325  0.00  0.00    +0.000 NA
ATOM      3  C   UNL     1       2.581   6.366  19.502  0.00  0.00    +0.000 A 
ATOM      4  C   UNL     1       3.469   5.987  18.443  0.00  0.00    +0.000 A 
ATOM      5  C   UNL     1       4.071   6.642  17.349  0.00  0.00    +0.000 A 
ATOM      6  C   UNL     1       4.864   5.906  16.470  0.00  0.00    +0.000 A 
ATOM      7  F   UNL     1       5.407   6.544  15.420  0.00  0.00    +0.000 F 
ATOM      8  C   UNL     1       5.086   4.547  16.666  0.00  0.00    +0.000 A 
ATOM      9 CL   UNL     1       6.064   3.661  15.557  0.00  0.00    +0.000 Cl
ATOM     10  C   UNL     1       4.527   3.881  17.762  0.00  0.00    +0.000 A 
ATOM     11  C   UNL     1       3.726   4.632  18.640  0.00  0.00    +0.000 A 
ENDROOT
BRANCH   3  12
ATOM     12  C   UNL     1       1.945   7.667  19.727  0.00  0.00    +0.000 A 
ATOM     13  C   UNL     1       1.442   8.011  20.991  0.00  0.00    +0.000 A 
ATOM     14  C   UNL     1       0.837   9.254  21.205  0.00  0.00    +0.000 A 
ATOM     15  C   UNL     1       0.738  10.157  20.151  0.00  0.00    +0.000 A 
ATOM     16  C   UNL     1       1.227   9.839  18.894  0.00  0.00    +0.000 A 
ATOM     17  C   UNL     1       1.814   8.591  18.680  0.00  0.00    +0.000 A 
BRANCH  15  18
ATOM     18  O   UNL     1       0.149  11.376  20.305  0.00  0.00    +0.000 OA
ATOM     19  H   UNL     1       0.668  11.892  20.945  0.00  0.00    +0.000 HD
ENDBRANCH  15  18
ENDBRANCH   3  12
BRANCH   1  20
ATOM     20  C   UNL     1       3.057   3.030  20.478  0.00  0.00    +0.000 C 
BRANCH  20  21
ATOM     21  C   UNL     1       1.968   2.936  21.534  0.00  0.00    +0.000 C 
BRANCH  21  22
ATOM     22  O   UNL     1       0.689   3.009  20.906  0.00  0.00    +0.000 OA
ATOM     23  H   UNL     1       0.042   2.624  21.525  0.00  0.00    +0.000 HD
ENDBRANCH  21  22
ENDBRANCH  20  21
ENDBRANCH   1  20
TORSDOF 5
ENDMDL
MODEL 2
REMARK VINA RESULT:      -7.5      0.221      1.076
REMARK  Name = 
REMARK  5 active torsions:
REMARK  status: ('A' for Active; 'I' for Inactive)
REMARK    1  A    between atoms: O_1  and  C_2
REMARK    2  A    between atoms: C_2  and  C_3
REMARK    3  A    between atoms: C_3  and  N_4
REMARK    4  A    between atoms: C_6  and  C_7
REMARK    5  A    between atoms: C_10  and  O_11
REMARK                            x       y       z     vdW  Elec       q    Type
REMARK                         _______ _______ _______ _____ _____    ______ ____
ROOT
ATOM      1  N   UNL     1       2.895   4.375  19.801  0.00  0.00    +0.000 N 
ATOM      2  N   UNL     1       2.218   5.416  20.318  0.00  0.00    +0.000 NA
ATOM      3  C   UNL     1       2.494   6.448  19.505  0.00  0.00    +0.000 A 
ATOM      4  C   UNL     1       3.395   6.043  18.466  0.00  0.00    +0.000 A 
ATOM      5  C   UNL     1       4.045   6.681  17.390  0.00  0.00    +0.000 A 
ATOM      6  C   UNL     1       4.836   5.923  16.528  0.00  0.00    +0.000 A 
ATOM      7  F   UNL     1       5.425   6.545  15.495  0.00  0.00    +0.000 F 
ATOM      8  C   UNL     1       5.009   4.557  16.725  0.00  0.00    +0.000 A 
ATOM      9 CL   UNL     1       5.985   3.642  15.638  0.00  0.00    +0.000 Cl
ATOM     10  C   UNL     1       4.402   3.906  17.805  0.00  0.00    +0.000 A 
ATOM     11  C   UNL     1       3.603   4.680  18.665  0.00  0.00    +0.000 A 
ENDROOT
BRANCH   3  12
ATOM     12  C   UNL     1       1.896   7.769  19.718  0.00  0.00    +0.000 A 
ATOM     13  C   UNL     1       1.771   8.680  18.659  0.00  0.00    +0.000 A 
ATOM     14  C   UNL     1       1.199   9.941  18.864  0.00  0.00    +0.000 A 
ATOM     15  C   UNL     1       0.746  10.288  20.132  0.00  0.00    +0.000 A 
ATOM     16  C   UNL     1       0.860   9.405  21.194  0.00  0.00    +0.000 A 
ATOM     17  C   UNL     1       1.447   8.155  20.991  0.00  0.00    +0.000 A 
BRANCH  15  18
ATOM     18  O   UNL     1       0.191  11.506  20.386  0.00  0.00    +0.000 OA
ATOM     19  H   UNL     1      -0.769  11.445  20.243  0.00  0.00    +0.000 HD
ENDBRANCH  15  18
ENDBRANCH   3  12
BRANCH   1  20
ATOM     20  C   UNL     1       2.836   3.096  20.481  0.00  0.00    +0.000 C 
BRANCH  20  21
ATOM     21  C   UNL     1       1.526   2.892  21.223  0.00  0.00    +0.000 C 
BRANCH  21  22
ATOM     22  O   UNL     1       0.435   3.116  20.332  0.00  0.00    +0.000 OA
ATOM     23  H   UNL     1       0.442   4.062  20.101  0.00  0.00    +0.000 HD
ENDBRANCH  21  22
ENDBRANCH  20  21
ENDBRANCH   1  20
TORSDOF 5
ENDMDL
MODEL 3
REMARK VINA RESULT:      -7.5      3.040      3.911
REMARK  Name = 
REMARK  5 active torsions:
REMARK  status: ('A' for Active; 'I' for Inactive)
REMARK    1  A    between atoms: O_1  and  C_2
REMARK    2  A    between atoms: C_2  and  C_3
REMARK    3  A    between atoms: C_3  and  N_4
REMARK    4  A    between atoms: C_6  and  C_7
REMARK    5  A    between atoms: C_10  and  O_11
REMARK                            x       y       z     vdW  Elec       q    Type
REMARK                         _______ _______ _______ _____ _____    ______ ____
ROOT
ATOM      1  N   UNL     1       4.756   6.015  17.165  0.00  0.00    +0.000 N 
ATOM      2  N   UNL     1       4.175   7.201  17.427  0.00  0.00    +0.000 NA
ATOM      3  C   UNL     1       3.079   6.901  18.143  0.00  0.00    +0.000 A 
ATOM      4  C   UNL     1       2.958   5.481  18.305  0.00  0.00    +0.000 A 
ATOM      5  C   UNL     1       2.023   4.611  18.904  0.00  0.00    +0.000 A 
ATOM      6  C   UNL     1       2.278   3.241  18.909  0.00  0.00    +0.000 A 
ATOM      7  F   UNL     1       1.388   2.433  19.508  0.00  0.00    +0.000 F 
ATOM      8  C   UNL     1       3.424   2.720  18.319  0.00  0.00    +0.000 A 
ATOM      9 CL   UNL     1       3.718   1.021  18.349  0.00  0.00    +0.000 Cl
ATOM     10  C   UNL     1       4.350   3.558  17.689  0.00  0.00    +0.000 A 
ATOM     11  C   UNL     1       4.085   4.939  17.693  0.00  0.00    +0.000 A 
ENDROOT
BRANCH   3  12
ATOM     12  C   UNL     1       2.195   7.949  18.659  0.00  0.00    +0.000 A 
ATOM     13  C   UNL     1       1.838   7.982  20.015  0.00  0.00    +0.000 A 
ATOM     14  C   UNL     1       0.994   8.984  20.508  0.00  0.00    +0.000 A 
ATOM     15  C   UNL     1       0.510   9.958  19.640  0.00  0.00    +0.000 A 
ATOM     16  C   UNL     1       0.847   9.944  18.296  0.00  0.00    +0.000 A 
ATOM     17  C   UNL     1       1.675   8.933  17.805  0.00  0.00    +0.000 A 
BRANCH  15  18
ATOM     18  O   UNL     1      -0.323  10.948  20.068  0.00  0.00    +0.000 OA
ATOM     19  H   UNL     1      -0.619  11.459  19.295  0.00  0.00    +0.000 HD
ENDBRANCH  15  18
ENDBRANCH   3  12
BRANCH   1  20
ATOM     20  C   UNL     1       5.962   5.989  16.363  0.00  0.00    +0.000 C 
BRANCH  20  21
ATOM     21  C   UNL     1       7.185   6.448  17.138  0.00  0.00    +0.000 C 
BRANCH  21  22
ATOM     22  O   UNL     1       7.273   7.871  17.090  0.00  0.00    +0.000 OA
ATOM     23  H   UNL     1       8.194   8.109  17.303  0.00  0.00    +0.000 HD
ENDBRANCH  21  22
ENDBRANCH  20  21
ENDBRANCH   1  20
TORSDOF 5
ENDMDL
MODEL 4
REMARK VINA RESULT:      -7.5      3.037      4.042
REMARK  Name = 
REMARK  5 active torsions:
REMARK  status: ('A' for Active; 'I' for Inactive)
REMARK    1  A    between atoms: O_1  and  C_2
REMARK    2  A    between atoms: C_2  and  C_3
REMARK    3  A    between atoms: C_3  and  N_4
REMARK    4  A    between atoms: C_6  and  C_7
REMARK    5  A    between atoms: C_10  and  O_11
REMARK                            x       y       z     vdW  Elec       q    Type
REMARK                         _______ _______ _______ _____ _____    ______ ____
ROOT
ATOM      1  N   UNL     1       4.701   6.006  17.106  0.00  0.00    +0.000 N 
ATOM      2  N   UNL     1       4.128   7.194  17.375  0.00  0.00    +0.000 NA
ATOM      3  C   UNL     1       3.055   6.901  18.126  0.00  0.00    +0.000 A 
ATOM      4  C   UNL     1       2.938   5.483  18.305  0.00  0.00    +0.000 A 
ATOM      5  C   UNL     1       2.022   4.619  18.940  0.00  0.00    +0.000 A 
ATOM      6  C   UNL     1       2.276   3.249  18.950  0.00  0.00    +0.000 A 
ATOM      7  F   UNL     1       1.405   2.447  19.583  0.00  0.00    +0.000 F 
ATOM      8  C   UNL     1       3.404   2.722  18.330  0.00  0.00    +0.000 A 
ATOM      9 CL   UNL     1       3.698   1.023  18.367  0.00  0.00    +0.000 Cl
ATOM     10  C   UNL     1       4.311   3.554  17.665  0.00  0.00    +0.000 A 
ATOM     11  C   UNL     1       4.047   4.934  17.664  0.00  0.00    +0.000 A 
ENDROOT
BRANCH   3  12
ATOM     12  C   UNL     1       2.187   7.954  18.659  0.00  0.00    +0.000 A 
ATOM     13  C   UNL     1       1.687   8.964  17.824  0.00  0.00    +0.000 A 
ATOM     14  C   UNL     1       0.857   9.969  18.334  0.00  0.00    +0.000 A 
ATOM     15  C   UNL     1       0.524   9.960  19.684  0.00  0.00    +0.000 A 
ATOM     16  C   UNL     1       1.008   8.973  20.530  0.00  0.00    +0.000 A 
ATOM     17  C   UNL     1       1.849   7.983  20.021  0.00  0.00    +0.000 A 
BRANCH  15  18
ATOM     18  O   UNL     1      -0.271  10.921  20.232  0.00  0.00    +0.000 OA
ATOM     19  H   UNL     1       0.202  11.326  20.979  0.00  0.00    +0.000 HD
ENDBRANCH  15  18
ENDBRANCH   3  12
BRANCH   1  20
ATOM     20  C   UNL     1       5.882   5.972  16.268  0.00  0.00    +0.000 C 
BRANCH  20  21
ATOM     21  C   UNL     1       7.140   6.368  17.021  0.00  0.00    +0.000 C 
BRANCH  21  22
ATOM     22  O   UNL     1       7.215   7.790  17.108  0.00  0.00    +0.000 OA
ATOM     23  H   UNL     1       7.217   8.020  18.055  0.00  0.00    +0.000 HD
ENDBRANCH  21  22
ENDBRANCH  20  21
ENDBRANCH   1  20
TORSDOF 5
ENDMDL
MODEL 5
REMARK VINA RESULT:      -7.4      3.741      5.312
REMARK  Name = 
REMARK  5 active torsions:
REMARK  status: ('A' for Active; 'I' for Inactive)
REMARK    1  A    between atoms: O_1  and  C_2
REMARK    2  A    between atoms: C_2  and  C_3
REMARK    3  A    between atoms: C_3  and  N_4
REMARK    4  A    between atoms: C_6  and  C_7
REMARK    5  A    between atoms: C_10  and  O_11
REMARK                            x       y       z     vdW  Elec       q    Type
REMARK                         _______ _______ _______ _____ _____    ______ ____
ROOT
ATOM      1  N   UNL     1       6.573   5.594  17.758  0.00  0.00    +0.000 N 
ATOM      2  N   UNL     1       5.531   5.218  18.522  0.00  0.00    +0.000 NA
ATOM      3  C   UNL     1       4.702   4.571  17.687  0.00  0.00    +0.000 A 
ATOM      4  C   UNL     1       5.230   4.571  16.354  0.00  0.00    +0.000 A 
ATOM      5  C   UNL     1       4.797   4.099  15.098  0.00  0.00    +0.000 A 
ATOM      6  C   UNL     1       5.636   4.239  13.994  0.00  0.00    +0.000 A 
ATOM      7  F   UNL     1       5.214   3.760  12.813  0.00  0.00    +0.000 F 
ATOM      8  C   UNL     1       6.879   4.852  14.108  0.00  0.00    +0.000 A 
ATOM      9 CL   UNL     1       7.900   5.003  12.727  0.00  0.00    +0.000 Cl
ATOM     10  C   UNL     1       7.318   5.358  15.336  0.00  0.00    +0.000 A 
ATOM     11  C   UNL     1       6.466   5.208  16.444  0.00  0.00    +0.000 A 
ENDROOT
BRANCH   3  12
ATOM     12  C   UNL     1       3.456   3.966  18.166  0.00  0.00    +0.000 A 
ATOM     13  C   UNL     1       3.218   2.593  18.006  0.00  0.00    +0.000 A 
ATOM     14  C   UNL     1       2.028   2.016  18.465  0.00  0.00    +0.000 A 
ATOM     15  C   UNL     1       1.076   2.816  19.089  0.00  0.00    +0.000 A 
ATOM     16  C   UNL     1       1.290   4.175  19.257  0.00  0.00    +0.000 A 
ATOM     17  C   UNL     1       2.469   4.751  18.782  0.00  0.00    +0.000 A 
BRANCH  15  18
ATOM     18  O   UNL     1      -0.102   2.305  19.544  0.00  0.00    +0.000 OA
ATOM     19  H   UNL     1      -0.530   1.821  18.817  0.00  0.00    +0.000 HD
ENDBRANCH  15  18
ENDBRANCH   3  12
BRANCH   1  20
ATOM     20  C   UNL     1       7.644   6.360  18.362  0.00  0.00    +0.000 C 
BRANCH  20  21
ATOM     21  C   UNL     1       8.454   5.543  19.354  0.00  0.00    +0.000 C 
BRANCH  21  22
ATOM     22  O   UNL     1       7.750   5.462  20.592  0.00  0.00    +0.000 OA
ATOM     23  H   UNL     1       7.930   4.581  20.968  0.00  0.00    +0.000 HD
ENDBRANCH  21  22
ENDBRANCH  20  21
ENDBRANCH   1  20
TORSDOF 5
ENDMDL
MODEL 6
REMARK VINA RESULT:      -7.4      3.456      5.656
REMARK  Name = 
REMARK  5 active torsions:
REMARK  status: ('A' for Active; 'I' for Inactive)
REMARK    1  A    between atoms: O_1  and  C_2
REMARK    2  A    between atoms: C_2  and  C_3
REMARK    3  A    between atoms: C_3  and  N_4
REMARK    4  A    between atoms: C_6  and  C_7
REMARK    5  A    between atoms: C_10  and  O_11
REMARK                            x       y       z     vdW  Elec       q    Type
REMARK                         _______ _______ _______ _____ _____    ______ ____
ROOT
ATOM      1  N   UNL     1       2.674   4.897  20.434  0.00  0.00    +0.000 N 
ATOM      2  N   UNL     1       3.619   4.457  19.582  0.00  0.00    +0.000 NA
ATOM      3  C   UNL     1       3.811   5.470  18.722  0.00  0.00    +0.000 A 
ATOM      4  C   UNL     1       2.936   6.564  19.029  0.00  0.00    +0.000 A 
ATOM      5  C   UNL     1       2.669   7.829  18.467  0.00  0.00    +0.000 A 
ATOM      6  C   UNL     1       1.754   8.671  19.097  0.00  0.00    +0.000 A 
ATOM      7  F   UNL     1       1.533   9.882  18.560  0.00  0.00    +0.000 F 
ATOM      8  C   UNL     1       1.090   8.277  20.253  0.00  0.00    +0.000 A 
ATOM      9 CL   UNL     1      -0.028   9.344  21.017  0.00  0.00    +0.000 Cl
ATOM     10  C   UNL     1       1.314   7.014  20.813  0.00  0.00    +0.000 A 
ATOM     11  C   UNL     1       2.241   6.174  20.172  0.00  0.00    +0.000 A 
ENDROOT
BRANCH   3  12
ATOM     12  C   UNL     1       4.812   5.385  17.655  0.00  0.00    +0.000 A 
ATOM     13  C   UNL     1       5.999   6.128  17.725  0.00  0.00    +0.000 A 
ATOM     14  C   UNL     1       6.955   6.045  16.706  0.00  0.00    +0.000 A 
ATOM     15  C   UNL     1       6.723   5.213  15.616  0.00  0.00    +0.000 A 
ATOM     16  C   UNL     1       5.556   4.470  15.525  0.00  0.00    +0.000 A 
ATOM     17  C   UNL     1       4.597   4.569  16.534  0.00  0.00    +0.000 A 
BRANCH  15  18
ATOM     18  O   UNL     1       7.616   5.105  14.593  0.00  0.00    +0.000 OA
ATOM     19  H   UNL     1       8.006   5.981  14.429  0.00  0.00    +0.000 HD
ENDBRANCH  15  18
ENDBRANCH   3  12
BRANCH   1  20
ATOM     20  C   UNL     1       2.207   4.010  21.479  0.00  0.00    +0.000 C 
BRANCH  20  21
ATOM     21  C   UNL     1       1.478   2.796  20.928  0.00  0.00    +0.000 C 
BRANCH  21  22
ATOM     22  O   UNL     1       0.504   3.217  19.975  0.00  0.00    +0.000 OA
ATOM     23  H   UNL     1      -0.275   2.643  20.088  0.00  0.00    +0.000 HD
ENDBRANCH  21  22
ENDBRANCH  20  21
ENDBRANCH   1  20
TORSDOF 5
ENDMDL
MODEL 7
REMARK VINA RESULT:      -7.4      3.364      5.705
REMARK  Name = 
REMARK  5 active torsions:
REMARK  status: ('A' for Active; 'I' for Inactive)
REMARK    1  A    between atoms: O_1  and  C_2
REMARK    2  A    between atoms: C_2  and  C_3
REMARK    3  A    between atoms: C_3  and  N_4
REMARK    4  A    between atoms: C_6  and  C_7
REMARK    5  A    between atoms: C_10  and  O_11
REMARK                            x       y       z     vdW  Elec       q    Type
REMARK                         _______ _______ _______ _____ _____    ______ ____
ROOT
ATOM      1  N   UNL     1       2.626   5.118  20.211  0.00  0.00    +0.000 N 
ATOM      2  N   UNL     1       3.399   4.515  19.289  0.00  0.00    +0.000 NA
ATOM      3  C   UNL     1       3.563   5.429  18.320  0.00  0.00    +0.000 A 
ATOM      4  C   UNL     1       2.844   6.629  18.633  0.00  0.00    +0.000 A 
ATOM      5  C   UNL     1       2.619   7.866  17.994  0.00  0.00    +0.000 A 
ATOM      6  C   UNL     1       1.882   8.847  18.655  0.00  0.00    +0.000 A 
ATOM      7  F   UNL     1       1.702  10.027  18.039  0.00  0.00    +0.000 F 
ATOM      8  C   UNL     1       1.351   8.619  19.920  0.00  0.00    +0.000 A 
ATOM      9 CL   UNL     1       0.453   9.855  20.717  0.00  0.00    +0.000 Cl
ATOM     10  C   UNL     1       1.533   7.389  20.562  0.00  0.00    +0.000 A 
ATOM     11  C   UNL     1       2.280   6.408  19.888  0.00  0.00    +0.000 A 
ENDROOT
BRANCH   3  12
ATOM     12  C   UNL     1       4.394   5.154  17.145  0.00  0.00    +0.000 A 
ATOM     13  C   UNL     1       4.731   3.837  16.797  0.00  0.00    +0.000 A 
ATOM     14  C   UNL     1       5.524   3.575  15.673  0.00  0.00    +0.000 A 
ATOM     15  C   UNL     1       5.978   4.635  14.895  0.00  0.00    +0.000 A 
ATOM     16  C   UNL     1       5.659   5.944  15.220  0.00  0.00    +0.000 A 
ATOM     17  C   UNL     1       4.882   6.203  16.351  0.00  0.00    +0.000 A 
BRANCH  15  18
ATOM     18  O   UNL     1       6.761   4.434  13.798  0.00  0.00    +0.000 OA
ATOM     19  H   UNL     1       7.467   5.103  13.795  0.00  0.00    +0.000 HD
ENDBRANCH  15  18
ENDBRANCH   3  12
BRANCH   1  20
ATOM     20  C   UNL     1       2.228   4.372  21.387  0.00  0.00    +0.000 C 
BRANCH  20  21
ATOM     21  C   UNL     1       1.514   3.077  21.039  0.00  0.00    +0.000 C 
BRANCH  21  22
ATOM     22  O   UNL     1       0.487   3.340  20.085  0.00  0.00    +0.000 OA
ATOM     23  H   UNL     1       0.133   4.226  20.282  0.00  0.00    +0.000 HD
ENDBRANCH  21  22
ENDBRANCH  20  21
ENDBRANCH   1  20
TORSDOF 5
ENDMDL
MODEL 8
REMARK VINA RESULT:      -7.4      3.633      5.164
REMARK  Name = 
REMARK  5 active torsions:
REMARK  status: ('A' for Active; 'I' for Inactive)
REMARK    1  A    between atoms: O_1  and  C_2
REMARK    2  A    between atoms: C_2  and  C_3
REMARK    3  A    between atoms: C_3  and  N_4
REMARK    4  A    between atoms: C_6  and  C_7
REMARK    5  A    between atoms: C_10  and  O_11
REMARK                            x       y       z     vdW  Elec       q    Type
REMARK                         _______ _______ _______ _____ _____    ______ ____
ROOT
ATOM      1  N   UNL     1       6.592   5.635  17.939  0.00  0.00    +0.000 N 
ATOM      2  N   UNL     1       5.548   5.289  18.715  0.00  0.00    +0.000 NA
ATOM      3  C   UNL     1       4.692   4.667  17.889  0.00  0.00    +0.000 A 
ATOM      4  C   UNL     1       5.206   4.651  16.550  0.00  0.00    +0.000 A 
ATOM      5  C   UNL     1       4.746   4.192  15.299  0.00  0.00    +0.000 A 
ATOM      6  C   UNL     1       5.577   4.308  14.186  0.00  0.00    +0.000 A 
ATOM      7  F   UNL     1       5.129   3.840  13.009  0.00  0.00    +0.000 F 
ATOM      8  C   UNL     1       6.838   4.885  14.286  0.00  0.00    +0.000 A 
ATOM      9 CL   UNL     1       7.848   5.005  12.895  0.00  0.00    +0.000 Cl
ATOM     10  C   UNL     1       7.305   5.378  15.510  0.00  0.00    +0.000 A 
ATOM     11  C   UNL     1       6.460   5.252  16.626  0.00  0.00    +0.000 A 
ENDROOT
BRANCH   3  12
ATOM     12  C   UNL     1       3.434   4.098  18.381  0.00  0.00    +0.000 A 
ATOM     13  C   UNL     1       2.619   4.818  19.266  0.00  0.00    +0.000 A 
ATOM     14  C   UNL     1       1.417   4.275  19.735  0.00  0.00    +0.000 A 
ATOM     15  C   UNL     1       1.030   3.007  19.313  0.00  0.00    +0.000 A 
ATOM     16  C   UNL     1       1.821   2.276  18.440  0.00  0.00    +0.000 A 
ATOM     17  C   UNL     1       3.027   2.814  17.988  0.00  0.00    +0.000 A 
BRANCH  15  18
ATOM     18  O   UNL     1      -0.124   2.429  19.748  0.00  0.00    +0.000 OA
ATOM     19  H   UNL     1      -0.769   2.439  19.020  0.00  0.00    +0.000 HD
ENDBRANCH  15  18
ENDBRANCH   3  12
BRANCH   1  20
ATOM     20  C   UNL     1       7.691   6.370  18.532  0.00  0.00    +0.000 C 
BRANCH  20  21
ATOM     21  C   UNL     1       8.517   5.517  19.479  0.00  0.00    +0.000 C 
BRANCH  21  22
ATOM     22  O   UNL     1       7.838   5.400  20.728  0.00  0.00    +0.000 OA
ATOM     23  H   UNL     1       8.163   4.587  21.156  0.00  0.00    +0.000 HD
ENDBRANCH  21  22
ENDBRANCH  20  21
ENDBRANCH   1  20
TORSDOF 5
ENDMDL
MODEL 9
REMARK VINA RESULT:      -7.2      3.387      5.772
REMARK  Name = 
REMARK  5 active torsions:
REMARK  status: ('A' for Active; 'I' for Inactive)
REMARK    1  A    between atoms: O_1  and  C_2
REMARK    2  A    between atoms: C_2  and  C_3
REMARK    3  A    between atoms: C_3  and  N_4
REMARK    4  A    between atoms: C_6  and  C_7
REMARK    5  A    between atoms: C_10  and  O_11
REMARK                            x       y       z     vdW  Elec       q    Type
REMARK                         _______ _______ _______ _____ _____    ______ ____
ROOT
ATOM      1  N   UNL     1       2.606   5.293  20.154  0.00  0.00    +0.000 N 
ATOM      2  N   UNL     1       3.389   4.668  19.255  0.00  0.00    +0.000 NA
ATOM      3  C   UNL     1       3.549   5.553  18.259  0.00  0.00    +0.000 A 
ATOM      4  C   UNL     1       2.818   6.756  18.531  0.00  0.00    +0.000 A 
ATOM      5  C   UNL     1       2.585   7.970  17.853  0.00  0.00    +0.000 A 
ATOM      6  C   UNL     1       1.836   8.965  18.479  0.00  0.00    +0.000 A 
ATOM      7  F   UNL     1       1.648  10.123  17.826  0.00  0.00    +0.000 F 
ATOM      8  C   UNL     1       1.302   8.771  19.748  0.00  0.00    +0.000 A 
ATOM      9 CL   UNL     1       0.388  10.024  20.503  0.00  0.00    +0.000 Cl
ATOM     10  C   UNL     1       1.490   7.564  20.429  0.00  0.00    +0.000 A 
ATOM     11  C   UNL     1       2.250   6.569  19.790  0.00  0.00    +0.000 A 
ENDROOT
BRANCH   3  12
ATOM     12  C   UNL     1       4.389   5.249  17.096  0.00  0.00    +0.000 A 
ATOM     13  C   UNL     1       4.870   6.276  16.271  0.00  0.00    +0.000 A 
ATOM     14  C   UNL     1       5.673   5.985  15.162  0.00  0.00    +0.000 A 
ATOM     15  C   UNL     1       5.997   4.661  14.882  0.00  0.00    +0.000 A 
ATOM     16  C   UNL     1       5.532   3.630  15.682  0.00  0.00    +0.000 A 
ATOM     17  C   UNL     1       4.717   3.923  16.777  0.00  0.00    +0.000 A 
BRANCH  15  18
ATOM     18  O   UNL     1       6.766   4.325  13.808  0.00  0.00    +0.000 OA
ATOM     19  H   UNL     1       7.144   3.443  13.963  0.00  0.00    +0.000 HD
ENDBRANCH  15  18
ENDBRANCH   3  12
BRANCH   1  20
ATOM     20  C   UNL     1       2.209   4.580  21.351  0.00  0.00    +0.000 C 
BRANCH  20  21
ATOM     21  C   UNL     1       1.511   3.267  21.041  0.00  0.00    +0.000 C 
BRANCH  21  22
ATOM     22  O   UNL     1       1.458   2.465  22.220  0.00  0.00    +0.000 OA
ATOM     23  H   UNL     1       0.584   2.035  22.236  0.00  0.00    +0.000 HD
ENDBRANCH  21  22
ENDBRANCH  20  21
ENDBRANCH   1  20
TORSDOF 5
ENDMDL
