MODEL 1
REMARK VINA RESULT:      -7.0      0.000      0.000
REMARK  Name = 
REMARK  12 active torsions:
REMARK  status: ('A' for Active; 'I' for Inactive)
REMARK    1  A    between atoms: C_1  and  C_2
REMARK    2  A    between atoms: C_2  and  C_3
REMARK    3  A    between atoms: C_2  and  C_4
REMARK    4  A    between atoms: C_2  and  O_5
REMARK    5  A    between atoms: O_5  and  C_6
REMARK    6  A    between atoms: N_8  and  C_9
REMARK    7  A    between atoms: C_9  and  C_10
REMARK    8  A    between atoms: C_10  and  C_11
REMARK    9  A    between atoms: C_11  and  C_12
REMARK   10  A    between atoms: C_12  and  N_13
REMARK   11  A    between atoms: C_16  and  O_17
REMARK   12  A    between atoms: C_16  and  C_18
REMARK                            x       y       z     vdW  Elec       q    Type
REMARK                         _______ _______ _______ _____ _____    ______ ____
ROOT
ATOM      1  N   UNL     1       1.285   3.643  18.854  0.00  0.00    +0.000 NA
ATOM      2  C   UNL     1       2.117   4.457  17.954  0.00  0.00    +0.000 C 
ATOM      3  C   UNL     1       1.870   5.951  18.175  0.00  0.00    +0.000 C 
ATOM      4  C   UNL     1       2.094   6.360  19.643  0.00  0.00    +0.000 C 
ATOM      5  C   UNL     1       1.319   5.423  20.575  0.00  0.00    +0.000 C 
ATOM      6  C   UNL     1       1.603   3.960  20.259  0.00  0.00    +0.000 C 
ENDROOT
BRANCH   4   7
ATOM      7  C   UNL     1       1.689   7.816  19.895  0.00  0.00    +0.000 A 
ATOM      8  C   UNL     1       1.311   8.239  21.185  0.00  0.00    +0.000 A 
ATOM      9  C   UNL     1       0.953   9.566  21.437  0.00  0.00    +0.000 A 
ATOM     10  C   UNL     1       0.969  10.494  20.403  0.00  0.00    +0.000 A 
ATOM     11 CL   UNL     1       0.539  12.130  20.712  0.00  0.00    +0.000 Cl
ATOM     12  C   UNL     1       1.344  10.107  19.120  0.00  0.00    +0.000 A 
ATOM     13  C   UNL     1       1.708   8.780  18.871  0.00  0.00    +0.000 A 
ENDBRANCH   4   7
BRANCH   4  14
ATOM     14  O   UNL     1       3.489   6.184  19.934  0.00  0.00    +0.000 OA
ATOM     15  H   UNL     1       3.983   6.432  19.133  0.00  0.00    +0.000 HD
ENDBRANCH   4  14
BRANCH   1  16
ATOM     16  C   UNL     1       1.489   2.208  18.582  0.00  0.00    +0.000 C 
BRANCH  16  17
ATOM     17  C   UNL     1       2.933   1.871  18.158  0.00  0.00    +0.000 C 
BRANCH  17  18
ATOM     18  C   UNL     1       3.834   1.451  19.320  0.00  0.00    +0.000 C 
BRANCH  18  19
ATOM     19  C   UNL     1       4.852   2.535  19.647  0.00  0.00    +0.000 C 
BRANCH  19  22
ATOM     20  C   UNL     1       5.642   4.680  18.833  0.00  0.00    +0.000 C 
ATOM     21  O   UNL     1       6.228   4.932  19.878  0.00  0.00    +0.000 OA
ATOM     22  N   UNL     1       4.962   3.525  18.612  0.00  0.00    +0.000 N 
ATOM     23  H   UNL     1       4.549   3.385  17.702  0.00  0.00    +0.000 HD
BRANCH  20  24
ATOM     24  O   UNL     1       5.564   5.484  17.746  0.00  0.00    +0.000 OA
BRANCH  24  26
ATOM     25  C   UNL     1       7.445   6.989  17.306  0.00  0.00    +0.000 C 
ATOM     26  C   UNL     1       6.762   5.664  16.947  0.00  0.00    +0.000 C 
ATOM     27  C   UNL     1       6.454   5.547  15.447  0.00  0.00    +0.000 C 
ATOM     28  C   UNL     1       7.713   4.520  17.334  0.00  0.00    +0.000 C 
ENDBRANCH  24  26
ENDBRANCH  20  24
ENDBRANCH  19  22
ENDBRANCH  18  19
ENDBRANCH  17  18
ENDBRANCH  16  17
ENDBRANCH   1  16
TORSDOF 9
ENDMDL
MODEL 2
REMARK VINA RESULT:      -6.7      0.926      1.232
REMARK  Name = 
REMARK  12 active torsions:
REMARK  status: ('A' for Active; 'I' for Inactive)
REMARK    1  A    between atoms: C_1  and  C_2
REMARK    2  A    between atoms: C_2  and  C_3
REMARK    3  A    between atoms: C_2  and  C_4
REMARK    4  A    between atoms: C_2  and  O_5
REMARK    5  A    between atoms: O_5  and  C_6
REMARK    6  A    between atoms: N_8  and  C_9
REMARK    7  A    between atoms: C_9  and  C_10
REMARK    8  A    between atoms: C_10  and  C_11
REMARK    9  A    between atoms: C_11  and  C_12
REMARK   10  A    between atoms: C_12  and  N_13
REMARK   11  A    between atoms: C_16  and  O_17
REMARK   12  A    between atoms: C_16  and  C_18
REMARK                            x       y       z     vdW  Elec       q    Type
REMARK                         _______ _______ _______ _____ _____    ______ ____
ROOT
ATOM      1  N   UNL     1       1.375   4.185  18.622  0.00  0.00    +0.000 NA
ATOM      2  C   UNL     1       2.248   5.126  17.902  0.00  0.00    +0.000 C 
ATOM      3  C   UNL     1       1.922   6.575  18.271  0.00  0.00    +0.000 C 
ATOM      4  C   UNL     1       2.001   6.812  19.791  0.00  0.00    +0.000 C 
ATOM      5  C   UNL     1       1.187   5.747  20.534  0.00  0.00    +0.000 C 
ATOM      6  C   UNL     1       1.557   4.342  20.077  0.00  0.00    +0.000 C 
ENDROOT
BRANCH   4   7
ATOM      7  C   UNL     1       1.516   8.215  20.173  0.00  0.00    +0.000 A 
ATOM      8  C   UNL     1       1.278   8.545  21.522  0.00  0.00    +0.000 A 
ATOM      9  C   UNL     1       0.851   9.824  21.891  0.00  0.00    +0.000 A 
ATOM     10  C   UNL     1       0.657  10.795  20.916  0.00  0.00    +0.000 A 
ATOM     11 CL   UNL     1       0.140  12.372  21.367  0.00  0.00    +0.000 Cl
ATOM     12  C   UNL     1       0.891  10.500  19.577  0.00  0.00    +0.000 A 
ATOM     13  C   UNL     1       1.324   9.222  19.210  0.00  0.00    +0.000 A 
ENDBRANCH   4   7
BRANCH   4  14
ATOM     14  O   UNL     1       3.372   6.645  20.186  0.00  0.00    +0.000 OA
ATOM     15  H   UNL     1       3.923   6.900  19.425  0.00  0.00    +0.000 HD
ENDBRANCH   4  14
BRANCH   1  16
ATOM     16  C   UNL     1       1.661   2.800  18.205  0.00  0.00    +0.000 C 
BRANCH  16  17
ATOM     17  C   UNL     1       2.246   1.934  19.338  0.00  0.00    +0.000 C 
BRANCH  17  18
ATOM     18  C   UNL     1       3.745   1.666  19.197  0.00  0.00    +0.000 C 
BRANCH  18  19
ATOM     19  C   UNL     1       4.563   2.882  19.610  0.00  0.00    +0.000 C 
BRANCH  19  22
ATOM     20  C   UNL     1       5.938   4.589  18.569  0.00  0.00    +0.000 C 
ATOM     21  O   UNL     1       5.659   5.423  19.422  0.00  0.00    +0.000 OA
ATOM     22  N   UNL     1       5.474   3.313  18.586  0.00  0.00    +0.000 N 
ATOM     23  H   UNL     1       5.795   2.683  17.866  0.00  0.00    +0.000 HD
BRANCH  20  24
ATOM     24  O   UNL     1       6.730   4.786  17.488  0.00  0.00    +0.000 OA
BRANCH  24  26
ATOM     25  C   UNL     1       4.967   4.021  15.971  0.00  0.00    +0.000 C 
ATOM     26  C   UNL     1       6.087   5.040  16.213  0.00  0.00    +0.000 C 
ATOM     27  C   UNL     1       7.111   5.073  15.069  0.00  0.00    +0.000 C 
ATOM     28  C   UNL     1       5.445   6.432  16.325  0.00  0.00    +0.000 C 
ENDBRANCH  24  26
ENDBRANCH  20  24
ENDBRANCH  19  22
ENDBRANCH  18  19
ENDBRANCH  17  18
ENDBRANCH  16  17
ENDBRANCH   1  16
TORSDOF 9
ENDMDL
MODEL 3
REMARK VINA RESULT:      -6.5      0.944      1.680
REMARK  Name = 
REMARK  12 active torsions:
REMARK  status: ('A' for Active; 'I' for Inactive)
REMARK    1  A    between atoms: C_1  and  C_2
REMARK    2  A    between atoms: C_2  and  C_3
REMARK    3  A    between atoms: C_2  and  C_4
REMARK    4  A    between atoms: C_2  and  O_5
REMARK    5  A    between atoms: O_5  and  C_6
REMARK    6  A    between atoms: N_8  and  C_9
REMARK    7  A    between atoms: C_9  and  C_10
REMARK    8  A    between atoms: C_10  and  C_11
REMARK    9  A    between atoms: C_11  and  C_12
REMARK   10  A    between atoms: C_12  and  N_13
REMARK   11  A    between atoms: C_16  and  O_17
REMARK   12  A    between atoms: C_16  and  C_18
REMARK                            x       y       z     vdW  Elec       q    Type
REMARK                         _______ _______ _______ _____ _____    ______ ____
ROOT
ATOM      1  N   UNL     1       0.989   3.919  19.369  0.00  0.00    +0.000 NA
ATOM      2  C   UNL     1       1.833   4.382  18.256  0.00  0.00    +0.000 C 
ATOM      3  C   UNL     1       1.739   5.900  18.086  0.00  0.00    +0.000 C 
ATOM      4  C   UNL     1       2.093   6.646  19.387  0.00  0.00    +0.000 C 
ATOM      5  C   UNL     1       1.296   6.068  20.560  0.00  0.00    +0.000 C 
ATOM      6  C   UNL     1       1.424   4.552  20.628  0.00  0.00    +0.000 C 
ENDROOT
BRANCH   4   7
ATOM      7  C   UNL     1       1.841   8.153  19.262  0.00  0.00    +0.000 A 
ATOM      8  C   UNL     1       2.222   8.846  18.096  0.00  0.00    +0.000 A 
ATOM      9  C   UNL     1       1.986  10.217  17.958  0.00  0.00    +0.000 A 
ATOM     10  C   UNL     1       1.364  10.917  18.985  0.00  0.00    +0.000 A 
ATOM     11 CL   UNL     1       1.064  12.602  18.815  0.00  0.00    +0.000 Cl
ATOM     12  C   UNL     1       0.971  10.258  20.145  0.00  0.00    +0.000 A 
ATOM     13  C   UNL     1       1.201   8.885  20.278  0.00  0.00    +0.000 A 
ENDBRANCH   4   7
BRANCH   4  14
ATOM     14  O   UNL     1       3.483   6.405  19.660  0.00  0.00    +0.000 OA
ATOM     15  H   UNL     1       3.627   5.446  19.585  0.00  0.00    +0.000 HD
ENDBRANCH   4  14
BRANCH   1  16
ATOM     16  C   UNL     1       1.042   2.449  19.476  0.00  0.00    +0.000 C 
BRANCH  16  17
ATOM     17  C   UNL     1       2.428   1.867  19.137  0.00  0.00    +0.000 C 
BRANCH  17  18
ATOM     18  C   UNL     1       3.500   2.183  20.181  0.00  0.00    +0.000 C 
BRANCH  18  19
ATOM     19  C   UNL     1       4.873   2.325  19.537  0.00  0.00    +0.000 C 
BRANCH  19  22
ATOM     20  C   UNL     1       5.145   4.063  17.866  0.00  0.00    +0.000 C 
ATOM     21  O   UNL     1       4.824   3.319  16.948  0.00  0.00    +0.000 OA
ATOM     22  N   UNL     1       5.176   3.680  19.168  0.00  0.00    +0.000 N 
ATOM     23  H   UNL     1       5.407   4.376  19.861  0.00  0.00    +0.000 HD
BRANCH  20  24
ATOM     24  O   UNL     1       5.520   5.359  17.749  0.00  0.00    +0.000 OA
BRANCH  24  26
ATOM     25  C   UNL     1       7.850   4.607  17.707  0.00  0.00    +0.000 C 
ATOM     26  C   UNL     1       6.834   5.639  17.202  0.00  0.00    +0.000 C 
ATOM     27  C   UNL     1       7.265   7.083  17.499  0.00  0.00    +0.000 C 
ATOM     28  C   UNL     1       6.710   5.478  15.679  0.00  0.00    +0.000 C 
ENDBRANCH  24  26
ENDBRANCH  20  24
ENDBRANCH  19  22
ENDBRANCH  18  19
ENDBRANCH  17  18
ENDBRANCH  16  17
ENDBRANCH   1  16
TORSDOF 9
ENDMDL
MODEL 4
REMARK VINA RESULT:      -6.5      5.781      8.375
REMARK  Name = 
REMARK  12 active torsions:
REMARK  status: ('A' for Active; 'I' for Inactive)
REMARK    1  A    between atoms: C_1  and  C_2
REMARK    2  A    between atoms: C_2  and  C_3
REMARK    3  A    between atoms: C_2  and  C_4
REMARK    4  A    between atoms: C_2  and  O_5
REMARK    5  A    between atoms: O_5  and  C_6
REMARK    6  A    between atoms: N_8  and  C_9
REMARK    7  A    between atoms: C_9  and  C_10
REMARK    8  A    between atoms: C_10  and  C_11
REMARK    9  A    between atoms: C_11  and  C_12
REMARK   10  A    between atoms: C_12  and  N_13
REMARK   11  A    between atoms: C_16  and  O_17
REMARK   12  A    between atoms: C_16  and  C_18
REMARK                            x       y       z     vdW  Elec       q    Type
REMARK                         _______ _______ _______ _____ _____    ______ ____
ROOT
ATOM      1  N   UNL     1       7.075   7.269  17.790  0.00  0.00    +0.000 NA
ATOM      2  C   UNL     1       7.423   6.134  18.660  0.00  0.00    +0.000 C 
ATOM      3  C   UNL     1       6.192   5.279  18.971  0.00  0.00    +0.000 C 
ATOM      4  C   UNL     1       5.494   4.790  17.688  0.00  0.00    +0.000 C 
ATOM      5  C   UNL     1       5.251   5.967  16.737  0.00  0.00    +0.000 C 
ATOM      6  C   UNL     1       6.522   6.776  16.515  0.00  0.00    +0.000 C 
ENDROOT
BRANCH   4   7
ATOM      7  C   UNL     1       4.175   4.074  17.997  0.00  0.00    +0.000 A 
ATOM      8  C   UNL     1       2.943   4.688  17.697  0.00  0.00    +0.000 A 
ATOM      9  C   UNL     1       1.730   4.045  17.958  0.00  0.00    +0.000 A 
ATOM     10  C   UNL     1       1.729   2.775  18.522  0.00  0.00    +0.000 A 
ATOM     11 CL   UNL     1       0.239   1.976  18.836  0.00  0.00    +0.000 Cl
ATOM     12  C   UNL     1       2.930   2.141  18.823  0.00  0.00    +0.000 A 
ATOM     13  C   UNL     1       4.143   2.784  18.555  0.00  0.00    +0.000 A 
ENDBRANCH   4   7
BRANCH   4  14
ATOM     14  O   UNL     1       6.394   3.889  17.022  0.00  0.00    +0.000 OA
ATOM     15  H   UNL     1       6.545   4.243  16.128  0.00  0.00    +0.000 HD
ENDBRANCH   4  14
BRANCH   1  16
ATOM     16  C   UNL     1       8.259   8.117  17.555  0.00  0.00    +0.000 C 
BRANCH  16  17
ATOM     17  C   UNL     1       8.053   9.580  17.995  0.00  0.00    +0.000 C 
BRANCH  17  18
ATOM     18  C   UNL     1       9.135  10.095  18.946  0.00  0.00    +0.000 C 
BRANCH  18  19
ATOM     19  C   UNL     1       9.912  11.247  18.325  0.00  0.00    +0.000 C 
BRANCH  19  22
ATOM     20  C   UNL     1      10.009  13.671  18.357  0.00  0.00    +0.000 C 
ATOM     21  O   UNL     1      10.562  13.727  17.266  0.00  0.00    +0.000 OA
ATOM     22  N   UNL     1       9.629  12.509  18.949  0.00  0.00    +0.000 N 
ATOM     23  H   UNL     1       9.137  12.564  19.828  0.00  0.00    +0.000 HD
BRANCH  20  24
ATOM     24  O   UNL     1       9.693  14.725  19.148  0.00  0.00    +0.000 OA
BRANCH  24  26
ATOM     25  C   UNL     1       7.583  14.845  17.911  0.00  0.00    +0.000 C 
ATOM     26  C   UNL     1       8.646  15.622  18.696  0.00  0.00    +0.000 C 
ATOM     27  C   UNL     1       9.227  16.798  17.897  0.00  0.00    +0.000 C 
ATOM     28  C   UNL     1       7.983  16.183  19.965  0.00  0.00    +0.000 C 
ENDBRANCH  24  26
ENDBRANCH  20  24
ENDBRANCH  19  22
ENDBRANCH  18  19
ENDBRANCH  17  18
ENDBRANCH  16  17
ENDBRANCH   1  16
TORSDOF 9
ENDMDL
MODEL 5
REMARK VINA RESULT:      -6.5      3.589      6.032
REMARK  Name = 
REMARK  12 active torsions:
REMARK  status: ('A' for Active; 'I' for Inactive)
REMARK    1  A    between atoms: C_1  and  C_2
REMARK    2  A    between atoms: C_2  and  C_3
REMARK    3  A    between atoms: C_2  and  C_4
REMARK    4  A    between atoms: C_2  and  O_5
REMARK    5  A    between atoms: O_5  and  C_6
REMARK    6  A    between atoms: N_8  and  C_9
REMARK    7  A    between atoms: C_9  and  C_10
REMARK    8  A    between atoms: C_10  and  C_11
REMARK    9  A    between atoms: C_11  and  C_12
REMARK   10  A    between atoms: C_12  and  N_13
REMARK   11  A    between atoms: C_16  and  O_17
REMARK   12  A    between atoms: C_16  and  C_18
REMARK                            x       y       z     vdW  Elec       q    Type
REMARK                         _______ _______ _______ _____ _____    ______ ____
ROOT
ATOM      1  N   UNL     1       0.887  10.266  18.630  0.00  0.00    +0.000 NA
ATOM      2  C   UNL     1       0.964  11.729  18.773  0.00  0.00    +0.000 C 
ATOM      3  C   UNL     1      -0.253  12.274  19.524  0.00  0.00    +0.000 C 
ATOM      4  C   UNL     1      -0.431  11.599  20.897  0.00  0.00    +0.000 C 
ATOM      5  C   UNL     1      -0.384  10.075  20.746  0.00  0.00    +0.000 C 
ATOM      6  C   UNL     1       0.842   9.630  19.960  0.00  0.00    +0.000 C 
ENDROOT
BRANCH   4   7
ATOM      7  C   UNL     1      -1.738  12.027  21.574  0.00  0.00    +0.000 A 
ATOM      8  C   UNL     1      -2.777  12.604  20.817  0.00  0.00    +0.000 A 
ATOM      9  C   UNL     1      -3.982  12.986  21.414  0.00  0.00    +0.000 A 
ATOM     10  C   UNL     1      -4.168  12.796  22.779  0.00  0.00    +0.000 A 
ATOM     11 CL   UNL     1      -5.652  13.257  23.515  0.00  0.00    +0.000 Cl
ATOM     12  C   UNL     1      -3.161  12.222  23.549  0.00  0.00    +0.000 A 
ATOM     13  C   UNL     1      -1.960  11.835  22.949  0.00  0.00    +0.000 A 
ENDBRANCH   4   7
BRANCH   4  14
ATOM     14  O   UNL     1       0.688  11.977  21.714  0.00  0.00    +0.000 OA
ATOM     15  H   UNL     1       1.108  12.744  21.289  0.00  0.00    +0.000 HD
ENDBRANCH   4  14
BRANCH   1  16
ATOM     16  C   UNL     1       2.034   9.767  17.848  0.00  0.00    +0.000 C 
BRANCH  16  17
ATOM     17  C   UNL     1       2.121   8.228  17.816  0.00  0.00    +0.000 C 
BRANCH  17  18
ATOM     18  C   UNL     1       3.520   7.684  18.111  0.00  0.00    +0.000 C 
BRANCH  18  19
ATOM     19  C   UNL     1       3.802   6.423  17.305  0.00  0.00    +0.000 C 
BRANCH  19  22
ATOM     20  C   UNL     1       3.683   4.567  18.862  0.00  0.00    +0.000 C 
ATOM     21  O   UNL     1       4.722   4.888  19.423  0.00  0.00    +0.000 OA
ATOM     22  N   UNL     1       3.137   5.265  17.833  0.00  0.00    +0.000 N 
ATOM     23  H   UNL     1       2.252   4.950  17.464  0.00  0.00    +0.000 HD
BRANCH  20  24
ATOM     24  O   UNL     1       2.918   3.487  19.154  0.00  0.00    +0.000 OA
BRANCH  24  26
ATOM     25  C   UNL     1       1.712   5.065  20.586  0.00  0.00    +0.000 C 
ATOM     26  C   UNL     1       1.992   3.592  20.266  0.00  0.00    +0.000 C 
ATOM     27  C   UNL     1       2.496   2.808  21.487  0.00  0.00    +0.000 C 
ATOM     28  C   UNL     1       0.677   2.951  19.792  0.00  0.00    +0.000 C 
ENDBRANCH  24  26
ENDBRANCH  20  24
ENDBRANCH  19  22
ENDBRANCH  18  19
ENDBRANCH  17  18
ENDBRANCH  16  17
ENDBRANCH   1  16
TORSDOF 9
ENDMDL
MODEL 6
REMARK VINA RESULT:      -6.4      3.687      7.603
REMARK  Name = 
REMARK  12 active torsions:
REMARK  status: ('A' for Active; 'I' for Inactive)
REMARK    1  A    between atoms: C_1  and  C_2
REMARK    2  A    between atoms: C_2  and  C_3
REMARK    3  A    between atoms: C_2  and  C_4
REMARK    4  A    between atoms: C_2  and  O_5
REMARK    5  A    between atoms: O_5  and  C_6
REMARK    6  A    between atoms: N_8  and  C_9
REMARK    7  A    between atoms: C_9  and  C_10
REMARK    8  A    between atoms: C_10  and  C_11
REMARK    9  A    between atoms: C_11  and  C_12
REMARK   10  A    between atoms: C_12  and  N_13
REMARK   11  A    between atoms: C_16  and  O_17
REMARK   12  A    between atoms: C_16  and  C_18
REMARK                            x       y       z     vdW  Elec       q    Type
REMARK                         _______ _______ _______ _____ _____    ______ ____
ROOT
ATOM      1  N   UNL     1       3.183   4.779  19.346  0.00  0.00    +0.000 NA
ATOM      2  C   UNL     1       3.541   3.402  18.967  0.00  0.00    +0.000 C 
ATOM      3  C   UNL     1       4.147   3.356  17.563  0.00  0.00    +0.000 C 
ATOM      4  C   UNL     1       5.363   4.293  17.431  0.00  0.00    +0.000 C 
ATOM      5  C   UNL     1       5.010   5.692  17.946  0.00  0.00    +0.000 C 
ATOM      6  C   UNL     1       4.384   5.633  19.334  0.00  0.00    +0.000 C 
ENDROOT
BRANCH   4   7
ATOM      7  C   UNL     1       5.866   4.369  15.985  0.00  0.00    +0.000 A 
ATOM      8  C   UNL     1       7.052   5.067  15.679  0.00  0.00    +0.000 A 
ATOM      9  C   UNL     1       7.534   5.134  14.369  0.00  0.00    +0.000 A 
ATOM     10  C   UNL     1       6.840   4.503  13.343  0.00  0.00    +0.000 A 
ATOM     11 CL   UNL     1       7.436   4.577  11.732  0.00  0.00    +0.000 Cl
ATOM     12  C   UNL     1       5.670   3.802  13.618  0.00  0.00    +0.000 A 
ATOM     13  C   UNL     1       5.192   3.730  14.929  0.00  0.00    +0.000 A 
ENDBRANCH   4   7
BRANCH   4  14
ATOM     14  O   UNL     1       6.400   3.779  18.282  0.00  0.00    +0.000 OA
ATOM     15  H   UNL     1       5.970   3.224  18.955  0.00  0.00    +0.000 HD
ENDBRANCH   4  14
BRANCH   1  16
ATOM     16  C   UNL     1       2.542   4.794  20.674  0.00  0.00    +0.000 C 
BRANCH  16  17
ATOM     17  C   UNL     1       1.312   5.721  20.743  0.00  0.00    +0.000 C 
BRANCH  17  18
ATOM     18  C   UNL     1       1.664   7.199  20.914  0.00  0.00    +0.000 C 
BRANCH  18  19
ATOM     19  C   UNL     1       1.779   7.898  19.566  0.00  0.00    +0.000 C 
BRANCH  19  22
ATOM     20  C   UNL     1       1.396  10.049  18.510  0.00  0.00    +0.000 C 
ATOM     21  O   UNL     1       1.943   9.707  17.470  0.00  0.00    +0.000 OA
ATOM     22  N   UNL     1       1.243   9.231  19.583  0.00  0.00    +0.000 N 
ATOM     23  H   UNL     1       0.738   9.586  20.381  0.00  0.00    +0.000 HD
BRANCH  20  24
ATOM     24  O   UNL     1       0.868  11.269  18.771  0.00  0.00    +0.000 OA
BRANCH  24  26
ATOM     25  C   UNL     1      -1.089  11.387  20.240  0.00  0.00    +0.000 C 
ATOM     26  C   UNL     1      -0.578  11.392  18.794  0.00  0.00    +0.000 C 
ATOM     27  C   UNL     1      -1.242  10.309  17.930  0.00  0.00    +0.000 C 
ATOM     28  C   UNL     1      -0.902  12.763  18.180  0.00  0.00    +0.000 C 
ENDBRANCH  24  26
ENDBRANCH  20  24
ENDBRANCH  19  22
ENDBRANCH  18  19
ENDBRANCH  17  18
ENDBRANCH  16  17
ENDBRANCH   1  16
TORSDOF 9
ENDMDL
MODEL 7
REMARK VINA RESULT:      -6.4      4.397      6.562
REMARK  Name = 
REMARK  12 active torsions:
REMARK  status: ('A' for Active; 'I' for Inactive)
REMARK    1  A    between atoms: C_1  and  C_2
REMARK    2  A    between atoms: C_2  and  C_3
REMARK    3  A    between atoms: C_2  and  C_4
REMARK    4  A    between atoms: C_2  and  O_5
REMARK    5  A    between atoms: O_5  and  C_6
REMARK    6  A    between atoms: N_8  and  C_9
REMARK    7  A    between atoms: C_9  and  C_10
REMARK    8  A    between atoms: C_10  and  C_11
REMARK    9  A    between atoms: C_11  and  C_12
REMARK   10  A    between atoms: C_12  and  N_13
REMARK   11  A    between atoms: C_16  and  O_17
REMARK   12  A    between atoms: C_16  and  C_18
REMARK                            x       y       z     vdW  Elec       q    Type
REMARK                         _______ _______ _______ _____ _____    ______ ____
ROOT
ATOM      1  N   UNL     1       0.351   9.742  18.965  0.00  0.00    +0.000 NA
ATOM      2  C   UNL     1      -0.225   9.728  17.611  0.00  0.00    +0.000 C 
ATOM      3  C   UNL     1      -1.700  10.137  17.634  0.00  0.00    +0.000 C 
ATOM      4  C   UNL     1      -1.906  11.510  18.302  0.00  0.00    +0.000 C 
ATOM      5  C   UNL     1      -1.194  11.549  19.658  0.00  0.00    +0.000 C 
ATOM      6  C   UNL     1       0.256  11.096  19.540  0.00  0.00    +0.000 C 
ENDROOT
BRANCH   4   7
ATOM      7  C   UNL     1      -3.392  11.841  18.471  0.00  0.00    +0.000 A 
ATOM      8  C   UNL     1      -4.320  11.490  17.469  0.00  0.00    +0.000 A 
ATOM      9  C   UNL     1      -5.681  11.770  17.612  0.00  0.00    +0.000 A 
ATOM     10  C   UNL     1      -6.139  12.405  18.762  0.00  0.00    +0.000 A 
ATOM     11 CL   UNL     1      -7.815  12.743  18.945  0.00  0.00    +0.000 Cl
ATOM     12  C   UNL     1      -5.247  12.757  19.770  0.00  0.00    +0.000 A 
ATOM     13  C   UNL     1      -3.887  12.470  19.627  0.00  0.00    +0.000 A 
ENDBRANCH   4   7
BRANCH   4  14
ATOM     14  O   UNL     1      -1.278  12.496  17.467  0.00  0.00    +0.000 OA
ATOM     15  H   UNL     1      -0.742  13.064  18.047  0.00  0.00    +0.000 HD
ENDBRANCH   4  14
BRANCH   1  16
ATOM     16  C   UNL     1       1.752   9.284  18.931  0.00  0.00    +0.000 C 
BRANCH  16  17
ATOM     17  C   UNL     1       1.995   8.155  17.909  0.00  0.00    +0.000 C 
BRANCH  17  18
ATOM     18  C   UNL     1       3.445   7.670  17.860  0.00  0.00    +0.000 C 
BRANCH  18  19
ATOM     19  C   UNL     1       3.519   6.186  17.529  0.00  0.00    +0.000 C 
BRANCH  19  22
ATOM     20  C   UNL     1       3.216   4.010  18.558  0.00  0.00    +0.000 C 
ATOM     21  O   UNL     1       3.203   3.431  17.480  0.00  0.00    +0.000 OA
ATOM     22  N   UNL     1       3.389   5.350  18.690  0.00  0.00    +0.000 N 
ATOM     23  H   UNL     1       3.432   5.733  19.623  0.00  0.00    +0.000 HD
BRANCH  20  24
ATOM     24  O   UNL     1       3.058   3.436  19.775  0.00  0.00    +0.000 OA
BRANCH  24  26
ATOM     25  C   UNL     1       1.131   4.781  20.465  0.00  0.00    +0.000 C 
ATOM     26  C   UNL     1       1.718   3.371  20.326  0.00  0.00    +0.000 C 
ATOM     27  C   UNL     1       1.697   2.591  21.650  0.00  0.00    +0.000 C 
ATOM     28  C   UNL     1       0.868   2.602  19.302  0.00  0.00    +0.000 C 
ENDBRANCH  24  26
ENDBRANCH  20  24
ENDBRANCH  19  22
ENDBRANCH  18  19
ENDBRANCH  17  18
ENDBRANCH  16  17
ENDBRANCH   1  16
TORSDOF 9
ENDMDL
MODEL 8
REMARK VINA RESULT:      -6.4      2.992      5.010
REMARK  Name = 
REMARK  12 active torsions:
REMARK  status: ('A' for Active; 'I' for Inactive)
REMARK    1  A    between atoms: C_1  and  C_2
REMARK    2  A    between atoms: C_2  and  C_3
REMARK    3  A    between atoms: C_2  and  C_4
REMARK    4  A    between atoms: C_2  and  O_5
REMARK    5  A    between atoms: O_5  and  C_6
REMARK    6  A    between atoms: N_8  and  C_9
REMARK    7  A    between atoms: C_9  and  C_10
REMARK    8  A    between atoms: C_10  and  C_11
REMARK    9  A    between atoms: C_11  and  C_12
REMARK   10  A    between atoms: C_12  and  N_13
REMARK   11  A    between atoms: C_16  and  O_17
REMARK   12  A    between atoms: C_16  and  C_18
REMARK                            x       y       z     vdW  Elec       q    Type
REMARK                         _______ _______ _______ _____ _____    ______ ____
ROOT
ATOM      1  N   UNL     1       2.209   7.692  18.823  0.00  0.00    +0.000 NA
ATOM      2  C   UNL     1       2.329   8.783  17.842  0.00  0.00    +0.000 C 
ATOM      3  C   UNL     1       0.991   9.500  17.649  0.00  0.00    +0.000 C 
ATOM      4  C   UNL     1       0.421  10.023  18.981  0.00  0.00    +0.000 C 
ATOM      5  C   UNL     1       0.420   8.905  20.029  0.00  0.00    +0.000 C 
ATOM      6  C   UNL     1       1.782   8.230  20.127  0.00  0.00    +0.000 C 
ENDROOT
BRANCH   4   7
ATOM      7  C   UNL     1      -0.990  10.594  18.810  0.00  0.00    +0.000 A 
ATOM      8  C   UNL     1      -1.867  10.052  17.848  0.00  0.00    +0.000 A 
ATOM      9  C   UNL     1      -3.163  10.549  17.687  0.00  0.00    +0.000 A 
ATOM     10  C   UNL     1      -3.606  11.596  18.488  0.00  0.00    +0.000 A 
ATOM     11 CL   UNL     1      -5.203  12.204  18.299  0.00  0.00    +0.000 Cl
ATOM     12  C   UNL     1      -2.765  12.146  19.450  0.00  0.00    +0.000 A 
ATOM     13  C   UNL     1      -1.471  11.643  19.614  0.00  0.00    +0.000 A 
ENDBRANCH   4   7
BRANCH   4  14
ATOM     14  O   UNL     1       1.308  11.048  19.459  0.00  0.00    +0.000 OA
ATOM     15  H   UNL     1       1.877  11.305  18.714  0.00  0.00    +0.000 HD
ENDBRANCH   4  14
BRANCH   1  16
ATOM     16  C   UNL     1       3.491   6.972  18.947  0.00  0.00    +0.000 C 
BRANCH  16  17
ATOM     17  C   UNL     1       4.028   6.454  17.599  0.00  0.00    +0.000 C 
BRANCH  17  18
ATOM     18  C   UNL     1       5.393   5.773  17.700  0.00  0.00    +0.000 C 
BRANCH  18  19
ATOM     19  C   UNL     1       5.275   4.268  17.498  0.00  0.00    +0.000 C 
BRANCH  19  22
ATOM     20  C   UNL     1       3.447   3.018  18.492  0.00  0.00    +0.000 C 
ATOM     21  O   UNL     1       2.821   2.976  17.440  0.00  0.00    +0.000 OA
ATOM     22  N   UNL     1       4.666   3.604  18.618  0.00  0.00    +0.000 N 
ATOM     23  H   UNL     1       5.128   3.548  19.513  0.00  0.00    +0.000 HD
BRANCH  20  24
ATOM     24  O   UNL     1       3.047   2.509  19.681  0.00  0.00    +0.000 OA
BRANCH  24  26
ATOM     25  C   UNL     1       1.568   2.432  21.631  0.00  0.00    +0.000 C 
ATOM     26  C   UNL     1       1.741   2.895  20.180  0.00  0.00    +0.000 C 
ATOM     27  C   UNL     1       0.620   2.385  19.261  0.00  0.00    +0.000 C 
ATOM     28  C   UNL     1       1.711   4.432  20.165  0.00  0.00    +0.000 C 
ENDBRANCH  24  26
ENDBRANCH  20  24
ENDBRANCH  19  22
ENDBRANCH  18  19
ENDBRANCH  17  18
ENDBRANCH  16  17
ENDBRANCH   1  16
TORSDOF 9
ENDMDL
MODEL 9
REMARK VINA RESULT:      -6.4      2.927      4.325
REMARK  Name = 
REMARK  12 active torsions:
REMARK  status: ('A' for Active; 'I' for Inactive)
REMARK    1  A    between atoms: C_1  and  C_2
REMARK    2  A    between atoms: C_2  and  C_3
REMARK    3  A    between atoms: C_2  and  C_4
REMARK    4  A    between atoms: C_2  and  O_5
REMARK    5  A    between atoms: O_5  and  C_6
REMARK    6  A    between atoms: N_8  and  C_9
REMARK    7  A    between atoms: C_9  and  C_10
REMARK    8  A    between atoms: C_10  and  C_11
REMARK    9  A    between atoms: C_11  and  C_12
REMARK   10  A    between atoms: C_12  and  N_13
REMARK   11  A    between atoms: C_16  and  O_17
REMARK   12  A    between atoms: C_16  and  C_18
REMARK                            x       y       z     vdW  Elec       q    Type
REMARK                         _______ _______ _______ _____ _____    ______ ____
ROOT
ATOM      1  N   UNL     1       1.216   8.327  19.717  0.00  0.00    +0.000 NA
ATOM      2  C   UNL     1       1.244   9.644  19.060  0.00  0.00    +0.000 C 
ATOM      3  C   UNL     1       0.091  10.527  19.543  0.00  0.00    +0.000 C 
ATOM      4  C   UNL     1       0.090  10.682  21.076  0.00  0.00    +0.000 C 
ATOM      5  C   UNL     1       0.187   9.307  21.745  0.00  0.00    +0.000 C 
ATOM      6  C   UNL     1       1.341   8.491  21.178  0.00  0.00    +0.000 C 
ENDROOT
BRANCH   4   7
ATOM      7  C   UNL     1      -1.155  11.427  21.570  0.00  0.00    +0.000 A 
ATOM      8  C   UNL     1      -1.534  11.363  22.926  0.00  0.00    +0.000 A 
ATOM      9  C   UNL     1      -2.656  12.049  23.397  0.00  0.00    +0.000 A 
ATOM     10  C   UNL     1      -3.419  12.812  22.521  0.00  0.00    +0.000 A 
ATOM     11 CL   UNL     1      -4.795  13.665  23.100  0.00  0.00    +0.000 Cl
ATOM     12  C   UNL     1      -3.065  12.899  21.178  0.00  0.00    +0.000 A 
ATOM     13  C   UNL     1      -1.937  12.218  20.709  0.00  0.00    +0.000 A 
ENDBRANCH   4   7
BRANCH   4  14
ATOM     14  O   UNL     1       1.272  11.412  21.439  0.00  0.00    +0.000 OA
ATOM     15  H   UNL     1       1.846  10.802  21.934  0.00  0.00    +0.000 HD
ENDBRANCH   4  14
BRANCH   1  16
ATOM     16  C   UNL     1       2.295   7.470  19.191  0.00  0.00    +0.000 C 
BRANCH  16  17
ATOM     17  C   UNL     1       2.586   6.248  20.085  0.00  0.00    +0.000 C 
BRANCH  17  18
ATOM     18  C   UNL     1       1.889   4.967  19.623  0.00  0.00    +0.000 C 
BRANCH  18  19
ATOM     19  C   UNL     1       2.901   3.885  19.270  0.00  0.00    +0.000 C 
BRANCH  19  22
ATOM     20  C   UNL     1       4.868   4.099  17.865  0.00  0.00    +0.000 C 
ATOM     21  O   UNL     1       4.388   3.402  16.979  0.00  0.00    +0.000 OA
ATOM     22  N   UNL     1       4.212   4.414  19.012  0.00  0.00    +0.000 N 
ATOM     23  H   UNL     1       4.669   5.033  19.664  0.00  0.00    +0.000 HD
BRANCH  20  24
ATOM     24  O   UNL     1       6.102   4.657  17.862  0.00  0.00    +0.000 OA
BRANCH  24  26
ATOM     25  C   UNL     1       6.842   5.112  15.572  0.00  0.00    +0.000 C 
ATOM     26  C   UNL     1       6.368   5.712  16.902  0.00  0.00    +0.000 C 
ATOM     27  C   UNL     1       7.354   6.745  17.467  0.00  0.00    +0.000 C 
ATOM     28  C   UNL     1       5.024   6.416  16.652  0.00  0.00    +0.000 C 
ENDBRANCH  24  26
ENDBRANCH  20  24
ENDBRANCH  19  22
ENDBRANCH  18  19
ENDBRANCH  17  18
ENDBRANCH  16  17
ENDBRANCH   1  16
TORSDOF 9
ENDMDL
