MODEL 1
REMARK VINA RESULT:      -7.6      0.000      0.000
REMARK  Name = 
REMARK  4 active torsions:
REMARK  status: ('A' for Active; 'I' for Inactive)
REMARK    1  A    between atoms: C_1  and  C_2
REMARK    2  A    between atoms: C_2  and  C_3
REMARK    3  A    between atoms: C_6  and  C_7
REMARK    4  A    between atoms: C_14  and  O_15
REMARK                            x       y       z     vdW  Elec       q    Type
REMARK                         _______ _______ _______ _____ _____    ______ ____
ROOT
ATOM      1  C   UNL     1       3.073   6.785  18.247  0.00  0.00    +0.000 A 
ATOM      2  C   UNL     1       2.396   5.678  17.924  0.00  0.00    +0.000 A 
ATOM      3  C   UNL     1       3.143   4.442  17.776  0.00  0.00    +0.000 A 
ATOM      4  O   UNL     1       2.694   3.354  18.097  0.00  0.00    +0.000 OA
ATOM      5  C   UNL     1       4.423   4.630  17.128  0.00  0.00    +0.000 A 
ATOM      6  C   UNL     1       4.917   3.578  16.324  0.00  0.00    +0.000 A 
ATOM      7  C   UNL     1       5.979   3.826  15.493  0.00  0.00    +0.000 A 
ATOM      8  C   UNL     1       6.548   5.082  15.484  0.00  0.00    +0.000 A 
ATOM      9  C   UNL     1       6.082   6.146  16.312  0.00  0.00    +0.000 A 
ATOM     10  C   UNL     1       4.989   5.906  17.147  0.00  0.00    +0.000 A 
ATOM     11  O   UNL     1       4.451   6.922  17.953  0.00  0.00    +0.000 OA
ENDROOT
BRANCH   1  15
ATOM     12  C   UNL     1       0.323   9.836  19.621  0.00  0.00    +0.000 A 
ATOM     13  C   UNL     1       0.880   8.933  20.518  0.00  0.00    +0.000 A 
ATOM     14  C   UNL     1       1.845   8.018  20.081  0.00  0.00    +0.000 A 
ATOM     15  C   UNL     1       2.261   7.945  18.723  0.00  0.00    +0.000 A 
ATOM     16  C   UNL     1       1.807   8.951  17.874  0.00  0.00    +0.000 A 
ATOM     17  C   UNL     1       0.837   9.876  18.309  0.00  0.00    +0.000 A 
BRANCH  12  19
ATOM     18  C   UNL     1      -1.705  11.158  18.875  0.00  0.00    +0.000 C 
ATOM     19  C   UNL     1      -0.819  10.733  20.034  0.00  0.00    +0.000 C 
ENDBRANCH  12  19
ENDBRANCH   1  15
BRANCH   8  20
ATOM     20  O   UNL     1       7.572   5.339  14.594  0.00  0.00    +0.000 OA
ATOM     21  H   UNL     1       7.571   4.661  13.930  0.00  0.00    +0.000 HD
ENDBRANCH   8  20
TORSDOF 3
ENDMDL
MODEL 2
REMARK VINA RESULT:      -7.6      1.083      1.636
REMARK  Name = 
REMARK  4 active torsions:
REMARK  status: ('A' for Active; 'I' for Inactive)
REMARK    1  A    between atoms: C_1  and  C_2
REMARK    2  A    between atoms: C_2  and  C_3
REMARK    3  A    between atoms: C_6  and  C_7
REMARK    4  A    between atoms: C_14  and  O_15
REMARK                            x       y       z     vdW  Elec       q    Type
REMARK                         _______ _______ _______ _____ _____    ______ ____
ROOT
ATOM      1  C   UNL     1       3.193   6.068  18.370  0.00  0.00    +0.000 A 
ATOM      2  C   UNL     1       2.584   5.017  17.810  0.00  0.00    +0.000 A 
ATOM      3  C   UNL     1       3.402   3.877  17.434  0.00  0.00    +0.000 A 
ATOM      4  O   UNL     1       3.009   2.725  17.515  0.00  0.00    +0.000 OA
ATOM      5  C   UNL     1       4.679   4.259  16.872  0.00  0.00    +0.000 A 
ATOM      6  C   UNL     1       5.244   3.420  15.885  0.00  0.00    +0.000 A 
ATOM      7  C   UNL     1       6.304   3.886  15.151  0.00  0.00    +0.000 A 
ATOM      8  C   UNL     1       6.802   5.146  15.413  0.00  0.00    +0.000 A 
ATOM      9  C   UNL     1       6.264   5.992  16.427  0.00  0.00    +0.000 A 
ATOM     10  C   UNL     1       5.173   5.531  17.166  0.00  0.00    +0.000 A 
ATOM     11  O   UNL     1       4.567   6.333  18.146  0.00  0.00    +0.000 OA
ENDROOT
BRANCH   1  15
ATOM     12  C   UNL     1       1.052   9.228  20.414  0.00  0.00    +0.000 A 
ATOM     13  C   UNL     1       1.361   9.344  19.065  0.00  0.00    +0.000 A 
ATOM     14  C   UNL     1       1.961   8.275  18.390  0.00  0.00    +0.000 A 
ATOM     15  C   UNL     1       2.311   7.063  19.048  0.00  0.00    +0.000 A 
ATOM     16  C   UNL     1       1.860   6.908  20.356  0.00  0.00    +0.000 A 
ATOM     17  C   UNL     1       1.253   7.980  21.040  0.00  0.00    +0.000 A 
BRANCH  12  19
ATOM     18  C   UNL     1      -0.160  10.028  22.490  0.00  0.00    +0.000 C 
ATOM     19  C   UNL     1       0.538  10.412  21.196  0.00  0.00    +0.000 C 
ENDBRANCH  12  19
ENDBRANCH   1  15
BRANCH   8  20
ATOM     20  O   UNL     1       7.825   5.631  14.621  0.00  0.00    +0.000 OA
ATOM     21  H   UNL     1       8.436   6.100  15.174  0.00  0.00    +0.000 HD
ENDBRANCH   8  20
TORSDOF 3
ENDMDL
MODEL 3
REMARK VINA RESULT:      -7.3      0.505      1.204
REMARK  Name = 
REMARK  4 active torsions:
REMARK  status: ('A' for Active; 'I' for Inactive)
REMARK    1  A    between atoms: C_1  and  C_2
REMARK    2  A    between atoms: C_2  and  C_3
REMARK    3  A    between atoms: C_6  and  C_7
REMARK    4  A    between atoms: C_14  and  O_15
REMARK                            x       y       z     vdW  Elec       q    Type
REMARK                         _______ _______ _______ _____ _____    ______ ____
ROOT
ATOM      1  C   UNL     1       3.014   6.709  18.255  0.00  0.00    +0.000 A 
ATOM      2  C   UNL     1       2.451   5.501  18.139  0.00  0.00    +0.000 A 
ATOM      3  C   UNL     1       3.329   4.353  17.996  0.00  0.00    +0.000 A 
ATOM      4  O   UNL     1       3.075   3.261  18.478  0.00  0.00    +0.000 OA
ATOM      5  C   UNL     1       4.473   4.617  17.152  0.00  0.00    +0.000 A 
ATOM      6  C   UNL     1       4.989   3.549  16.384  0.00  0.00    +0.000 A 
ATOM      7  C   UNL     1       5.888   3.827  15.387  0.00  0.00    +0.000 A 
ATOM      8  C   UNL     1       6.279   5.133  15.178  0.00  0.00    +0.000 A 
ATOM      9  C   UNL     1       5.793   6.219  15.964  0.00  0.00    +0.000 A 
ATOM     10  C   UNL     1       4.864   5.946  16.970  0.00  0.00    +0.000 A 
ATOM     11  O   UNL     1       4.310   6.974  17.749  0.00  0.00    +0.000 OA
ENDROOT
BRANCH   1  15
ATOM     12  C   UNL     1       0.862  10.186  19.679  0.00  0.00    +0.000 A 
ATOM     13  C   UNL     1       1.181  10.057  18.333  0.00  0.00    +0.000 A 
ATOM     14  C   UNL     1       1.785   8.883  17.868  0.00  0.00    +0.000 A 
ATOM     15  C   UNL     1       2.128   7.810  18.736  0.00  0.00    +0.000 A 
ATOM     16  C   UNL     1       1.666   7.894  20.047  0.00  0.00    +0.000 A 
ATOM     17  C   UNL     1       1.056   9.072  20.521  0.00  0.00    +0.000 A 
BRANCH  12  19
ATOM     18  C   UNL     1      -1.153  11.679  20.043  0.00  0.00    +0.000 C 
ATOM     19  C   UNL     1       0.344  11.492  20.230  0.00  0.00    +0.000 C 
ENDBRANCH  12  19
ENDBRANCH   1  15
BRANCH   8  20
ATOM     20  O   UNL     1       7.132   5.409  14.127  0.00  0.00    +0.000 OA
ATOM     21  H   UNL     1       7.955   4.965  14.282  0.00  0.00    +0.000 HD
ENDBRANCH   8  20
TORSDOF 3
ENDMDL
MODEL 4
REMARK VINA RESULT:      -7.2      2.030      7.053
REMARK  Name = 
REMARK  4 active torsions:
REMARK  status: ('A' for Active; 'I' for Inactive)
REMARK    1  A    between atoms: C_1  and  C_2
REMARK    2  A    between atoms: C_2  and  C_3
REMARK    3  A    between atoms: C_6  and  C_7
REMARK    4  A    between atoms: C_14  and  O_15
REMARK                            x       y       z     vdW  Elec       q    Type
REMARK                         _______ _______ _______ _____ _____    ______ ____
ROOT
ATOM      1  C   UNL     1       3.389   6.141  18.071  0.00  0.00    +0.000 A 
ATOM      2  C   UNL     1       3.492   5.714  19.335  0.00  0.00    +0.000 A 
ATOM      3  C   UNL     1       2.377   5.964  20.231  0.00  0.00    +0.000 A 
ATOM      4  O   UNL     1       2.044   5.182  21.106  0.00  0.00    +0.000 OA
ATOM      5  C   UNL     1       1.774   7.264  20.035  0.00  0.00    +0.000 A 
ATOM      6  C   UNL     1       1.221   7.912  21.162  0.00  0.00    +0.000 A 
ATOM      7  C   UNL     1       0.889   9.239  21.063  0.00  0.00    +0.000 A 
ATOM      8  C   UNL     1       1.083   9.894  19.865  0.00  0.00    +0.000 A 
ATOM      9  C   UNL     1       1.611   9.247  18.709  0.00  0.00    +0.000 A 
ATOM     10  C   UNL     1       1.967   7.901  18.807  0.00  0.00    +0.000 A 
ATOM     11  O   UNL     1       2.535   7.216  17.721  0.00  0.00    +0.000 OA
ENDROOT
BRANCH   1  15
ATOM     12  C   UNL     1       5.887   4.566  14.905  0.00  0.00    +0.000 A 
ATOM     13  C   UNL     1       5.726   5.937  15.060  0.00  0.00    +0.000 A 
ATOM     14  C   UNL     1       5.001   6.437  16.147  0.00  0.00    +0.000 A 
ATOM     15  C   UNL     1       4.376   5.584  17.099  0.00  0.00    +0.000 A 
ATOM     16  C   UNL     1       4.672   4.227  17.013  0.00  0.00    +0.000 A 
ATOM     17  C   UNL     1       5.403   3.718  15.922  0.00  0.00    +0.000 A 
BRANCH  12  19
ATOM     18  C   UNL     1       5.546   3.489  12.637  0.00  0.00    +0.000 C 
ATOM     19  C   UNL     1       6.539   3.998  13.668  0.00  0.00    +0.000 C 
ENDBRANCH  12  19
ENDBRANCH   1  15
BRANCH   8  20
ATOM     20  O   UNL     1       0.810  11.246  19.798  0.00  0.00    +0.000 OA
ATOM     21  H   UNL     1       0.571  11.461  18.906  0.00  0.00    +0.000 HD
ENDBRANCH   8  20
TORSDOF 3
ENDMDL
MODEL 5
REMARK VINA RESULT:      -7.2      2.212      7.449
REMARK  Name = 
REMARK  4 active torsions:
REMARK  status: ('A' for Active; 'I' for Inactive)
REMARK    1  A    between atoms: C_1  and  C_2
REMARK    2  A    between atoms: C_2  and  C_3
REMARK    3  A    between atoms: C_6  and  C_7
REMARK    4  A    between atoms: C_14  and  O_15
REMARK                            x       y       z     vdW  Elec       q    Type
REMARK                         _______ _______ _______ _____ _____    ______ ____
ROOT
ATOM      1  C   UNL     1       3.028   7.438  18.351  0.00  0.00    +0.000 A 
ATOM      2  C   UNL     1       2.411   8.297  17.533  0.00  0.00    +0.000 A 
ATOM      3  C   UNL     1       1.900   9.531  18.104  0.00  0.00    +0.000 A 
ATOM      4  O   UNL     1       1.901  10.590  17.498  0.00  0.00    +0.000 OA
ATOM      5  C   UNL     1       1.311   9.348  19.412  0.00  0.00    +0.000 A 
ATOM      6  C   UNL     1       0.230  10.183  19.773  0.00  0.00    +0.000 A 
ATOM      7  C   UNL     1      -0.512   9.860  20.880  0.00  0.00    +0.000 A 
ATOM      8  C   UNL     1      -0.169   8.747  21.620  0.00  0.00    +0.000 A 
ATOM      9  C   UNL     1       0.939   7.912  21.288  0.00  0.00    +0.000 A 
ATOM     10  C   UNL     1       1.688   8.225  20.152  0.00  0.00    +0.000 A 
ATOM     11  O   UNL     1       2.762   7.418  19.742  0.00  0.00    +0.000 OA
ENDROOT
BRANCH   1  15
ATOM     12  C   UNL     1       5.130   4.447  16.029  0.00  0.00    +0.000 A 
ATOM     13  C   UNL     1       5.579   5.762  16.058  0.00  0.00    +0.000 A 
ATOM     14  C   UNL     1       4.954   6.696  16.892  0.00  0.00    +0.000 A 
ATOM     15  C   UNL     1       3.831   6.361  17.699  0.00  0.00    +0.000 A 
ATOM     16  C   UNL     1       3.492   5.013  17.771  0.00  0.00    +0.000 A 
ATOM     17  C   UNL     1       4.119   4.067  16.936  0.00  0.00    +0.000 A 
BRANCH  12  19
ATOM     18  C   UNL     1       6.310   4.112  13.813  0.00  0.00    +0.000 C 
ATOM     19  C   UNL     1       5.691   3.458  15.037  0.00  0.00    +0.000 C 
ENDBRANCH  12  19
ENDBRANCH   1  15
BRANCH   8  20
ATOM     20  O   UNL     1      -0.964   8.393  22.692  0.00  0.00    +0.000 OA
ATOM     21  H   UNL     1      -1.758   8.913  22.662  0.00  0.00    +0.000 HD
ENDBRANCH   8  20
TORSDOF 3
ENDMDL
MODEL 6
REMARK VINA RESULT:      -7.1      1.143      1.164
REMARK  Name = 
REMARK  4 active torsions:
REMARK  status: ('A' for Active; 'I' for Inactive)
REMARK    1  A    between atoms: C_1  and  C_2
REMARK    2  A    between atoms: C_2  and  C_3
REMARK    3  A    between atoms: C_6  and  C_7
REMARK    4  A    between atoms: C_14  and  O_15
REMARK                            x       y       z     vdW  Elec       q    Type
REMARK                         _______ _______ _______ _____ _____    ______ ____
ROOT
ATOM      1  C   UNL     1       2.736   6.504  18.885  0.00  0.00    +0.000 A 
ATOM      2  C   UNL     1       2.033   5.844  17.958  0.00  0.00    +0.000 A 
ATOM      3  C   UNL     1       2.483   4.517  17.579  0.00  0.00    +0.000 A 
ATOM      4  O   UNL     1       1.715   3.615  17.288  0.00  0.00    +0.000 OA
ATOM      5  C   UNL     1       3.923   4.412  17.494  0.00  0.00    +0.000 A 
ATOM      6  C   UNL     1       4.465   3.521  16.541  0.00  0.00    +0.000 A 
ATOM      7  C   UNL     1       5.804   3.596  16.254  0.00  0.00    +0.000 A 
ATOM      8  C   UNL     1       6.584   4.520  16.918  0.00  0.00    +0.000 A 
ATOM      9  C   UNL     1       6.059   5.405  17.905  0.00  0.00    +0.000 A 
ATOM     10  C   UNL     1       4.694   5.346  18.190  0.00  0.00    +0.000 A 
ATOM     11  O   UNL     1       4.104   6.220  19.117  0.00  0.00    +0.000 OA
ENDROOT
BRANCH   1  15
ATOM     12  C   UNL     1       0.388   9.698  20.628  0.00  0.00    +0.000 A 
ATOM     13  C   UNL     1       0.834   8.641  21.413  0.00  0.00    +0.000 A 
ATOM     14  C   UNL     1       1.677   7.669  20.863  0.00  0.00    +0.000 A 
ATOM     15  C   UNL     1       2.075   7.695  19.497  0.00  0.00    +0.000 A 
ATOM     16  C   UNL     1       1.745   8.835  18.770  0.00  0.00    +0.000 A 
ATOM     17  C   UNL     1       0.898   9.819  19.319  0.00  0.00    +0.000 A 
BRANCH  12  19
ATOM     18  C   UNL     1      -0.907  11.835  20.210  0.00  0.00    +0.000 C 
ATOM     19  C   UNL     1      -0.632  10.677  21.155  0.00  0.00    +0.000 C 
ENDBRANCH  12  19
ENDBRANCH   1  15
BRANCH   8  20
ATOM     20  O   UNL     1       7.916   4.633  16.571  0.00  0.00    +0.000 OA
ATOM     21  H   UNL     1       8.179   3.840  16.122  0.00  0.00    +0.000 HD
ENDBRANCH   8  20
TORSDOF 3
ENDMDL
MODEL 7
REMARK VINA RESULT:      -7.0      1.503      1.934
REMARK  Name = 
REMARK  4 active torsions:
REMARK  status: ('A' for Active; 'I' for Inactive)
REMARK    1  A    between atoms: C_1  and  C_2
REMARK    2  A    between atoms: C_2  and  C_3
REMARK    3  A    between atoms: C_6  and  C_7
REMARK    4  A    between atoms: C_14  and  O_15
REMARK                            x       y       z     vdW  Elec       q    Type
REMARK                         _______ _______ _______ _____ _____    ______ ____
ROOT
ATOM      1  C   UNL     1       3.810   6.941  18.203  0.00  0.00    +0.000 A 
ATOM      2  C   UNL     1       4.264   5.991  19.027  0.00  0.00    +0.000 A 
ATOM      3  C   UNL     1       5.605   5.480  18.802  0.00  0.00    +0.000 A 
ATOM      4  O   UNL     1       6.346   5.143  19.711  0.00  0.00    +0.000 OA
ATOM      5  C   UNL     1       5.923   5.326  17.400  0.00  0.00    +0.000 A 
ATOM      6  C   UNL     1       6.796   4.278  17.031  0.00  0.00    +0.000 A 
ATOM      7  C   UNL     1       6.903   3.943  15.706  0.00  0.00    +0.000 A 
ATOM      8  C   UNL     1       6.176   4.652  14.772  0.00  0.00    +0.000 A 
ATOM      9  C   UNL     1       5.315   5.733  15.124  0.00  0.00    +0.000 A 
ATOM     10  C   UNL     1       5.188   6.068  16.473  0.00  0.00    +0.000 A 
ATOM     11  O   UNL     1       4.322   7.091  16.891  0.00  0.00    +0.000 OA
ENDROOT
BRANCH   1  15
ATOM     12  C   UNL     1       0.581   9.487  19.561  0.00  0.00    +0.000 A 
ATOM     13  C   UNL     1       0.996   9.521  18.235  0.00  0.00    +0.000 A 
ATOM     14  C   UNL     1       1.969   8.622  17.784  0.00  0.00    +0.000 A 
ATOM     15  C   UNL     1       2.592   7.681  18.650  0.00  0.00    +0.000 A 
ATOM     16  C   UNL     1       2.059   7.560  19.930  0.00  0.00    +0.000 A 
ATOM     17  C   UNL     1       1.078   8.460  20.390  0.00  0.00    +0.000 A 
BRANCH  12  19
ATOM     18  C   UNL     1      -1.105  11.301  19.025  0.00  0.00    +0.000 C 
ATOM     19  C   UNL     1      -0.359  10.535  20.105  0.00  0.00    +0.000 C 
ENDBRANCH  12  19
ENDBRANCH   1  15
BRANCH   8  20
ATOM     20  O   UNL     1       6.239   4.261  13.449  0.00  0.00    +0.000 OA
ATOM     21  H   UNL     1       5.356   4.117  13.135  0.00  0.00    +0.000 HD
ENDBRANCH   8  20
TORSDOF 3
ENDMDL
MODEL 8
REMARK VINA RESULT:      -7.0      3.187      7.272
REMARK  Name = 
REMARK  4 active torsions:
REMARK  status: ('A' for Active; 'I' for Inactive)
REMARK    1  A    between atoms: C_1  and  C_2
REMARK    2  A    between atoms: C_2  and  C_3
REMARK    3  A    between atoms: C_6  and  C_7
REMARK    4  A    between atoms: C_14  and  O_15
REMARK                            x       y       z     vdW  Elec       q    Type
REMARK                         _______ _______ _______ _____ _____    ______ ____
ROOT
ATOM      1  C   UNL     1       4.740   4.918  17.624  0.00  0.00    +0.000 A 
ATOM      2  C   UNL     1       3.727   5.783  17.501  0.00  0.00    +0.000 A 
ATOM      3  C   UNL     1       3.084   6.255  18.714  0.00  0.00    +0.000 A 
ATOM      4  O   UNL     1       2.650   7.388  18.835  0.00  0.00    +0.000 OA
ATOM      5  C   UNL     1       2.933   5.219  19.713  0.00  0.00    +0.000 A 
ATOM      6  C   UNL     1       1.808   5.284  20.566  0.00  0.00    +0.000 A 
ATOM      7  C   UNL     1       1.497   4.189  21.331  0.00  0.00    +0.000 A 
ATOM      8  C   UNL     1       2.301   3.070  21.264  0.00  0.00    +0.000 A 
ATOM      9  C   UNL     1       3.458   3.000  20.432  0.00  0.00    +0.000 A 
ATOM     10  C   UNL     1       3.770   4.104  19.637  0.00  0.00    +0.000 A 
ATOM     11  O   UNL     1       4.867   4.084  18.761  0.00  0.00    +0.000 OA
ENDROOT
BRANCH   1  15
ATOM     12  C   UNL     1       7.055   4.791  13.966  0.00  0.00    +0.000 A 
ATOM     13  C   UNL     1       7.544   5.449  15.088  0.00  0.00    +0.000 A 
ATOM     14  C   UNL     1       6.836   5.396  16.294  0.00  0.00    +0.000 A 
ATOM     15  C   UNL     1       5.592   4.716  16.414  0.00  0.00    +0.000 A 
ATOM     16  C   UNL     1       5.195   3.942  15.328  0.00  0.00    +0.000 A 
ATOM     17  C   UNL     1       5.905   3.988  14.112  0.00  0.00    +0.000 A 
BRANCH  12  19
ATOM     18  C   UNL     1       7.158   4.032  11.552  0.00  0.00    +0.000 C 
ATOM     19  C   UNL     1       7.723   4.950  12.622  0.00  0.00    +0.000 C 
ENDBRANCH  12  19
ENDBRANCH   1  15
BRANCH   8  20
ATOM     20  O   UNL     1       1.939   1.950  21.987  0.00  0.00    +0.000 OA
ATOM     21  H   UNL     1       2.641   1.740  22.589  0.00  0.00    +0.000 HD
ENDBRANCH   8  20
TORSDOF 3
ENDMDL
MODEL 9
REMARK VINA RESULT:      -7.0      1.627      3.176
REMARK  Name = 
REMARK  4 active torsions:
REMARK  status: ('A' for Active; 'I' for Inactive)
REMARK    1  A    between atoms: C_1  and  C_2
REMARK    2  A    between atoms: C_2  and  C_3
REMARK    3  A    between atoms: C_6  and  C_7
REMARK    4  A    between atoms: C_14  and  O_15
REMARK                            x       y       z     vdW  Elec       q    Type
REMARK                         _______ _______ _______ _____ _____    ______ ____
ROOT
ATOM      1  C   UNL     1       2.486   7.093  18.147  0.00  0.00    +0.000 A 
ATOM      2  C   UNL     1       3.804   6.954  17.969  0.00  0.00    +0.000 A 
ATOM      3  C   UNL     1       4.269   5.824  17.184  0.00  0.00    +0.000 A 
ATOM      4  O   UNL     1       5.243   5.883  16.451  0.00  0.00    +0.000 OA
ATOM      5  C   UNL     1       3.520   4.613  17.438  0.00  0.00    +0.000 A 
ATOM      6  C   UNL     1       4.203   3.380  17.339  0.00  0.00    +0.000 A 
ATOM      7  C   UNL     1       3.599   2.251  17.829  0.00  0.00    +0.000 A 
ATOM      8  C   UNL     1       2.338   2.346  18.380  0.00  0.00    +0.000 A 
ATOM      9  C   UNL     1       1.622   3.577  18.459  0.00  0.00    +0.000 A 
ATOM     10  C   UNL     1       2.238   4.734  17.979  0.00  0.00    +0.000 A 
ATOM     11  O   UNL     1       1.608   5.986  18.068  0.00  0.00    +0.000 OA
ENDROOT
BRANCH   1  15
ATOM     12  C   UNL     1       0.666  10.766  19.544  0.00  0.00    +0.000 A 
ATOM     13  C   UNL     1       0.821   9.684  20.403  0.00  0.00    +0.000 A 
ATOM     14  C   UNL     1       1.503   8.541  19.971  0.00  0.00    +0.000 A 
ATOM     15  C   UNL     1       2.021   8.420  18.651  0.00  0.00    +0.000 A 
ATOM     16  C   UNL     1       1.989   9.563  17.859  0.00  0.00    +0.000 A 
ATOM     17  C   UNL     1       1.307  10.719  18.289  0.00  0.00    +0.000 A 
BRANCH  12  19
ATOM     18  C   UNL     1      -0.568  12.835  18.762  0.00  0.00    +0.000 C 
ATOM     19  C   UNL     1      -0.185  11.949  19.935  0.00  0.00    +0.000 C 
ENDBRANCH  12  19
ENDBRANCH   1  15
BRANCH   8  20
ATOM     20  O   UNL     1       1.770   1.215  18.932  0.00  0.00    +0.000 OA
ATOM     21  H   UNL     1       1.882   1.250  19.873  0.00  0.00    +0.000 HD
ENDBRANCH   8  20
TORSDOF 3
ENDMDL
