MODEL 1
REMARK VINA RESULT:      -9.5      0.000      0.000
REMARK  Name = 
REMARK  3 active torsions:
REMARK  status: ('A' for Active; 'I' for Inactive)
REMARK    1  A    between atoms: C_8  and  C_9
REMARK    2  A    between atoms: C_11  and  C_12
REMARK    3  A    between atoms: C_18  and  C_19
REMARK                            x       y       z     vdW  Elec       q    Type
REMARK                         _______ _______ _______ _____ _____    ______ ____
ROOT
ATOM      1  C   UNL     1       4.872   5.503  16.736  0.00  0.00    +0.000 A 
ATOM      2  N   UNL     1       4.354   4.519  17.435  0.00  0.00    +0.000 NA
ATOM      3  C   UNL     1       3.342   5.076  18.192  0.00  0.00    +0.000 A 
ATOM      4  C   UNL     1       3.247   6.447  17.966  0.00  0.00    +0.000 A 
ATOM      5  N   UNL     1       4.236   6.678  17.031  0.00  0.00    +0.000 N 
ATOM      6  H   UNL     1       4.472   7.572  16.633  0.00  0.00    +0.000 HD
ENDROOT
BRANCH   1  14
ATOM      7 BR   UNL     1       3.865   2.941  11.349  0.00  0.00    +0.000 Br
ATOM      8  C   UNL     1       5.231   3.712  12.407  0.00  0.00    +0.000 A 
ATOM      9  C   UNL     1       6.523   3.807  11.896  0.00  0.00    +0.000 A 
ATOM     10  C   UNL     1       7.548   4.385  12.650  0.00  0.00    +0.000 A 
ATOM     11  C   UNL     1       7.225   4.864  13.926  0.00  0.00    +0.000 A 
ATOM     12  N   UNL     1       8.020   5.483  14.866  0.00  0.00    +0.000 N 
ATOM     13  C   UNL     1       7.283   5.802  15.977  0.00  0.00    +0.000 A 
ATOM     14  C   UNL     1       5.992   5.364  15.765  0.00  0.00    +0.000 A 
ATOM     15  C   UNL     1       5.940   4.776  14.467  0.00  0.00    +0.000 A 
ATOM     16  C   UNL     1       4.922   4.183  13.688  0.00  0.00    +0.000 A 
ATOM     17  H   UNL     1       9.005   5.679  14.741  0.00  0.00    +0.000 HD
ENDBRANCH   1  14
BRANCH   3  18
ATOM     18  C   UNL     1       2.547   4.259  19.097  0.00  0.00    +0.000 A 
ATOM     19  C   UNL     1       2.919   4.167  20.445  0.00  0.00    +0.000 A 
ATOM     20  C   UNL     1       2.161   3.414  21.345  0.00  0.00    +0.000 A 
ATOM     21  C   UNL     1       1.021   2.743  20.905  0.00  0.00    +0.000 A 
ATOM     22  C   UNL     1       0.651   2.810  19.562  0.00  0.00    +0.000 A 
ATOM     23  C   UNL     1       1.422   3.549  18.661  0.00  0.00    +0.000 A 
ENDBRANCH   3  18
BRANCH   4  24
ATOM     24  C   UNL     1       2.417   7.529  18.509  0.00  0.00    +0.000 A 
ATOM     25  C   UNL     1       1.967   8.574  17.691  0.00  0.00    +0.000 A 
ATOM     26  C   UNL     1       1.223   9.633  18.218  0.00  0.00    +0.000 A 
ATOM     27  C   UNL     1       0.878   9.639  19.566  0.00  0.00    +0.000 A 
ATOM     28  C   UNL     1       1.285   8.590  20.388  0.00  0.00    +0.000 A 
ATOM     29  C   UNL     1       2.057   7.548  19.865  0.00  0.00    +0.000 A 
ENDBRANCH   4  24
TORSDOF 3
ENDMDL
MODEL 2
REMARK VINA RESULT:      -9.4      0.065      1.313
REMARK  Name = 
REMARK  3 active torsions:
REMARK  status: ('A' for Active; 'I' for Inactive)
REMARK    1  A    between atoms: C_8  and  C_9
REMARK    2  A    between atoms: C_11  and  C_12
REMARK    3  A    between atoms: C_18  and  C_19
REMARK                            x       y       z     vdW  Elec       q    Type
REMARK                         _______ _______ _______ _____ _____    ______ ____
ROOT
ATOM      1  C   UNL     1       4.881   5.487  16.711  0.00  0.00    +0.000 A 
ATOM      2  N   UNL     1       4.356   4.513  17.420  0.00  0.00    +0.000 NA
ATOM      3  C   UNL     1       3.355   5.087  18.179  0.00  0.00    +0.000 A 
ATOM      4  C   UNL     1       3.276   6.458  17.945  0.00  0.00    +0.000 A 
ATOM      5  N   UNL     1       4.262   6.672  17.003  0.00  0.00    +0.000 N 
ATOM      6  H   UNL     1       4.507   7.560  16.598  0.00  0.00    +0.000 HD
ENDROOT
BRANCH   1  14
ATOM      7 BR   UNL     1       3.802   2.946  11.328  0.00  0.00    +0.000 Br
ATOM      8  C   UNL     1       5.187   3.693  12.380  0.00  0.00    +0.000 A 
ATOM      9  C   UNL     1       6.478   3.765  11.863  0.00  0.00    +0.000 A 
ATOM     10  C   UNL     1       7.517   4.323  12.612  0.00  0.00    +0.000 A 
ATOM     11  C   UNL     1       7.209   4.807  13.890  0.00  0.00    +0.000 A 
ATOM     12  N   UNL     1       8.020   5.411  14.827  0.00  0.00    +0.000 N 
ATOM     13  C   UNL     1       7.294   5.743  15.941  0.00  0.00    +0.000 A 
ATOM     14  C   UNL     1       5.995   5.328  15.735  0.00  0.00    +0.000 A 
ATOM     15  C   UNL     1       5.925   4.742  14.437  0.00  0.00    +0.000 A 
ATOM     16  C   UNL     1       4.893   4.168  13.663  0.00  0.00    +0.000 A 
ATOM     17  H   UNL     1       9.007   5.589  14.697  0.00  0.00    +0.000 HD
ENDBRANCH   1  14
BRANCH   3  18
ATOM     18  C   UNL     1       2.555   4.286  19.093  0.00  0.00    +0.000 A 
ATOM     19  C   UNL     1       1.433   3.603  18.606  0.00  0.00    +0.000 A 
ATOM     20  C   UNL     1       0.661   2.803  19.452  0.00  0.00    +0.000 A 
ATOM     21  C   UNL     1       1.004   2.678  20.797  0.00  0.00    +0.000 A 
ATOM     22  C   UNL     1       2.107   3.368  21.299  0.00  0.00    +0.000 A 
ATOM     23  C   UNL     1       2.866   4.183  20.455  0.00  0.00    +0.000 A 
ENDBRANCH   3  18
BRANCH   4  24
ATOM     24  C   UNL     1       2.463   7.554  18.486  0.00  0.00    +0.000 A 
ATOM     25  C   UNL     1       2.089   7.579  19.837  0.00  0.00    +0.000 A 
ATOM     26  C   UNL     1       1.271   8.592  20.341  0.00  0.00    +0.000 A 
ATOM     27  C   UNL     1       0.848   9.624  19.509  0.00  0.00    +0.000 A 
ATOM     28  C   UNL     1       1.239   9.637  18.172  0.00  0.00    +0.000 A 
ATOM     29  C   UNL     1       2.033   8.605  17.662  0.00  0.00    +0.000 A 
ENDBRANCH   4  24
TORSDOF 3
ENDMDL
MODEL 3
REMARK VINA RESULT:      -9.2      0.153      3.749
REMARK  Name = 
REMARK  3 active torsions:
REMARK  status: ('A' for Active; 'I' for Inactive)
REMARK    1  A    between atoms: C_8  and  C_9
REMARK    2  A    between atoms: C_11  and  C_12
REMARK    3  A    between atoms: C_18  and  C_19
REMARK                            x       y       z     vdW  Elec       q    Type
REMARK                         _______ _______ _______ _____ _____    ______ ____
ROOT
ATOM      1  C   UNL     1       4.938   5.498  16.668  0.00  0.00    +0.000 A 
ATOM      2  N   UNL     1       4.371   6.648  16.953  0.00  0.00    +0.000 NA
ATOM      3  C   UNL     1       3.422   6.380  17.919  0.00  0.00    +0.000 A 
ATOM      4  C   UNL     1       3.390   5.021  18.224  0.00  0.00    +0.000 A 
ATOM      5  N   UNL     1       4.372   4.496  17.408  0.00  0.00    +0.000 N 
ATOM      6  H   UNL     1       4.629   3.524  17.348  0.00  0.00    +0.000 HD
ENDROOT
BRANCH   1  14
ATOM      7 BR   UNL     1       3.726   2.967  11.309  0.00  0.00    +0.000 Br
ATOM      8  C   UNL     1       5.143   3.682  12.341  0.00  0.00    +0.000 A 
ATOM      9  C   UNL     1       6.429   3.720  11.806  0.00  0.00    +0.000 A 
ATOM     10  C   UNL     1       7.491   4.255  12.540  0.00  0.00    +0.000 A 
ATOM     11  C   UNL     1       7.212   4.751  13.820  0.00  0.00    +0.000 A 
ATOM     12  N   UNL     1       8.049   5.338  14.744  0.00  0.00    +0.000 N 
ATOM     13  C   UNL     1       7.347   5.691  15.867  0.00  0.00    +0.000 A 
ATOM     14  C   UNL     1       6.035   5.308  15.679  0.00  0.00    +0.000 A 
ATOM     15  C   UNL     1       5.934   4.720  14.384  0.00  0.00    +0.000 A 
ATOM     16  C   UNL     1       4.878   4.169  13.625  0.00  0.00    +0.000 A 
ATOM     17  H   UNL     1       9.039   5.491  14.600  0.00  0.00    +0.000 HD
ENDBRANCH   1  14
BRANCH   3  18
ATOM     18  C   UNL     1       2.594   7.442  18.472  0.00  0.00    +0.000 A 
ATOM     19  C   UNL     1       2.202   8.506  17.648  0.00  0.00    +0.000 A 
ATOM     20  C   UNL     1       1.384   9.526  18.140  0.00  0.00    +0.000 A 
ATOM     21  C   UNL     1       0.950   9.493  19.464  0.00  0.00    +0.000 A 
ATOM     22  C   UNL     1       1.348   8.450  20.299  0.00  0.00    +0.000 A 
ATOM     23  C   UNL     1       2.181   7.441  19.810  0.00  0.00    +0.000 A 
ENDBRANCH   3  18
BRANCH   4  24
ATOM     24  C   UNL     1       2.577   4.179  19.109  0.00  0.00    +0.000 A 
ATOM     25  C   UNL     1       1.436   3.519  18.632  0.00  0.00    +0.000 A 
ATOM     26  C   UNL     1       0.631   2.760  19.486  0.00  0.00    +0.000 A 
ATOM     27  C   UNL     1       0.981   2.613  20.824  0.00  0.00    +0.000 A 
ATOM     28  C   UNL     1       2.131   3.231  21.309  0.00  0.00    +0.000 A 
ATOM     29  C   UNL     1       2.919   4.015  20.460  0.00  0.00    +0.000 A 
ENDBRANCH   4  24
TORSDOF 3
ENDMDL
MODEL 4
REMARK VINA RESULT:      -9.2      0.102      3.760
REMARK  Name = 
REMARK  3 active torsions:
REMARK  status: ('A' for Active; 'I' for Inactive)
REMARK    1  A    between atoms: C_8  and  C_9
REMARK    2  A    between atoms: C_11  and  C_12
REMARK    3  A    between atoms: C_18  and  C_19
REMARK                            x       y       z     vdW  Elec       q    Type
REMARK                         _______ _______ _______ _____ _____    ______ ____
ROOT
ATOM      1  C   UNL     1       4.904   5.576  16.674  0.00  0.00    +0.000 A 
ATOM      2  N   UNL     1       4.316   6.724  16.925  0.00  0.00    +0.000 NA
ATOM      3  C   UNL     1       3.364   6.465  17.891  0.00  0.00    +0.000 A 
ATOM      4  C   UNL     1       3.352   5.115  18.231  0.00  0.00    +0.000 A 
ATOM      5  N   UNL     1       4.348   4.584  17.436  0.00  0.00    +0.000 N 
ATOM      6  H   UNL     1       4.622   3.616  17.403  0.00  0.00    +0.000 HD
ENDROOT
BRANCH   1  14
ATOM      7 BR   UNL     1       3.751   2.986  11.331  0.00  0.00    +0.000 Br
ATOM      8  C   UNL     1       5.156   3.715  12.368  0.00  0.00    +0.000 A 
ATOM      9  C   UNL     1       6.447   3.751  11.847  0.00  0.00    +0.000 A 
ATOM     10  C   UNL     1       7.501   4.296  12.585  0.00  0.00    +0.000 A 
ATOM     11  C   UNL     1       7.207   4.805  13.857  0.00  0.00    +0.000 A 
ATOM     12  N   UNL     1       8.034   5.403  14.783  0.00  0.00    +0.000 N 
ATOM     13  C   UNL     1       7.319   5.767  15.895  0.00  0.00    +0.000 A 
ATOM     14  C   UNL     1       6.010   5.379  15.698  0.00  0.00    +0.000 A 
ATOM     15  C   UNL     1       5.924   4.776  14.408  0.00  0.00    +0.000 A 
ATOM     16  C   UNL     1       4.877   4.215  13.645  0.00  0.00    +0.000 A 
ATOM     17  H   UNL     1       9.025   5.557  14.648  0.00  0.00    +0.000 HD
ENDBRANCH   1  14
BRANCH   3  18
ATOM     18  C   UNL     1       2.515   7.528  18.409  0.00  0.00    +0.000 A 
ATOM     19  C   UNL     1       2.143   7.512  19.761  0.00  0.00    +0.000 A 
ATOM     20  C   UNL     1       1.352   8.533  20.295  0.00  0.00    +0.000 A 
ATOM     21  C   UNL     1       0.924   9.580  19.482  0.00  0.00    +0.000 A 
ATOM     22  C   UNL     1       1.270   9.597  18.132  0.00  0.00    +0.000 A 
ATOM     23  C   UNL     1       2.045   8.566  17.595  0.00  0.00    +0.000 A 
ENDBRANCH   3  18
BRANCH   4  24
ATOM     24  C   UNL     1       2.546   4.282  19.132  0.00  0.00    +0.000 A 
ATOM     25  C   UNL     1       2.872   4.160  20.489  0.00  0.00    +0.000 A 
ATOM     26  C   UNL     1       2.138   3.326  21.336  0.00  0.00    +0.000 A 
ATOM     27  C   UNL     1       1.036   2.634  20.846  0.00  0.00    +0.000 A 
ATOM     28  C   UNL     1       0.673   2.770  19.509  0.00  0.00    +0.000 A 
ATOM     29  C   UNL     1       1.427   3.581  18.655  0.00  0.00    +0.000 A 
ENDBRANCH   4  24
TORSDOF 3
ENDMDL
MODEL 5
REMARK VINA RESULT:      -8.9      3.391      7.454
REMARK  Name = 
REMARK  3 active torsions:
REMARK  status: ('A' for Active; 'I' for Inactive)
REMARK    1  A    between atoms: C_8  and  C_9
REMARK    2  A    between atoms: C_11  and  C_12
REMARK    3  A    between atoms: C_18  and  C_19
REMARK                            x       y       z     vdW  Elec       q    Type
REMARK                         _______ _______ _______ _____ _____    ______ ____
ROOT
ATOM      1  C   UNL     1       2.473   8.174  18.239  0.00  0.00    +0.000 A 
ATOM      2  N   UNL     1       1.844   7.079  18.603  0.00  0.00    +0.000 NA
ATOM      3  C   UNL     1       2.675   6.029  18.265  0.00  0.00    +0.000 A 
ATOM      4  C   UNL     1       3.841   6.490  17.658  0.00  0.00    +0.000 A 
ATOM      5  N   UNL     1       3.674   7.860  17.663  0.00  0.00    +0.000 N 
ATOM      6  H   UNL     1       4.322   8.534  17.289  0.00  0.00    +0.000 HD
ENDROOT
BRANCH   1  14
ATOM      7 BR   UNL     1      -0.560   9.592  23.278  0.00  0.00    +0.000 Br
ATOM      8  C   UNL     1       0.039  10.320  21.636  0.00  0.00    +0.000 A 
ATOM      9  C   UNL     1      -0.226  11.655  21.341  0.00  0.00    +0.000 A 
ATOM     10  C   UNL     1       0.217  12.222  20.143  0.00  0.00    +0.000 A 
ATOM     11  C   UNL     1       0.934  11.403  19.263  0.00  0.00    +0.000 A 
ATOM     12  N   UNL     1       1.494  11.696  18.038  0.00  0.00    +0.000 N 
ATOM     13  C   UNL     1       2.124  10.592  17.525  0.00  0.00    +0.000 A 
ATOM     14  C   UNL     1       1.953   9.557  18.421  0.00  0.00    +0.000 A 
ATOM     15  C   UNL     1       1.209  10.059  19.529  0.00  0.00    +0.000 A 
ATOM     16  C   UNL     1       0.747   9.507  20.744  0.00  0.00    +0.000 A 
ATOM     17  H   UNL     1       1.450  12.604  17.593  0.00  0.00    +0.000 HD
ENDBRANCH   1  14
BRANCH   3  18
ATOM     18  C   UNL     1       2.287   4.651  18.529  0.00  0.00    +0.000 A 
ATOM     19  C   UNL     1       1.583   4.349  19.703  0.00  0.00    +0.000 A 
ATOM     20  C   UNL     1       1.171   3.041  19.972  0.00  0.00    +0.000 A 
ATOM     21  C   UNL     1       1.460   2.020  19.067  0.00  0.00    +0.000 A 
ATOM     22  C   UNL     1       2.176   2.304  17.906  0.00  0.00    +0.000 A 
ATOM     23  C   UNL     1       2.603   3.609  17.648  0.00  0.00    +0.000 A 
ENDBRANCH   3  18
BRANCH   4  24
ATOM     24  C   UNL     1       5.022   5.850  17.067  0.00  0.00    +0.000 A 
ATOM     25  C   UNL     1       5.173   5.755  15.676  0.00  0.00    +0.000 A 
ATOM     26  C   UNL     1       6.270   5.098  15.113  0.00  0.00    +0.000 A 
ATOM     27  C   UNL     1       7.258   4.563  15.934  0.00  0.00    +0.000 A 
ATOM     28  C   UNL     1       7.144   4.679  17.317  0.00  0.00    +0.000 A 
ATOM     29  C   UNL     1       6.030   5.310  17.880  0.00  0.00    +0.000 A 
ENDBRANCH   4  24
TORSDOF 3
ENDMDL
MODEL 6
REMARK VINA RESULT:      -8.9      3.424      7.840
REMARK  Name = 
REMARK  3 active torsions:
REMARK  status: ('A' for Active; 'I' for Inactive)
REMARK    1  A    between atoms: C_8  and  C_9
REMARK    2  A    between atoms: C_11  and  C_12
REMARK    3  A    between atoms: C_18  and  C_19
REMARK                            x       y       z     vdW  Elec       q    Type
REMARK                         _______ _______ _______ _____ _____    ______ ____
ROOT
ATOM      1  C   UNL     1       2.495   8.237  18.224  0.00  0.00    +0.000 A 
ATOM      2  N   UNL     1       3.666   7.956  17.697  0.00  0.00    +0.000 NA
ATOM      3  C   UNL     1       3.763   6.579  17.691  0.00  0.00    +0.000 A 
ATOM      4  C   UNL     1       2.628   5.996  18.248  0.00  0.00    +0.000 A 
ATOM      5  N   UNL     1       1.845   7.085  18.572  0.00  0.00    +0.000 N 
ATOM      6  H   UNL     1       0.939   7.049  19.011  0.00  0.00    +0.000 HD
ENDROOT
BRANCH   1  14
ATOM      7 BR   UNL     1      -0.553   9.556  23.279  0.00  0.00    +0.000 Br
ATOM      8  C   UNL     1       0.034  10.311  21.646  0.00  0.00    +0.000 A 
ATOM      9  C   UNL     1      -0.251  11.645  21.365  0.00  0.00    +0.000 A 
ATOM     10  C   UNL     1       0.182  12.232  20.173  0.00  0.00    +0.000 A 
ATOM     11  C   UNL     1       0.911  11.433  19.283  0.00  0.00    +0.000 A 
ATOM     12  N   UNL     1       1.465  11.747  18.061  0.00  0.00    +0.000 N 
ATOM     13  C   UNL     1       2.111  10.658  17.536  0.00  0.00    +0.000 A 
ATOM     14  C   UNL     1       1.955   9.611  18.421  0.00  0.00    +0.000 A 
ATOM     15  C   UNL     1       1.205  10.090  19.535  0.00  0.00    +0.000 A 
ATOM     16  C   UNL     1       0.752   9.518  20.744  0.00  0.00    +0.000 A 
ATOM     17  H   UNL     1       1.407  12.659  17.626  0.00  0.00    +0.000 HD
ENDBRANCH   1  14
BRANCH   3  18
ATOM     18  C   UNL     1       4.949   5.914  17.169  0.00  0.00    +0.000 A 
ATOM     19  C   UNL     1       5.931   5.462  18.061  0.00  0.00    +0.000 A 
ATOM     20  C   UNL     1       7.066   4.795  17.594  0.00  0.00    +0.000 A 
ATOM     21  C   UNL     1       7.232   4.575  16.227  0.00  0.00    +0.000 A 
ATOM     22  C   UNL     1       6.272   5.038  15.329  0.00  0.00    +0.000 A 
ATOM     23  C   UNL     1       5.147   5.720  15.796  0.00  0.00    +0.000 A 
ENDBRANCH   3  18
BRANCH   4  24
ATOM     24  C   UNL     1       2.209   4.619  18.539  0.00  0.00    +0.000 A 
ATOM     25  C   UNL     1       1.489   4.313  19.701  0.00  0.00    +0.000 A 
ATOM     26  C   UNL     1       1.137   2.995  20.006  0.00  0.00    +0.000 A 
ATOM     27  C   UNL     1       1.463   1.967  19.127  0.00  0.00    +0.000 A 
ATOM     28  C   UNL     1       2.146   2.256  17.949  0.00  0.00    +0.000 A 
ATOM     29  C   UNL     1       2.525   3.571  17.661  0.00  0.00    +0.000 A 
ENDBRANCH   4  24
TORSDOF 3
ENDMDL
MODEL 7
REMARK VINA RESULT:      -8.9      3.412      7.847
REMARK  Name = 
REMARK  3 active torsions:
REMARK  status: ('A' for Active; 'I' for Inactive)
REMARK    1  A    between atoms: C_8  and  C_9
REMARK    2  A    between atoms: C_11  and  C_12
REMARK    3  A    between atoms: C_18  and  C_19
REMARK                            x       y       z     vdW  Elec       q    Type
REMARK                         _______ _______ _______ _____ _____    ______ ____
ROOT
ATOM      1  C   UNL     1       2.524   8.214  18.233  0.00  0.00    +0.000 A 
ATOM      2  N   UNL     1       3.689   7.926  17.700  0.00  0.00    +0.000 NA
ATOM      3  C   UNL     1       3.782   6.548  17.702  0.00  0.00    +0.000 A 
ATOM      4  C   UNL     1       2.648   5.972  18.271  0.00  0.00    +0.000 A 
ATOM      5  N   UNL     1       1.871   7.066  18.594  0.00  0.00    +0.000 N 
ATOM      6  H   UNL     1       0.969   7.037  19.040  0.00  0.00    +0.000 HD
ENDROOT
BRANCH   1  14
ATOM      7 BR   UNL     1      -0.544   9.557  23.271  0.00  0.00    +0.000 Br
ATOM      8  C   UNL     1       0.056  10.306  21.639  0.00  0.00    +0.000 A 
ATOM      9  C   UNL     1      -0.221  11.641  21.355  0.00  0.00    +0.000 A 
ATOM     10  C   UNL     1       0.221  12.223  20.164  0.00  0.00    +0.000 A 
ATOM     11  C   UNL     1       0.951  11.419  19.280  0.00  0.00    +0.000 A 
ATOM     12  N   UNL     1       1.512  11.729  18.060  0.00  0.00    +0.000 N 
ATOM     13  C   UNL     1       2.155  10.636  17.540  0.00  0.00    +0.000 A 
ATOM     14  C   UNL     1       1.990   9.591  18.426  0.00  0.00    +0.000 A 
ATOM     15  C   UNL     1       1.236  10.076  19.535  0.00  0.00    +0.000 A 
ATOM     16  C   UNL     1       0.775   9.508  20.743  0.00  0.00    +0.000 A 
ATOM     17  H   UNL     1       1.462  12.641  17.623  0.00  0.00    +0.000 HD
ENDBRANCH   1  14
BRANCH   3  18
ATOM     18  C   UNL     1       4.961   5.875  17.176  0.00  0.00    +0.000 A 
ATOM     19  C   UNL     1       5.114   5.742  15.789  0.00  0.00    +0.000 A 
ATOM     20  C   UNL     1       6.248   5.127  15.252  0.00  0.00    +0.000 A 
ATOM     21  C   UNL     1       7.242   4.638  16.099  0.00  0.00    +0.000 A 
ATOM     22  C   UNL     1       7.092   4.747  17.480  0.00  0.00    +0.000 A 
ATOM     23  C   UNL     1       5.949   5.345  18.016  0.00  0.00    +0.000 A 
ENDBRANCH   3  18
BRANCH   4  24
ATOM     24  C   UNL     1       2.227   4.599  18.574  0.00  0.00    +0.000 A 
ATOM     25  C   UNL     1       2.561   3.536  17.724  0.00  0.00    +0.000 A 
ATOM     26  C   UNL     1       2.115   2.238  17.983  0.00  0.00    +0.000 A 
ATOM     27  C   UNL     1       1.364   1.974  19.124  0.00  0.00    +0.000 A 
ATOM     28  C   UNL     1       1.053   3.010  20.000  0.00  0.00    +0.000 A 
ATOM     29  C   UNL     1       1.473   4.315  19.724  0.00  0.00    +0.000 A 
ENDBRANCH   4  24
TORSDOF 3
ENDMDL
MODEL 8
REMARK VINA RESULT:      -8.8      3.433      7.550
REMARK  Name = 
REMARK  3 active torsions:
REMARK  status: ('A' for Active; 'I' for Inactive)
REMARK    1  A    between atoms: C_8  and  C_9
REMARK    2  A    between atoms: C_11  and  C_12
REMARK    3  A    between atoms: C_18  and  C_19
REMARK                            x       y       z     vdW  Elec       q    Type
REMARK                         _______ _______ _______ _____ _____    ______ ____
ROOT
ATOM      1  C   UNL     1       2.416   8.185  18.310  0.00  0.00    +0.000 A 
ATOM      2  N   UNL     1       1.767   7.103  18.677  0.00  0.00    +0.000 NA
ATOM      3  C   UNL     1       2.591   6.038  18.369  0.00  0.00    +0.000 A 
ATOM      4  C   UNL     1       3.773   6.477  17.778  0.00  0.00    +0.000 A 
ATOM      5  N   UNL     1       3.623   7.849  17.761  0.00  0.00    +0.000 N 
ATOM      6  H   UNL     1       4.287   8.509  17.390  0.00  0.00    +0.000 HD
ENDROOT
BRANCH   1  14
ATOM      7 BR   UNL     1      -0.652   9.722  23.292  0.00  0.00    +0.000 Br
ATOM      8  C   UNL     1      -0.028  10.416  21.645  0.00  0.00    +0.000 A 
ATOM      9  C   UNL     1      -0.274  11.748  21.325  0.00  0.00    +0.000 A 
ATOM     10  C   UNL     1       0.186  12.290  20.122  0.00  0.00    +0.000 A 
ATOM     11  C   UNL     1       0.904  11.448  19.263  0.00  0.00    +0.000 A 
ATOM     12  N   UNL     1       1.479  11.714  18.039  0.00  0.00    +0.000 N 
ATOM     13  C   UNL     1       2.102  10.594  17.552  0.00  0.00    +0.000 A 
ATOM     14  C   UNL     1       1.910   9.577  18.463  0.00  0.00    +0.000 A 
ATOM     15  C   UNL     1       1.160  10.106  19.555  0.00  0.00    +0.000 A 
ATOM     16  C   UNL     1       0.680   9.580  20.774  0.00  0.00    +0.000 A 
ATOM     17  H   UNL     1       1.449  12.615  17.578  0.00  0.00    +0.000 HD
ENDBRANCH   1  14
BRANCH   3  18
ATOM     18  C   UNL     1       2.181   4.669  18.645  0.00  0.00    +0.000 A 
ATOM     19  C   UNL     1       2.448   3.669  17.700  0.00  0.00    +0.000 A 
ATOM     20  C   UNL     1       2.092   2.340  17.947  0.00  0.00    +0.000 A 
ATOM     21  C   UNL     1       1.463   1.999  19.144  0.00  0.00    +0.000 A 
ATOM     22  C   UNL     1       1.175   2.988  20.083  0.00  0.00    +0.000 A 
ATOM     23  C   UNL     1       1.514   4.318  19.826  0.00  0.00    +0.000 A 
ENDBRANCH   3  18
BRANCH   4  24
ATOM     24  C   UNL     1       4.957   5.814  17.217  0.00  0.00    +0.000 A 
ATOM     25  C   UNL     1       5.957   5.295  18.050  0.00  0.00    +0.000 A 
ATOM     26  C   UNL     1       7.110   4.712  17.517  0.00  0.00    +0.000 A 
ATOM     27  C   UNL     1       7.259   4.599  16.139  0.00  0.00    +0.000 A 
ATOM     28  C   UNL     1       6.259   5.076  15.295  0.00  0.00    +0.000 A 
ATOM     29  C   UNL     1       5.121   5.687  15.829  0.00  0.00    +0.000 A 
ENDBRANCH   4  24
TORSDOF 3
ENDMDL
MODEL 9
REMARK VINA RESULT:      -8.6      3.324      7.460
REMARK  Name = 
REMARK  3 active torsions:
REMARK  status: ('A' for Active; 'I' for Inactive)
REMARK    1  A    between atoms: C_8  and  C_9
REMARK    2  A    between atoms: C_11  and  C_12
REMARK    3  A    between atoms: C_18  and  C_19
REMARK                            x       y       z     vdW  Elec       q    Type
REMARK                         _______ _______ _______ _____ _____    ______ ____
ROOT
ATOM      1  C   UNL     1       1.399   8.302  19.824  0.00  0.00    +0.000 A 
ATOM      2  N   UNL     1       1.116   7.177  20.442  0.00  0.00    +0.000 NA
ATOM      3  C   UNL     1       1.891   6.204  19.843  0.00  0.00    +0.000 A 
ATOM      4  C   UNL     1       2.660   6.743  18.813  0.00  0.00    +0.000 A 
ATOM      5  N   UNL     1       2.319   8.080  18.836  0.00  0.00    +0.000 N 
ATOM      6  H   UNL     1       2.675   8.789  18.216  0.00  0.00    +0.000 HD
ENDROOT
BRANCH   1  14
ATOM      7 BR   UNL     1      -2.734  10.702  16.116  0.00  0.00    +0.000 Br
ATOM      8  C   UNL     1      -1.783  11.041  17.716  0.00  0.00    +0.000 A 
ATOM      9  C   UNL     1      -2.017  12.222  18.416  0.00  0.00    +0.000 A 
ATOM     10  C   UNL     1      -1.339  12.493  19.607  0.00  0.00    +0.000 A 
ATOM     11  C   UNL     1      -0.428  11.534  20.068  0.00  0.00    +0.000 A 
ATOM     12  N   UNL     1       0.357  11.531  21.201  0.00  0.00    +0.000 N 
ATOM     13  C   UNL     1       1.094  10.377  21.267  0.00  0.00    +0.000 A 
ATOM     14  C   UNL     1       0.801   9.627  20.147  0.00  0.00    +0.000 A 
ATOM     15  C   UNL     1      -0.168  10.344  19.384  0.00  0.00    +0.000 A 
ATOM     16  C   UNL     1      -0.861  10.096  18.179  0.00  0.00    +0.000 A 
ATOM     17  H   UNL     1       0.372  12.275  21.886  0.00  0.00    +0.000 HD
ENDBRANCH   1  14
BRANCH   3  18
ATOM     18  C   UNL     1       1.829   4.819  20.284  0.00  0.00    +0.000 A 
ATOM     19  C   UNL     1       1.045   3.905  19.567  0.00  0.00    +0.000 A 
ATOM     20  C   UNL     1       0.986   2.562  19.949  0.00  0.00    +0.000 A 
ATOM     21  C   UNL     1       1.712   2.120  21.054  0.00  0.00    +0.000 A 
ATOM     22  C   UNL     1       2.479   3.023  21.787  0.00  0.00    +0.000 A 
ATOM     23  C   UNL     1       2.522   4.369  21.415  0.00  0.00    +0.000 A 
ENDBRANCH   3  18
BRANCH   4  24
ATOM     24  C   UNL     1       3.601   6.194  17.830  0.00  0.00    +0.000 A 
ATOM     25  C   UNL     1       4.405   7.036  17.050  0.00  0.00    +0.000 A 
ATOM     26  C   UNL     1       5.262   6.517  16.076  0.00  0.00    +0.000 A 
ATOM     27  C   UNL     1       5.362   5.141  15.899  0.00  0.00    +0.000 A 
ATOM     28  C   UNL     1       4.599   4.286  16.690  0.00  0.00    +0.000 A 
ATOM     29  C   UNL     1       3.718   4.808  17.642  0.00  0.00    +0.000 A 
ENDBRANCH   4  24
TORSDOF 3
ENDMDL
