MODEL 1
REMARK VINA RESULT:      -8.1      0.000      0.000
REMARK  Name = 
REMARK  10 active torsions:
REMARK  status: ('A' for Active; 'I' for Inactive)
REMARK    1  A    between atoms: C_1  and  O_2
REMARK    2  A    between atoms: O_2  and  C_3
REMARK    3  A    between atoms: C_5  and  C_6
REMARK    4  A    between atoms: C_9  and  O_10
REMARK    5  A    between atoms: O_10  and  C_11
REMARK    6  A    between atoms: C_17  and  N_18
REMARK    7  A    between atoms: N_21  and  C_22
REMARK    8  A    between atoms: N_21  and  C_23
REMARK    9  A    between atoms: C_23  and  C_24
REMARK   10  A    between atoms: C_26  and  O_27
REMARK                            x       y       z     vdW  Elec       q    Type
REMARK                         _______ _______ _______ _____ _____    ______ ____
ROOT
ATOM      1  C   UNL     1       4.070   4.652  19.424  0.00  0.00    +0.000 A 
ATOM      2  C   UNL     1       4.434   3.299  19.378  0.00  0.00    +0.000 A 
ATOM      3  C   UNL     1       3.530   2.319  19.782  0.00  0.00    +0.000 A 
ATOM      4  C   UNL     1       2.296   2.694  20.286  0.00  0.00    +0.000 A 
ATOM      5  F   UNL     1       1.430   1.752  20.673  0.00  0.00    +0.000 F 
ATOM      6  C   UNL     1       1.954   4.039  20.424  0.00  0.00    +0.000 A 
ATOM      7  C   UNL     1       2.839   5.040  20.007  0.00  0.00    +0.000 A 
ENDROOT
BRANCH   7   8
ATOM      8  N   UNL     1       2.551   6.416  20.208  0.00  0.00    +0.000 N 
ATOM      9  C   UNL     1       2.005   7.288  19.285  0.00  0.00    +0.000 C 
ATOM     10  O   UNL     1       1.903   7.045  18.083  0.00  0.00    +0.000 OA
ATOM     11  N   UNL     1       1.625   8.531  19.796  0.00  0.00    +0.000 N 
ATOM     12  C   UNL     1       1.545   8.852  21.216  0.00  0.00    +0.000 C 
ATOM     13  H   UNL     1       2.991   6.829  21.017  0.00  0.00    +0.000 HD
BRANCH  11  14
ATOM     14  C   UNL     1       1.430   9.643  18.853  0.00  0.00    +0.000 C 
BRANCH  14  15
ATOM     15  C   UNL     1       0.588  10.694  19.578  0.00  0.00    +0.000 C 
ATOM     16  C   UNL     1       0.324  12.026  18.826  0.00  0.00    +0.000 C 
ATOM     17  C   UNL     1      -1.083  11.514  18.471  0.00  0.00    +0.000 C 
ATOM     18  C   UNL     1      -0.946  10.487  19.612  0.00  0.00    +0.000 C 
BRANCH  17  19
ATOM     19  O   UNL     1      -1.274  10.971  17.150  0.00  0.00    +0.000 OA
ATOM     20  H   UNL     1      -1.292  10.001  17.249  0.00  0.00    +0.000 HD
ENDBRANCH  17  19
ENDBRANCH  14  15
ENDBRANCH  11  14
ENDBRANCH   7   8
BRANCH   1  21
ATOM     21  O   UNL     1       4.908   5.647  18.952  0.00  0.00    +0.000 OA
BRANCH  21  28
ATOM     22  C   UNL     1       6.861   4.974  17.545  0.00  0.00    +0.000 A 
ATOM     23  C   UNL     1       7.328   4.765  16.235  0.00  0.00    +0.000 A 
ATOM     24  C   UNL     1       6.550   5.097  15.118  0.00  0.00    +0.000 A 
ATOM     25  C   UNL     1       7.046   4.769  13.737  0.00  0.00    +0.000 C 
ATOM     26  C   UNL     1       5.286   5.649  15.321  0.00  0.00    +0.000 A 
ATOM     27  C   UNL     1       4.801   5.846  16.620  0.00  0.00    +0.000 A 
ATOM     28  C   UNL     1       5.573   5.505  17.742  0.00  0.00    +0.000 A 
BRANCH  22  30
ATOM     29  C   UNL     1       8.089   5.692  19.436  0.00  0.00    +0.000 C 
ATOM     30  O   UNL     1       7.614   4.610  18.632  0.00  0.00    +0.000 OA
ENDBRANCH  22  30
ENDBRANCH  21  28
ENDBRANCH   1  21
TORSDOF 7
ENDMDL
MODEL 2
REMARK VINA RESULT:      -8.1      1.162      1.400
REMARK  Name = 
REMARK  10 active torsions:
REMARK  status: ('A' for Active; 'I' for Inactive)
REMARK    1  A    between atoms: C_1  and  O_2
REMARK    2  A    between atoms: O_2  and  C_3
REMARK    3  A    between atoms: C_5  and  C_6
REMARK    4  A    between atoms: C_9  and  O_10
REMARK    5  A    between atoms: O_10  and  C_11
REMARK    6  A    between atoms: C_17  and  N_18
REMARK    7  A    between atoms: N_21  and  C_22
REMARK    8  A    between atoms: N_21  and  C_23
REMARK    9  A    between atoms: C_23  and  C_24
REMARK   10  A    between atoms: C_26  and  O_27
REMARK                            x       y       z     vdW  Elec       q    Type
REMARK                         _______ _______ _______ _____ _____    ______ ____
ROOT
ATOM      1  C   UNL     1       3.899   4.953  19.354  0.00  0.00    +0.000 A 
ATOM      2  C   UNL     1       4.299   3.726  19.903  0.00  0.00    +0.000 A 
ATOM      3  C   UNL     1       3.341   2.806  20.325  0.00  0.00    +0.000 A 
ATOM      4  C   UNL     1       1.998   3.137  20.256  0.00  0.00    +0.000 A 
ATOM      5  F   UNL     1       1.081   2.252  20.661  0.00  0.00    +0.000 F 
ATOM      6  C   UNL     1       1.589   4.389  19.798  0.00  0.00    +0.000 A 
ATOM      7  C   UNL     1       2.532   5.322  19.352  0.00  0.00    +0.000 A 
ENDROOT
BRANCH   7   8
ATOM      8  N   UNL     1       2.150   6.631  18.955  0.00  0.00    +0.000 N 
ATOM      9  C   UNL     1       1.769   7.667  19.787  0.00  0.00    +0.000 C 
ATOM     10  O   UNL     1       1.489   7.529  20.978  0.00  0.00    +0.000 OA
ATOM     11  N   UNL     1       1.648   8.912  19.166  0.00  0.00    +0.000 N 
ATOM     12  C   UNL     1       2.116   9.213  17.819  0.00  0.00    +0.000 C 
ATOM     13  H   UNL     1       1.928   6.731  17.976  0.00  0.00    +0.000 HD
BRANCH  11  14
ATOM     14  C   UNL     1       0.869   9.958  19.846  0.00  0.00    +0.000 C 
BRANCH  14  15
ATOM     15  C   UNL     1       0.107  10.718  18.760  0.00  0.00    +0.000 C 
ATOM     16  C   UNL     1      -1.437  10.564  18.745  0.00  0.00    +0.000 C 
ATOM     17  C   UNL     1      -1.553  11.938  19.430  0.00  0.00    +0.000 C 
ATOM     18  C   UNL     1      -0.114  12.237  18.967  0.00  0.00    +0.000 C 
BRANCH  17  19
ATOM     19  O   UNL     1      -1.776  11.949  20.853  0.00  0.00    +0.000 OA
ATOM     20  H   UNL     1      -1.648  11.032  21.161  0.00  0.00    +0.000 HD
ENDBRANCH  17  19
ENDBRANCH  14  15
ENDBRANCH  11  14
ENDBRANCH   7   8
BRANCH   1  21
ATOM     21  O   UNL     1       4.817   5.855  18.846  0.00  0.00    +0.000 OA
BRANCH  21  28
ATOM     22  C   UNL     1       6.741   4.953  17.532  0.00  0.00    +0.000 A 
ATOM     23  C   UNL     1       7.220   4.634  16.249  0.00  0.00    +0.000 A 
ATOM     24  C   UNL     1       6.497   4.962  15.094  0.00  0.00    +0.000 A 
ATOM     25  C   UNL     1       6.996   4.519  13.747  0.00  0.00    +0.000 C 
ATOM     26  C   UNL     1       5.277   5.622  15.232  0.00  0.00    +0.000 A 
ATOM     27  C   UNL     1       4.780   5.930  16.504  0.00  0.00    +0.000 A 
ATOM     28  C   UNL     1       5.496   5.593  17.665  0.00  0.00    +0.000 A 
BRANCH  22  30
ATOM     29  C   UNL     1       8.030   5.673  19.381  0.00  0.00    +0.000 C 
ATOM     30  O   UNL     1       7.438   4.592  18.658  0.00  0.00    +0.000 OA
ENDBRANCH  22  30
ENDBRANCH  21  28
ENDBRANCH   1  21
TORSDOF 7
ENDMDL
MODEL 3
REMARK VINA RESULT:      -8.1      1.473      1.690
REMARK  Name = 
REMARK  10 active torsions:
REMARK  status: ('A' for Active; 'I' for Inactive)
REMARK    1  A    between atoms: C_1  and  O_2
REMARK    2  A    between atoms: O_2  and  C_3
REMARK    3  A    between atoms: C_5  and  C_6
REMARK    4  A    between atoms: C_9  and  O_10
REMARK    5  A    between atoms: O_10  and  C_11
REMARK    6  A    between atoms: C_17  and  N_18
REMARK    7  A    between atoms: N_21  and  C_22
REMARK    8  A    between atoms: N_21  and  C_23
REMARK    9  A    between atoms: C_23  and  C_24
REMARK   10  A    between atoms: C_26  and  O_27
REMARK                            x       y       z     vdW  Elec       q    Type
REMARK                         _______ _______ _______ _____ _____    ______ ____
ROOT
ATOM      1  C   UNL     1       3.677   4.056  18.633  0.00  0.00    +0.000 A 
ATOM      2  C   UNL     1       3.877   2.687  18.857  0.00  0.00    +0.000 A 
ATOM      3  C   UNL     1       2.792   1.812  18.844  0.00  0.00    +0.000 A 
ATOM      4  C   UNL     1       1.512   2.314  18.672  0.00  0.00    +0.000 A 
ATOM      5  F   UNL     1       0.473   1.473  18.661  0.00  0.00    +0.000 F 
ATOM      6  C   UNL     1       1.289   3.684  18.540  0.00  0.00    +0.000 A 
ATOM      7  C   UNL     1       2.365   4.578  18.531  0.00  0.00    +0.000 A 
ENDROOT
BRANCH   7   8
ATOM      8  N   UNL     1       2.161   5.983  18.478  0.00  0.00    +0.000 N 
ATOM      9  C   UNL     1       1.939   6.826  19.551  0.00  0.00    +0.000 C 
ATOM     10  O   UNL     1       1.660   6.440  20.686  0.00  0.00    +0.000 OA
ATOM     11  N   UNL     1       1.981   8.190  19.252  0.00  0.00    +0.000 N 
ATOM     12  C   UNL     1       2.467   8.746  17.996  0.00  0.00    +0.000 C 
ATOM     13  H   UNL     1       1.940   6.347  17.563  0.00  0.00    +0.000 HD
BRANCH  11  14
ATOM     14  C   UNL     1       1.364   9.131  20.199  0.00  0.00    +0.000 C 
BRANCH  14  15
ATOM     15  C   UNL     1       0.730  10.245  19.365  0.00  0.00    +0.000 C 
ATOM     16  C   UNL     1      -0.820  10.305  19.334  0.00  0.00    +0.000 C 
ATOM     17  C   UNL     1      -0.769  11.452  20.360  0.00  0.00    +0.000 C 
ATOM     18  C   UNL     1       0.706  11.670  19.970  0.00  0.00    +0.000 C 
BRANCH  17  19
ATOM     19  O   UNL     1      -1.017  11.115  21.739  0.00  0.00    +0.000 OA
ATOM     20  H   UNL     1      -1.054  10.141  21.784  0.00  0.00    +0.000 HD
ENDBRANCH  17  19
ENDBRANCH  14  15
ENDBRANCH  11  14
ENDBRANCH   7   8
BRANCH   1  21
ATOM     21  O   UNL     1       4.737   4.942  18.553  0.00  0.00    +0.000 OA
BRANCH  21  28
ATOM     22  C   UNL     1       6.909   4.810  17.323  0.00  0.00    +0.000 A 
ATOM     23  C   UNL     1       7.525   4.778  16.060  0.00  0.00    +0.000 A 
ATOM     24  C   UNL     1       6.791   4.971  14.881  0.00  0.00    +0.000 A 
ATOM     25  C   UNL     1       7.469   4.833  13.547  0.00  0.00    +0.000 C 
ATOM     26  C   UNL     1       5.420   5.203  14.976  0.00  0.00    +0.000 A 
ATOM     27  C   UNL     1       4.791   5.220  16.227  0.00  0.00    +0.000 A 
ATOM     28  C   UNL     1       5.520   5.016  17.410  0.00  0.00    +0.000 A 
BRANCH  22  30
ATOM     29  C   UNL     1       7.966   5.748  19.221  0.00  0.00    +0.000 C 
ATOM     30  O   UNL     1       7.629   4.581  18.469  0.00  0.00    +0.000 OA
ENDBRANCH  22  30
ENDBRANCH  21  28
ENDBRANCH   1  21
TORSDOF 7
ENDMDL
MODEL 4
REMARK VINA RESULT:      -8.0      1.951      2.248
REMARK  Name = 
REMARK  10 active torsions:
REMARK  status: ('A' for Active; 'I' for Inactive)
REMARK    1  A    between atoms: C_1  and  O_2
REMARK    2  A    between atoms: O_2  and  C_3
REMARK    3  A    between atoms: C_5  and  C_6
REMARK    4  A    between atoms: C_9  and  O_10
REMARK    5  A    between atoms: O_10  and  C_11
REMARK    6  A    between atoms: C_17  and  N_18
REMARK    7  A    between atoms: N_21  and  C_22
REMARK    8  A    between atoms: N_21  and  C_23
REMARK    9  A    between atoms: C_23  and  C_24
REMARK   10  A    between atoms: C_26  and  O_27
REMARK                            x       y       z     vdW  Elec       q    Type
REMARK                         _______ _______ _______ _____ _____    ______ ____
ROOT
ATOM      1  C   UNL     1       3.654   4.248  18.337  0.00  0.00    +0.000 A 
ATOM      2  C   UNL     1       3.938   2.879  18.440  0.00  0.00    +0.000 A 
ATOM      3  C   UNL     1       2.899   1.951  18.473  0.00  0.00    +0.000 A 
ATOM      4  C   UNL     1       1.587   2.395  18.466  0.00  0.00    +0.000 A 
ATOM      5  F   UNL     1       0.591   1.503  18.499  0.00  0.00    +0.000 F 
ATOM      6  C   UNL     1       1.288   3.757  18.457  0.00  0.00    +0.000 A 
ATOM      7  C   UNL     1       2.315   4.706  18.404  0.00  0.00    +0.000 A 
ENDROOT
BRANCH   7   8
ATOM      8  N   UNL     1       2.043   6.098  18.473  0.00  0.00    +0.000 N 
ATOM      9  C   UNL     1       2.156   6.907  19.588  0.00  0.00    +0.000 C 
ATOM     10  O   UNL     1       2.290   6.484  20.736  0.00  0.00    +0.000 OA
ATOM     11  N   UNL     1       2.034   8.277  19.342  0.00  0.00    +0.000 N 
ATOM     12  C   UNL     1       2.046   8.883  18.017  0.00  0.00    +0.000 C 
ATOM     13  H   UNL     1       1.513   6.466  17.697  0.00  0.00    +0.000 HD
BRANCH  11  14
ATOM     14  C   UNL     1       1.729   9.164  20.474  0.00  0.00    +0.000 C 
BRANCH  14  15
ATOM     15  C   UNL     1       0.205   9.278  20.548  0.00  0.00    +0.000 C 
ATOM     16  C   UNL     1      -0.505   8.485  21.677  0.00  0.00    +0.000 C 
ATOM     17  C   UNL     1      -0.625   9.793  22.482  0.00  0.00    +0.000 C 
ATOM     18  C   UNL     1      -0.389  10.565  21.168  0.00  0.00    +0.000 C 
BRANCH  17  19
ATOM     19  O   UNL     1       0.341  10.014  23.528  0.00  0.00    +0.000 OA
ATOM     20  H   UNL     1       0.023   9.521  24.307  0.00  0.00    +0.000 HD
ENDBRANCH  17  19
ENDBRANCH  14  15
ENDBRANCH  11  14
ENDBRANCH   7   8
BRANCH   1  21
ATOM     21  O   UNL     1       4.658   5.192  18.215  0.00  0.00    +0.000 OA
BRANCH  21  28
ATOM     22  C   UNL     1       6.866   4.856  17.092  0.00  0.00    +0.000 A 
ATOM     23  C   UNL     1       7.539   4.773  15.860  0.00  0.00    +0.000 A 
ATOM     24  C   UNL     1       6.888   5.049  14.650  0.00  0.00    +0.000 A 
ATOM     25  C   UNL     1       7.616   4.857  13.349  0.00  0.00    +0.000 C 
ATOM     26  C   UNL     1       5.544   5.416  14.680  0.00  0.00    +0.000 A 
ATOM     27  C   UNL     1       4.857   5.484  15.898  0.00  0.00    +0.000 A 
ATOM     28  C   UNL     1       5.501   5.198  17.113  0.00  0.00    +0.000 A 
BRANCH  22  30
ATOM     29  C   UNL     1       7.960   5.665  19.028  0.00  0.00    +0.000 C 
ATOM     30  O   UNL     1       7.500   4.545  18.268  0.00  0.00    +0.000 OA
ENDBRANCH  22  30
ENDBRANCH  21  28
ENDBRANCH   1  21
TORSDOF 7
ENDMDL
MODEL 5
REMARK VINA RESULT:      -7.9      1.106      1.297
REMARK  Name = 
REMARK  10 active torsions:
REMARK  status: ('A' for Active; 'I' for Inactive)
REMARK    1  A    between atoms: C_1  and  O_2
REMARK    2  A    between atoms: O_2  and  C_3
REMARK    3  A    between atoms: C_5  and  C_6
REMARK    4  A    between atoms: C_9  and  O_10
REMARK    5  A    between atoms: O_10  and  C_11
REMARK    6  A    between atoms: C_17  and  N_18
REMARK    7  A    between atoms: N_21  and  C_22
REMARK    8  A    between atoms: N_21  and  C_23
REMARK    9  A    between atoms: C_23  and  C_24
REMARK   10  A    between atoms: C_26  and  O_27
REMARK                            x       y       z     vdW  Elec       q    Type
REMARK                         _______ _______ _______ _____ _____    ______ ____
ROOT
ATOM      1  C   UNL     1       3.602   5.060  19.632  0.00  0.00    +0.000 A 
ATOM      2  C   UNL     1       3.884   3.687  19.653  0.00  0.00    +0.000 A 
ATOM      3  C   UNL     1       2.900   2.778  20.037  0.00  0.00    +0.000 A 
ATOM      4  C   UNL     1       1.666   3.245  20.456  0.00  0.00    +0.000 A 
ATOM      5  F   UNL     1       0.724   2.371  20.825  0.00  0.00    +0.000 F 
ATOM      6  C   UNL     1       1.401   4.612  20.530  0.00  0.00    +0.000 A 
ATOM      7  C   UNL     1       2.367   5.542  20.131  0.00  0.00    +0.000 A 
ENDROOT
BRANCH   7   8
ATOM      8  N   UNL     1       2.154   6.940  20.269  0.00  0.00    +0.000 N 
ATOM      9  C   UNL     1       1.816   7.826  19.264  0.00  0.00    +0.000 C 
ATOM     10  O   UNL     1       1.875   7.563  18.063  0.00  0.00    +0.000 OA
ATOM     11  N   UNL     1       1.456   9.104  19.697  0.00  0.00    +0.000 N 
ATOM     12  C   UNL     1       1.190   9.463  21.085  0.00  0.00    +0.000 C 
ATOM     13  H   UNL     1       2.499   7.339  21.130  0.00  0.00    +0.000 HD
BRANCH  11  14
ATOM     14  C   UNL     1       1.485  10.205  18.722  0.00  0.00    +0.000 C 
BRANCH  14  15
ATOM     15  C   UNL     1       0.940  11.443  19.437  0.00  0.00    +0.000 C 
ATOM     16  C   UNL     1       1.956  12.568  19.768  0.00  0.00    +0.000 C 
ATOM     17  C   UNL     1       1.437  13.356  18.552  0.00  0.00    +0.000 C 
ATOM     18  C   UNL     1       0.169  12.481  18.587  0.00  0.00    +0.000 C 
BRANCH  17  19
ATOM     19  O   UNL     1       2.218  13.293  17.342  0.00  0.00    +0.000 OA
ATOM     20  H   UNL     1       3.057  12.855  17.577  0.00  0.00    +0.000 HD
ENDBRANCH  17  19
ENDBRANCH  14  15
ENDBRANCH  11  14
ENDBRANCH   7   8
BRANCH   1  21
ATOM     21  O   UNL     1       4.524   5.985  19.176  0.00  0.00    +0.000 OA
BRANCH  21  28
ATOM     22  C   UNL     1       6.521   5.115  17.950  0.00  0.00    +0.000 A 
ATOM     23  C   UNL     1       7.069   4.819  16.689  0.00  0.00    +0.000 A 
ATOM     24  C   UNL     1       6.405   5.162  15.504  0.00  0.00    +0.000 A 
ATOM     25  C   UNL     1       6.977   4.744  14.178  0.00  0.00    +0.000 C 
ATOM     26  C   UNL     1       5.175   5.814  15.588  0.00  0.00    +0.000 A 
ATOM     27  C   UNL     1       4.610   6.098  16.837  0.00  0.00    +0.000 A 
ATOM     28  C   UNL     1       5.266   5.746  18.028  0.00  0.00    +0.000 A 
BRANCH  22  30
ATOM     29  C   UNL     1       8.041   5.718  19.660  0.00  0.00    +0.000 C 
ATOM     30  O   UNL     1       7.159   4.740  19.106  0.00  0.00    +0.000 OA
ENDBRANCH  22  30
ENDBRANCH  21  28
ENDBRANCH   1  21
TORSDOF 7
ENDMDL
MODEL 6
REMARK VINA RESULT:      -7.7      1.329      1.522
REMARK  Name = 
REMARK  10 active torsions:
REMARK  status: ('A' for Active; 'I' for Inactive)
REMARK    1  A    between atoms: C_1  and  O_2
REMARK    2  A    between atoms: O_2  and  C_3
REMARK    3  A    between atoms: C_5  and  C_6
REMARK    4  A    between atoms: C_9  and  O_10
REMARK    5  A    between atoms: O_10  and  C_11
REMARK    6  A    between atoms: C_17  and  N_18
REMARK    7  A    between atoms: N_21  and  C_22
REMARK    8  A    between atoms: N_21  and  C_23
REMARK    9  A    between atoms: C_23  and  C_24
REMARK   10  A    between atoms: C_26  and  O_27
REMARK                            x       y       z     vdW  Elec       q    Type
REMARK                         _______ _______ _______ _____ _____    ______ ____
ROOT
ATOM      1  C   UNL     1       3.785   5.140  19.435  0.00  0.00    +0.000 A 
ATOM      2  C   UNL     1       4.152   3.933  20.046  0.00  0.00    +0.000 A 
ATOM      3  C   UNL     1       3.176   3.101  20.591  0.00  0.00    +0.000 A 
ATOM      4  C   UNL     1       1.851   3.505  20.580  0.00  0.00    +0.000 A 
ATOM      5  F   UNL     1       0.916   2.705  21.104  0.00  0.00    +0.000 F 
ATOM      6  C   UNL     1       1.481   4.745  20.059  0.00  0.00    +0.000 A 
ATOM      7  C   UNL     1       2.442   5.587  19.490  0.00  0.00    +0.000 A 
ENDROOT
BRANCH   7   8
ATOM      8  N   UNL     1       2.107   6.887  19.024  0.00  0.00    +0.000 N 
ATOM      9  C   UNL     1       1.797   7.987  19.800  0.00  0.00    +0.000 C 
ATOM     10  O   UNL     1       1.547   7.934  21.004  0.00  0.00    +0.000 OA
ATOM     11  N   UNL     1       1.712   9.197  19.107  0.00  0.00    +0.000 N 
ATOM     12  C   UNL     1       2.153   9.394  17.731  0.00  0.00    +0.000 C 
ATOM     13  H   UNL     1       1.860   6.937  18.046  0.00  0.00    +0.000 HD
BRANCH  11  14
ATOM     14  C   UNL     1       1.002  10.317  19.742  0.00  0.00    +0.000 C 
BRANCH  14  15
ATOM     15  C   UNL     1      -0.490  10.099  19.481  0.00  0.00    +0.000 C 
ATOM     16  C   UNL     1      -1.439  11.287  19.787  0.00  0.00    +0.000 C 
ATOM     17  C   UNL     1      -1.483  11.605  18.281  0.00  0.00    +0.000 C 
ATOM     18  C   UNL     1      -0.980  10.172  18.014  0.00  0.00    +0.000 C 
BRANCH  17  19
ATOM     19  O   UNL     1      -0.638  12.672  17.807  0.00  0.00    +0.000 OA
ATOM     20  H   UNL     1      -1.155  13.158  17.138  0.00  0.00    +0.000 HD
ENDBRANCH  17  19
ENDBRANCH  14  15
ENDBRANCH  11  14
ENDBRANCH   7   8
BRANCH   1  21
ATOM     21  O   UNL     1       4.715   5.950  18.808  0.00  0.00    +0.000 OA
BRANCH  21  28
ATOM     22  C   UNL     1       6.562   5.807  17.131  0.00  0.00    +0.000 A 
ATOM     23  C   UNL     1       6.969   5.265  15.898  0.00  0.00    +0.000 A 
ATOM     24  C   UNL     1       6.080   4.550  15.083  0.00  0.00    +0.000 A 
ATOM     25  C   UNL     1       6.578   3.906  13.820  0.00  0.00    +0.000 C 
ATOM     26  C   UNL     1       4.765   4.381  15.513  0.00  0.00    +0.000 A 
ATOM     27  C   UNL     1       4.352   4.899  16.746  0.00  0.00    +0.000 A 
ATOM     28  C   UNL     1       5.241   5.607  17.571  0.00  0.00    +0.000 A 
BRANCH  22  30
ATOM     29  C   UNL     1       7.706   7.829  17.578  0.00  0.00    +0.000 C 
ATOM     30  O   UNL     1       7.449   6.471  17.940  0.00  0.00    +0.000 OA
ENDBRANCH  22  30
ENDBRANCH  21  28
ENDBRANCH   1  21
TORSDOF 7
ENDMDL
MODEL 7
REMARK VINA RESULT:      -7.6      0.942      1.104
REMARK  Name = 
REMARK  10 active torsions:
REMARK  status: ('A' for Active; 'I' for Inactive)
REMARK    1  A    between atoms: C_1  and  O_2
REMARK    2  A    between atoms: O_2  and  C_3
REMARK    3  A    between atoms: C_5  and  C_6
REMARK    4  A    between atoms: C_9  and  O_10
REMARK    5  A    between atoms: O_10  and  C_11
REMARK    6  A    between atoms: C_17  and  N_18
REMARK    7  A    between atoms: N_21  and  C_22
REMARK    8  A    between atoms: N_21  and  C_23
REMARK    9  A    between atoms: C_23  and  C_24
REMARK   10  A    between atoms: C_26  and  O_27
REMARK                            x       y       z     vdW  Elec       q    Type
REMARK                         _______ _______ _______ _____ _____    ______ ____
ROOT
ATOM      1  C   UNL     1       3.679   4.958  19.552  0.00  0.00    +0.000 A 
ATOM      2  C   UNL     1       3.943   3.582  19.515  0.00  0.00    +0.000 A 
ATOM      3  C   UNL     1       2.954   2.672  19.886  0.00  0.00    +0.000 A 
ATOM      4  C   UNL     1       1.735   3.139  20.349  0.00  0.00    +0.000 A 
ATOM      5  F   UNL     1       0.788   2.265  20.705  0.00  0.00    +0.000 F 
ATOM      6  C   UNL     1       1.491   4.506  20.479  0.00  0.00    +0.000 A 
ATOM      7  C   UNL     1       2.462   5.438  20.094  0.00  0.00    +0.000 A 
ENDROOT
BRANCH   7   8
ATOM      8  N   UNL     1       2.271   6.832  20.289  0.00  0.00    +0.000 N 
ATOM      9  C   UNL     1       1.850   7.746  19.342  0.00  0.00    +0.000 C 
ATOM     10  O   UNL     1       1.799   7.516  18.135  0.00  0.00    +0.000 OA
ATOM     11  N   UNL     1       1.540   9.014  19.840  0.00  0.00    +0.000 N 
ATOM     12  C   UNL     1       1.402   9.336  21.255  0.00  0.00    +0.000 C 
ATOM     13  H   UNL     1       2.695   7.206  21.124  0.00  0.00    +0.000 HD
BRANCH  11  14
ATOM     14  C   UNL     1       1.487  10.141  18.896  0.00  0.00    +0.000 C 
BRANCH  14  15
ATOM     15  C   UNL     1       0.024  10.301  18.480  0.00  0.00    +0.000 C 
ATOM     16  C   UNL     1      -1.048  10.098  19.584  0.00  0.00    +0.000 C 
ATOM     17  C   UNL     1      -1.179  11.628  19.698  0.00  0.00    +0.000 C 
ATOM     18  C   UNL     1      -0.520  11.740  18.309  0.00  0.00    +0.000 C 
BRANCH  17  19
ATOM     19  O   UNL     1      -0.483  12.271  20.783  0.00  0.00    +0.000 OA
ATOM     20  H   UNL     1      -0.688  11.757  21.587  0.00  0.00    +0.000 HD
ENDBRANCH  17  19
ENDBRANCH  14  15
ENDBRANCH  11  14
ENDBRANCH   7   8
BRANCH   1  21
ATOM     21  O   UNL     1       4.605   5.887  19.111  0.00  0.00    +0.000 OA
BRANCH  21  28
ATOM     22  C   UNL     1       6.588   5.051  17.840  0.00  0.00    +0.000 A 
ATOM     23  C   UNL     1       7.118   4.782  16.565  0.00  0.00    +0.000 A 
ATOM     24  C   UNL     1       6.435   5.144  15.396  0.00  0.00    +0.000 A 
ATOM     25  C   UNL     1       6.990   4.754  14.055  0.00  0.00    +0.000 C 
ATOM     26  C   UNL     1       5.204   5.787  15.511  0.00  0.00    +0.000 A 
ATOM     27  C   UNL     1       4.656   6.044  16.773  0.00  0.00    +0.000 A 
ATOM     28  C   UNL     1       5.331   5.674  17.947  0.00  0.00    +0.000 A 
BRANCH  22  30
ATOM     29  C   UNL     1       8.003   5.679  19.629  0.00  0.00    +0.000 C 
ATOM     30  O   UNL     1       7.245   4.657  18.978  0.00  0.00    +0.000 OA
ENDBRANCH  22  30
ENDBRANCH  21  28
ENDBRANCH   1  21
TORSDOF 7
ENDMDL
MODEL 8
REMARK VINA RESULT:      -7.5      2.533      4.781
REMARK  Name = 
REMARK  10 active torsions:
REMARK  status: ('A' for Active; 'I' for Inactive)
REMARK    1  A    between atoms: C_1  and  O_2
REMARK    2  A    between atoms: O_2  and  C_3
REMARK    3  A    between atoms: C_5  and  C_6
REMARK    4  A    between atoms: C_9  and  O_10
REMARK    5  A    between atoms: O_10  and  C_11
REMARK    6  A    between atoms: C_17  and  N_18
REMARK    7  A    between atoms: N_21  and  C_22
REMARK    8  A    between atoms: N_21  and  C_23
REMARK    9  A    between atoms: C_23  and  C_24
REMARK   10  A    between atoms: C_26  and  O_27
REMARK                            x       y       z     vdW  Elec       q    Type
REMARK                         _______ _______ _______ _____ _____    ______ ____
ROOT
ATOM      1  C   UNL     1       3.692   5.333  17.317  0.00  0.00    +0.000 A 
ATOM      2  C   UNL     1       4.510   4.562  16.479  0.00  0.00    +0.000 A 
ATOM      3  C   UNL     1       5.858   4.883  16.331  0.00  0.00    +0.000 A 
ATOM      4  C   UNL     1       6.367   6.003  16.967  0.00  0.00    +0.000 A 
ATOM      5  F   UNL     1       7.661   6.310  16.824  0.00  0.00    +0.000 F 
ATOM      6  C   UNL     1       5.545   6.833  17.730  0.00  0.00    +0.000 A 
ATOM      7  C   UNL     1       4.193   6.519  17.907  0.00  0.00    +0.000 A 
ENDROOT
BRANCH   7   8
ATOM      8  N   UNL     1       3.316   7.387  18.612  0.00  0.00    +0.000 N 
ATOM      9  C   UNL     1       2.505   8.363  18.065  0.00  0.00    +0.000 C 
ATOM     10  O   UNL     1       2.600   8.770  16.907  0.00  0.00    +0.000 OA
ATOM     11  N   UNL     1       1.585   8.933  18.948  0.00  0.00    +0.000 N 
ATOM     12  C   UNL     1       1.278   8.410  20.273  0.00  0.00    +0.000 C 
ATOM     13  H   UNL     1       3.476   7.435  19.607  0.00  0.00    +0.000 HD
BRANCH  11  14
ATOM     14  C   UNL     1       0.984  10.226  18.591  0.00  0.00    +0.000 C 
BRANCH  14  15
ATOM     15  C   UNL     1      -0.497  10.143  18.964  0.00  0.00    +0.000 C 
ATOM     16  C   UNL     1      -1.139  11.414  19.580  0.00  0.00    +0.000 C 
ATOM     17  C   UNL     1      -1.766  11.729  18.210  0.00  0.00    +0.000 C 
ATOM     18  C   UNL     1      -1.533  10.256  17.819  0.00  0.00    +0.000 C 
BRANCH  17  19
ATOM     19  O   UNL     1      -1.103  12.713  17.392  0.00  0.00    +0.000 OA
ATOM     20  H   UNL     1      -1.506  13.574  17.613  0.00  0.00    +0.000 HD
ENDBRANCH  17  19
ENDBRANCH  14  15
ENDBRANCH  11  14
ENDBRANCH   7   8
BRANCH   1  21
ATOM     21  O   UNL     1       2.372   4.996  17.555  0.00  0.00    +0.000 OA
BRANCH  21  28
ATOM     22  C   UNL     1       2.216   2.806  18.750  0.00  0.00    +0.000 A 
ATOM     23  C   UNL     1       1.940   2.171  19.974  0.00  0.00    +0.000 A 
ATOM     24  C   UNL     1       1.453   2.885  21.077  0.00  0.00    +0.000 A 
ATOM     25  C   UNL     1       1.262   2.187  22.394  0.00  0.00    +0.000 C 
ATOM     26  C   UNL     1       1.238   4.256  20.946  0.00  0.00    +0.000 A 
ATOM     27  C   UNL     1       1.526   4.904  19.739  0.00  0.00    +0.000 A 
ATOM     28  C   UNL     1       2.024   4.195  18.634  0.00  0.00    +0.000 A 
BRANCH  22  30
ATOM     29  C   UNL     1       3.841   1.261  17.995  0.00  0.00    +0.000 C 
ATOM     30  O   UNL     1       2.730   2.105  17.688  0.00  0.00    +0.000 OA
ENDBRANCH  22  30
ENDBRANCH  21  28
ENDBRANCH   1  21
TORSDOF 7
ENDMDL
MODEL 9
REMARK VINA RESULT:      -7.5      2.095      6.739
REMARK  Name = 
REMARK  10 active torsions:
REMARK  status: ('A' for Active; 'I' for Inactive)
REMARK    1  A    between atoms: C_1  and  O_2
REMARK    2  A    between atoms: O_2  and  C_3
REMARK    3  A    between atoms: C_5  and  C_6
REMARK    4  A    between atoms: C_9  and  O_10
REMARK    5  A    between atoms: O_10  and  C_11
REMARK    6  A    between atoms: C_17  and  N_18
REMARK    7  A    between atoms: N_21  and  C_22
REMARK    8  A    between atoms: N_21  and  C_23
REMARK    9  A    between atoms: C_23  and  C_24
REMARK   10  A    between atoms: C_26  and  O_27
REMARK                            x       y       z     vdW  Elec       q    Type
REMARK                         _______ _______ _______ _____ _____    ______ ____
ROOT
ATOM      1  C   UNL     1       2.493   5.336  19.997  0.00  0.00    +0.000 A 
ATOM      2  C   UNL     1       1.184   4.952  20.321  0.00  0.00    +0.000 A 
ATOM      3  C   UNL     1       0.818   3.609  20.267  0.00  0.00    +0.000 A 
ATOM      4  C   UNL     1       1.735   2.668  19.832  0.00  0.00    +0.000 A 
ATOM      5  F   UNL     1       1.382   1.379  19.780  0.00  0.00    +0.000 F 
ATOM      6  C   UNL     1       3.012   3.046  19.418  0.00  0.00    +0.000 A 
ATOM      7  C   UNL     1       3.408   4.387  19.482  0.00  0.00    +0.000 A 
ENDROOT
BRANCH   7   8
ATOM      8  N   UNL     1       4.673   4.811  18.994  0.00  0.00    +0.000 N 
ATOM      9  C   UNL     1       4.914   5.514  17.828  0.00  0.00    +0.000 C 
ATOM     10  O   UNL     1       4.084   5.674  16.934  0.00  0.00    +0.000 OA
ATOM     11  N   UNL     1       6.219   5.992  17.684  0.00  0.00    +0.000 N 
ATOM     12  C   UNL     1       7.216   6.007  18.746  0.00  0.00    +0.000 C 
ATOM     13  H   UNL     1       5.467   4.363  19.426  0.00  0.00    +0.000 HD
BRANCH  11  14
ATOM     14  C   UNL     1       6.676   6.376  16.340  0.00  0.00    +0.000 C 
BRANCH  14  15
ATOM     15  C   UNL     1       7.370   5.150  15.743  0.00  0.00    +0.000 C 
ATOM     16  C   UNL     1       6.630   3.793  15.866  0.00  0.00    +0.000 C 
ATOM     17  C   UNL     1       6.183   3.935  14.399  0.00  0.00    +0.000 C 
ATOM     18  C   UNL     1       7.311   4.969  14.207  0.00  0.00    +0.000 C 
BRANCH  17  19
ATOM     19  O   UNL     1       4.843   4.408  14.161  0.00  0.00    +0.000 OA
ATOM     20  H   UNL     1       4.826   4.743  13.245  0.00  0.00    +0.000 HD
ENDBRANCH  17  19
ENDBRANCH  14  15
ENDBRANCH  11  14
ENDBRANCH   7   8
BRANCH   1  21
ATOM     21  O   UNL     1       2.917   6.647  20.121  0.00  0.00    +0.000 OA
BRANCH  21  28
ATOM     22  C   UNL     1       1.324   8.512  20.603  0.00  0.00    +0.000 A 
ATOM     23  C   UNL     1       0.660   9.634  20.077  0.00  0.00    +0.000 A 
ATOM     24  C   UNL     1       0.726   9.952  18.713  0.00  0.00    +0.000 A 
ATOM     25  C   UNL     1       0.081  11.212  18.207  0.00  0.00    +0.000 C 
ATOM     26  C   UNL     1       1.467   9.128  17.868  0.00  0.00    +0.000 A 
ATOM     27  C   UNL     1       2.148   8.018  18.382  0.00  0.00    +0.000 A 
ATOM     28  C   UNL     1       2.095   7.702  19.749  0.00  0.00    +0.000 A 
BRANCH  22  30
ATOM     29  C   UNL     1       0.637   9.214  22.756  0.00  0.00    +0.000 C 
ATOM     30  O   UNL     1       1.287   8.232  21.946  0.00  0.00    +0.000 OA
ENDBRANCH  22  30
ENDBRANCH  21  28
ENDBRANCH   1  21
TORSDOF 7
ENDMDL
