MODEL 1
REMARK VINA RESULT:      -8.5      0.000      0.000
REMARK  Name = 
REMARK  11 active torsions:
REMARK  status: ('A' for Active; 'I' for Inactive)
REMARK    1  A    between atoms: C_1  and  O_2
REMARK    2  A    between atoms: O_2  and  C_3
REMARK    3  A    between atoms: C_6  and  C_7
REMARK    4  A    between atoms: C_13  and  C_14
REMARK    5  A    between atoms: C_14  and  C_15
REMARK    6  A    between atoms: C_15  and  N_16
REMARK    7  A    between atoms: C_17  and  C_19
REMARK    8  A    between atoms: C_22  and  O_23
REMARK    9  A    between atoms: O_23  and  C_24
REMARK   10  A    between atoms: C_24  and  C_25
REMARK   11  A    between atoms: C_25  and  C_26
REMARK                            x       y       z     vdW  Elec       q    Type
REMARK                         _______ _______ _______ _____ _____    ______ ____
ROOT
ATOM      1  C   UNL     1       2.559   6.757  18.247  0.00  0.00    +0.000 C 
ENDROOT
BRANCH   1   2
ATOM      2  N   UNL     1       1.941   7.462  19.360  0.00  0.00    +0.000 N 
ATOM      3  C   UNL     1       1.551   8.776  19.225  0.00  0.00    +0.000 C 
ATOM      4  O   UNL     1       1.720   9.430  18.201  0.00  0.00    +0.000 OA
ATOM      5  H   UNL     1       1.696   6.934  20.187  0.00  0.00    +0.000 HD
BRANCH   3   6
ATOM      6  C   UNL     1       0.855   9.384  20.373  0.00  0.00    +0.000 A 
ATOM      7  C   UNL     1       0.456   8.677  21.510  0.00  0.00    +0.000 A 
ATOM      8  C   UNL     1      -0.179   9.362  22.550  0.00  0.00    +0.000 A 
ATOM      9  C   UNL     1      -0.413  10.721  22.396  0.00  0.00    +0.000 A 
ATOM     10  N   UNL     1      -0.030  11.428  21.312  0.00  0.00    +0.000 NA
ATOM     11  C   UNL     1       0.610  10.749  20.331  0.00  0.00    +0.000 A 
BRANCH   9  12
ATOM     12  O   UNL     1      -1.041  11.379  23.434  0.00  0.00    +0.000 OA
BRANCH  12  13
ATOM     13  C   UNL     1      -1.782  12.513  22.966  0.00  0.00    +0.000 C 
BRANCH  13  14
ATOM     14  C   UNL     1      -3.263  12.250  23.164  0.00  0.00    +0.000 C 
BRANCH  14  15
ATOM     15  C   UNL     1      -3.816  13.086  24.297  0.00  0.00    +0.000 C 
ATOM     16  F   UNL     1      -4.439  12.349  25.240  0.00  0.00    +0.000 F 
ATOM     17  F   UNL     1      -2.822  13.769  24.911  0.00  0.00    +0.000 F 
ATOM     18  F   UNL     1      -4.704  13.994  23.837  0.00  0.00    +0.000 F 
ENDBRANCH  14  15
ENDBRANCH  13  14
ENDBRANCH  12  13
ENDBRANCH   9  12
ENDBRANCH   3   6
ENDBRANCH   1   2
BRANCH   1  19
ATOM     19  C   UNL     1       2.064   5.307  18.168  0.00  0.00    +0.000 C 
BRANCH  19  26
ATOM     20  C   UNL     1       3.778   3.718  19.262  0.00  0.00    +0.000 A 
ATOM     21  C   UNL     1       4.065   2.807  20.311  0.00  0.00    +0.000 A 
ATOM     22  C   UNL     1       3.119   2.446  21.274  0.00  0.00    +0.000 A 
ATOM     23  C   UNL     1       1.855   3.003  21.228  0.00  0.00    +0.000 A 
ATOM     24  C   UNL     1       1.548   3.922  20.232  0.00  0.00    +0.000 A 
ATOM     25  F   UNL     1       0.311   4.438  20.260  0.00  0.00    +0.000 F 
ATOM     26  C   UNL     1       2.472   4.303  19.237  0.00  0.00    +0.000 A 
BRANCH  20  30
ATOM     27  C   UNL     1       6.719   4.471  16.307  0.00  0.00    +0.000 A 
ATOM     28  N   UNL     1       5.602   3.846  15.924  0.00  0.00    +0.000 NA
ATOM     29  C   UNL     1       4.690   3.621  16.900  0.00  0.00    +0.000 A 
ATOM     30  C   UNL     1       4.838   3.959  18.242  0.00  0.00    +0.000 A 
ATOM     31  C   UNL     1       6.082   4.511  18.494  0.00  0.00    +0.000 A 
ATOM     32  N   UNL     1       7.021   4.801  17.567  0.00  0.00    +0.000 NA
BRANCH  27  34
ATOM     33  C   UNL     1       7.004   4.726  14.030  0.00  0.00    +0.000 C 
ATOM     34  O   UNL     1       7.629   4.740  15.309  0.00  0.00    +0.000 OA
ENDBRANCH  27  34
ENDBRANCH  20  30
ENDBRANCH  19  26
ENDBRANCH   1  19
TORSDOF 10
ENDMDL
MODEL 2
REMARK VINA RESULT:      -8.5      1.732      2.262
REMARK  Name = 
REMARK  11 active torsions:
REMARK  status: ('A' for Active; 'I' for Inactive)
REMARK    1  A    between atoms: C_1  and  O_2
REMARK    2  A    between atoms: O_2  and  C_3
REMARK    3  A    between atoms: C_6  and  C_7
REMARK    4  A    between atoms: C_13  and  C_14
REMARK    5  A    between atoms: C_14  and  C_15
REMARK    6  A    between atoms: C_15  and  N_16
REMARK    7  A    between atoms: C_17  and  C_19
REMARK    8  A    between atoms: C_22  and  O_23
REMARK    9  A    between atoms: O_23  and  C_24
REMARK   10  A    between atoms: C_24  and  C_25
REMARK   11  A    between atoms: C_25  and  C_26
REMARK                            x       y       z     vdW  Elec       q    Type
REMARK                         _______ _______ _______ _____ _____    ______ ____
ROOT
ATOM      1  C   UNL     1       2.134   7.303  19.223  0.00  0.00    +0.000 C 
ENDROOT
BRANCH   1   2
ATOM      2  N   UNL     1       1.568   8.298  20.123  0.00  0.00    +0.000 N 
ATOM      3  C   UNL     1       0.986   9.441  19.624  0.00  0.00    +0.000 C 
ATOM      4  O   UNL     1       0.933   9.707  18.427  0.00  0.00    +0.000 OA
ATOM      5  H   UNL     1       1.505   8.075  21.107  0.00  0.00    +0.000 HD
BRANCH   3   6
ATOM      6  C   UNL     1       0.362  10.351  20.602  0.00  0.00    +0.000 A 
ATOM      7  C   UNL     1      -0.236  11.568  20.265  0.00  0.00    +0.000 A 
ATOM      8  C   UNL     1      -0.818  12.342  21.274  0.00  0.00    +0.000 A 
ATOM      9  C   UNL     1      -0.751  11.878  22.580  0.00  0.00    +0.000 A 
ATOM     10  N   UNL     1      -0.185  10.704  22.929  0.00  0.00    +0.000 NA
ATOM     11  C   UNL     1       0.344   9.958  21.932  0.00  0.00    +0.000 A 
BRANCH   9  12
ATOM     12  O   UNL     1      -1.331  12.657  23.561  0.00  0.00    +0.000 OA
BRANCH  12  13
ATOM     13  C   UNL     1      -2.167  13.675  22.998  0.00  0.00    +0.000 C 
BRANCH  13  14
ATOM     14  C   UNL     1      -3.286  13.990  23.974  0.00  0.00    +0.000 C 
BRANCH  14  15
ATOM     15  C   UNL     1      -4.380  12.948  23.900  0.00  0.00    +0.000 C 
ATOM     16  F   UNL     1      -4.199  11.931  24.768  0.00  0.00    +0.000 F 
ATOM     17  F   UNL     1      -5.583  13.503  24.172  0.00  0.00    +0.000 F 
ATOM     18  F   UNL     1      -4.454  12.415  22.660  0.00  0.00    +0.000 F 
ENDBRANCH  14  15
ENDBRANCH  13  14
ENDBRANCH  12  13
ENDBRANCH   9  12
ENDBRANCH   3   6
ENDBRANCH   1   2
BRANCH   1  19
ATOM     19  C   UNL     1       2.424   5.990  19.963  0.00  0.00    +0.000 C 
BRANCH  19  26
ATOM     20  C   UNL     1       3.452   4.315  18.292  0.00  0.00    +0.000 A 
ATOM     21  C   UNL     1       3.355   3.053  17.650  0.00  0.00    +0.000 A 
ATOM     22  C   UNL     1       2.278   2.187  17.853  0.00  0.00    +0.000 A 
ATOM     23  C   UNL     1       1.268   2.549  18.724  0.00  0.00    +0.000 A 
ATOM     24  C   UNL     1       1.345   3.765  19.393  0.00  0.00    +0.000 A 
ATOM     25  F   UNL     1       0.341   4.043  20.237  0.00  0.00    +0.000 F 
ATOM     26  C   UNL     1       2.409   4.670  19.206  0.00  0.00    +0.000 A 
BRANCH  20  30
ATOM     27  C   UNL     1       6.788   6.711  17.252  0.00  0.00    +0.000 A 
ATOM     28  N   UNL     1       6.857   6.012  18.388  0.00  0.00    +0.000 NA
ATOM     29  C   UNL     1       5.769   5.263  18.685  0.00  0.00    +0.000 A 
ATOM     30  C   UNL     1       4.602   5.191  17.929  0.00  0.00    +0.000 A 
ATOM     31  C   UNL     1       4.649   6.041  16.839  0.00  0.00    +0.000 A 
ATOM     32  N   UNL     1       5.712   6.783  16.459  0.00  0.00    +0.000 NA
BRANCH  27  34
ATOM     33  C   UNL     1       7.984   8.635  17.693  0.00  0.00    +0.000 C 
ATOM     34  O   UNL     1       7.909   7.439  16.925  0.00  0.00    +0.000 OA
ENDBRANCH  27  34
ENDBRANCH  20  30
ENDBRANCH  19  26
ENDBRANCH   1  19
TORSDOF 10
ENDMDL
MODEL 3
REMARK VINA RESULT:      -8.4      0.559      1.162
REMARK  Name = 
REMARK  11 active torsions:
REMARK  status: ('A' for Active; 'I' for Inactive)
REMARK    1  A    between atoms: C_1  and  O_2
REMARK    2  A    between atoms: O_2  and  C_3
REMARK    3  A    between atoms: C_6  and  C_7
REMARK    4  A    between atoms: C_13  and  C_14
REMARK    5  A    between atoms: C_14  and  C_15
REMARK    6  A    between atoms: C_15  and  N_16
REMARK    7  A    between atoms: C_17  and  C_19
REMARK    8  A    between atoms: C_22  and  O_23
REMARK    9  A    between atoms: O_23  and  C_24
REMARK   10  A    between atoms: C_24  and  C_25
REMARK   11  A    between atoms: C_25  and  C_26
REMARK                            x       y       z     vdW  Elec       q    Type
REMARK                         _______ _______ _______ _____ _____    ______ ____
ROOT
ATOM      1  C   UNL     1       2.792   7.045  18.449  0.00  0.00    +0.000 C 
ENDROOT
BRANCH   1   2
ATOM      2  N   UNL     1       2.121   7.740  19.538  0.00  0.00    +0.000 N 
ATOM      3  C   UNL     1       1.438   8.912  19.304  0.00  0.00    +0.000 C 
ATOM      4  O   UNL     1       1.374   9.450  18.203  0.00  0.00    +0.000 OA
ATOM      5  H   UNL     1       2.068   7.283  20.439  0.00  0.00    +0.000 HD
BRANCH   3   6
ATOM      6  C   UNL     1       0.717   9.502  20.447  0.00  0.00    +0.000 A 
ATOM      7  C   UNL     1       0.371   8.795  21.601  0.00  0.00    +0.000 A 
ATOM      8  C   UNL     1      -0.294   9.462  22.634  0.00  0.00    +0.000 A 
ATOM      9  C   UNL     1      -0.610  10.801  22.455  0.00  0.00    +0.000 A 
ATOM     10  N   UNL     1      -0.280  11.507  21.354  0.00  0.00    +0.000 NA
ATOM     11  C   UNL     1       0.390  10.848  20.381  0.00  0.00    +0.000 A 
BRANCH   9  12
ATOM     12  O   UNL     1      -1.267  11.442  23.487  0.00  0.00    +0.000 OA
BRANCH  12  13
ATOM     13  C   UNL     1      -2.487  12.047  23.038  0.00  0.00    +0.000 C 
BRANCH  13  14
ATOM     14  C   UNL     1      -2.541  13.478  23.539  0.00  0.00    +0.000 C 
BRANCH  14  15
ATOM     15  C   UNL     1      -3.660  13.661  24.539  0.00  0.00    +0.000 C 
ATOM     16  F   UNL     1      -4.769  14.205  23.996  0.00  0.00    +0.000 F 
ATOM     17  F   UNL     1      -4.016  12.471  25.075  0.00  0.00    +0.000 F 
ATOM     18  F   UNL     1      -3.271  14.461  25.556  0.00  0.00    +0.000 F 
ENDBRANCH  14  15
ENDBRANCH  13  14
ENDBRANCH  12  13
ENDBRANCH   9  12
ENDBRANCH   3   6
ENDBRANCH   1   2
BRANCH   1  19
ATOM     19  C   UNL     1       2.206   5.642  18.246  0.00  0.00    +0.000 C 
BRANCH  19  26
ATOM     20  C   UNL     1       3.987   3.883  18.869  0.00  0.00    +0.000 A 
ATOM     21  C   UNL     1       4.366   2.814  19.722  0.00  0.00    +0.000 A 
ATOM     22  C   UNL     1       3.528   2.316  20.722  0.00  0.00    +0.000 A 
ATOM     23  C   UNL     1       2.283   2.887  20.914  0.00  0.00    +0.000 A 
ATOM     24  C   UNL     1       1.891   3.955  20.116  0.00  0.00    +0.000 A 
ATOM     25  F   UNL     1       0.681   4.472  20.369  0.00  0.00    +0.000 F 
ATOM     26  C   UNL     1       2.705   4.478  19.090  0.00  0.00    +0.000 A 
BRANCH  20  30
ATOM     27  C   UNL     1       6.749   4.921  15.829  0.00  0.00    +0.000 A 
ATOM     28  N   UNL     1       6.999   5.354  17.067  0.00  0.00    +0.000 NA
ATOM     29  C   UNL     1       6.090   5.004  18.008  0.00  0.00    +0.000 A 
ATOM     30  C   UNL     1       4.930   4.269  17.781  0.00  0.00    +0.000 A 
ATOM     31  C   UNL     1       4.766   3.977  16.439  0.00  0.00    +0.000 A 
ATOM     32  N   UNL     1       5.649   4.257  15.454  0.00  0.00    +0.000 NA
BRANCH  27  34
ATOM     33  C   UNL     1       7.269   4.835  13.582  0.00  0.00    +0.000 C 
ATOM     34  O   UNL     1       7.694   5.238  14.879  0.00  0.00    +0.000 OA
ENDBRANCH  27  34
ENDBRANCH  20  30
ENDBRANCH  19  26
ENDBRANCH   1  19
TORSDOF 10
ENDMDL
MODEL 4
REMARK VINA RESULT:      -8.4      0.964      1.222
REMARK  Name = 
REMARK  11 active torsions:
REMARK  status: ('A' for Active; 'I' for Inactive)
REMARK    1  A    between atoms: C_1  and  O_2
REMARK    2  A    between atoms: O_2  and  C_3
REMARK    3  A    between atoms: C_6  and  C_7
REMARK    4  A    between atoms: C_13  and  C_14
REMARK    5  A    between atoms: C_14  and  C_15
REMARK    6  A    between atoms: C_15  and  N_16
REMARK    7  A    between atoms: C_17  and  C_19
REMARK    8  A    between atoms: C_22  and  O_23
REMARK    9  A    between atoms: O_23  and  C_24
REMARK   10  A    between atoms: C_24  and  C_25
REMARK   11  A    between atoms: C_25  and  C_26
REMARK                            x       y       z     vdW  Elec       q    Type
REMARK                         _______ _______ _______ _____ _____    ______ ____
ROOT
ATOM      1  C   UNL     1       2.353   7.315  18.907  0.00  0.00    +0.000 C 
ENDROOT
BRANCH   1   2
ATOM      2  N   UNL     1       1.755   8.183  19.911  0.00  0.00    +0.000 N 
ATOM      3  C   UNL     1       1.080   9.323  19.538  0.00  0.00    +0.000 C 
ATOM      4  O   UNL     1       0.965   9.691  18.373  0.00  0.00    +0.000 OA
ATOM      5  H   UNL     1       1.743   7.868  20.872  0.00  0.00    +0.000 HD
BRANCH   3   6
ATOM      6  C   UNL     1       0.433  10.095  20.614  0.00  0.00    +0.000 A 
ATOM      7  C   UNL     1      -0.116   9.524  21.764  0.00  0.00    +0.000 A 
ATOM      8  C   UNL     1      -0.687  10.357  22.731  0.00  0.00    +0.000 A 
ATOM      9  C   UNL     1      -0.709  11.723  22.493  0.00  0.00    +0.000 A 
ATOM     10  N   UNL     1      -0.178  12.299  21.394  0.00  0.00    +0.000 NA
ATOM     11  C   UNL     1       0.395  11.476  20.486  0.00  0.00    +0.000 A 
BRANCH   9  12
ATOM     12  O   UNL     1      -1.277  12.528  23.460  0.00  0.00    +0.000 OA
BRANCH  12  13
ATOM     13  C   UNL     1      -2.275  13.394  22.904  0.00  0.00    +0.000 C 
BRANCH  13  14
ATOM     14  C   UNL     1      -3.630  12.720  23.016  0.00  0.00    +0.000 C 
BRANCH  14  15
ATOM     15  C   UNL     1      -4.305  13.072  24.323  0.00  0.00    +0.000 C 
ATOM     16  F   UNL     1      -3.578  13.920  25.080  0.00  0.00    +0.000 F 
ATOM     17  F   UNL     1      -5.502  13.659  24.095  0.00  0.00    +0.000 F 
ATOM     18  F   UNL     1      -4.534  11.963  25.060  0.00  0.00    +0.000 F 
ENDBRANCH  14  15
ENDBRANCH  13  14
ENDBRANCH  12  13
ENDBRANCH   9  12
ENDBRANCH   3   6
ENDBRANCH   1   2
BRANCH   1  19
ATOM     19  C   UNL     1       3.126   6.163  19.562  0.00  0.00    +0.000 C 
BRANCH  19  26
ATOM     20  C   UNL     1       3.268   3.750  18.659  0.00  0.00    +0.000 A 
ATOM     21  C   UNL     1       2.710   2.445  18.640  0.00  0.00    +0.000 A 
ATOM     22  C   UNL     1       1.541   2.116  19.329  0.00  0.00    +0.000 A 
ATOM     23  C   UNL     1       0.898   3.084  20.079  0.00  0.00    +0.000 A 
ATOM     24  C   UNL     1       1.432   4.365  20.145  0.00  0.00    +0.000 A 
ATOM     25  F   UNL     1       0.768   5.247  20.905  0.00  0.00    +0.000 F 
ATOM     26  C   UNL     1       2.604   4.738  19.455  0.00  0.00    +0.000 A 
BRANCH  20  30
ATOM     27  C   UNL     1       6.627   4.561  16.208  0.00  0.00    +0.000 A 
ATOM     28  N   UNL     1       5.495   4.190  15.605  0.00  0.00    +0.000 NA
ATOM     29  C   UNL     1       4.447   3.936  16.424  0.00  0.00    +0.000 A 
ATOM     30  C   UNL     1       4.469   4.004  17.814  0.00  0.00    +0.000 A 
ATOM     31  C   UNL     1       5.732   4.308  18.289  0.00  0.00    +0.000 A 
ATOM     32  N   UNL     1       6.810   4.613  17.533  0.00  0.00    +0.000 NA
BRANCH  27  34
ATOM     33  C   UNL     1       7.253   4.954  14.022  0.00  0.00    +0.000 C 
ATOM     34  O   UNL     1       7.681   4.861  15.376  0.00  0.00    +0.000 OA
ENDBRANCH  27  34
ENDBRANCH  20  30
ENDBRANCH  19  26
ENDBRANCH   1  19
TORSDOF 10
ENDMDL
MODEL 5
REMARK VINA RESULT:      -8.4      0.648      1.242
REMARK  Name = 
REMARK  11 active torsions:
REMARK  status: ('A' for Active; 'I' for Inactive)
REMARK    1  A    between atoms: C_1  and  O_2
REMARK    2  A    between atoms: O_2  and  C_3
REMARK    3  A    between atoms: C_6  and  C_7
REMARK    4  A    between atoms: C_13  and  C_14
REMARK    5  A    between atoms: C_14  and  C_15
REMARK    6  A    between atoms: C_15  and  N_16
REMARK    7  A    between atoms: C_17  and  C_19
REMARK    8  A    between atoms: C_22  and  O_23
REMARK    9  A    between atoms: O_23  and  C_24
REMARK   10  A    between atoms: C_24  and  C_25
REMARK   11  A    between atoms: C_25  and  C_26
REMARK                            x       y       z     vdW  Elec       q    Type
REMARK                         _______ _______ _______ _____ _____    ______ ____
ROOT
ATOM      1  C   UNL     1       2.724   7.051  18.513  0.00  0.00    +0.000 C 
ENDROOT
BRANCH   1   2
ATOM      2  N   UNL     1       2.107   7.976  19.453  0.00  0.00    +0.000 N 
ATOM      3  C   UNL     1       1.430   9.085  19.000  0.00  0.00    +0.000 C 
ATOM      4  O   UNL     1       1.328   9.379  17.813  0.00  0.00    +0.000 OA
ATOM      5  H   UNL     1       2.083   7.721  20.432  0.00  0.00    +0.000 HD
BRANCH   3   6
ATOM      6  C   UNL     1       0.762   9.919  20.017  0.00  0.00    +0.000 A 
ATOM      7  C   UNL     1      -0.096  10.980  19.718  0.00  0.00    +0.000 A 
ATOM      8  C   UNL     1      -0.692  11.689  20.765  0.00  0.00    +0.000 A 
ATOM      9  C   UNL     1      -0.382  11.323  22.067  0.00  0.00    +0.000 A 
ATOM     10  N   UNL     1       0.436  10.298  22.381  0.00  0.00    +0.000 NA
ATOM     11  C   UNL     1       0.978   9.607  21.352  0.00  0.00    +0.000 A 
BRANCH   9  12
ATOM     12  O   UNL     1      -0.981  12.036  23.086  0.00  0.00    +0.000 OA
BRANCH  12  13
ATOM     13  C   UNL     1      -2.283  11.521  23.394  0.00  0.00    +0.000 C 
BRANCH  13  14
ATOM     14  C   UNL     1      -3.324  12.564  23.035  0.00  0.00    +0.000 C 
BRANCH  14  15
ATOM     15  C   UNL     1      -4.090  13.011  24.260  0.00  0.00    +0.000 C 
ATOM     16  F   UNL     1      -4.529  11.980  25.012  0.00  0.00    +0.000 F 
ATOM     17  F   UNL     1      -3.311  13.784  25.050  0.00  0.00    +0.000 F 
ATOM     18  F   UNL     1      -5.168  13.748  23.911  0.00  0.00    +0.000 F 
ENDBRANCH  14  15
ENDBRANCH  13  14
ENDBRANCH  12  13
ENDBRANCH   9  12
ENDBRANCH   3   6
ENDBRANCH   1   2
BRANCH   1  19
ATOM     19  C   UNL     1       1.951   5.728  18.451  0.00  0.00    +0.000 C 
BRANCH  19  26
ATOM     20  C   UNL     1       3.547   3.889  19.303  0.00  0.00    +0.000 A 
ATOM     21  C   UNL     1       3.789   2.858  20.248  0.00  0.00    +0.000 A 
ATOM     22  C   UNL     1       2.856   2.497  21.222  0.00  0.00    +0.000 A 
ATOM     23  C   UNL     1       1.651   3.172  21.294  0.00  0.00    +0.000 A 
ATOM     24  C   UNL     1       1.393   4.206  20.404  0.00  0.00    +0.000 A 
ATOM     25  F   UNL     1       0.214   4.830  20.544  0.00  0.00    +0.000 F 
ATOM     26  C   UNL     1       2.305   4.593  19.401  0.00  0.00    +0.000 A 
BRANCH  20  30
ATOM     27  C   UNL     1       6.559   4.501  16.386  0.00  0.00    +0.000 A 
ATOM     28  N   UNL     1       6.761   5.013  17.603  0.00  0.00    +0.000 NA
ATOM     29  C   UNL     1       5.773   4.799  18.504  0.00  0.00    +0.000 A 
ATOM     30  C   UNL     1       4.580   4.126  18.255  0.00  0.00    +0.000 A 
ATOM     31  C   UNL     1       4.480   3.740  16.930  0.00  0.00    +0.000 A 
ATOM     32  N   UNL     1       5.440   3.883  15.989  0.00  0.00    +0.000 NA
BRANCH  27  34
ATOM     33  C   UNL     1       7.075   4.789  14.155  0.00  0.00    +0.000 C 
ATOM     34  O   UNL     1       7.580   4.679  15.481  0.00  0.00    +0.000 OA
ENDBRANCH  27  34
ENDBRANCH  20  30
ENDBRANCH  19  26
ENDBRANCH   1  19
TORSDOF 10
ENDMDL
MODEL 6
REMARK VINA RESULT:      -8.3      1.855      2.317
REMARK  Name = 
REMARK  11 active torsions:
REMARK  status: ('A' for Active; 'I' for Inactive)
REMARK    1  A    between atoms: C_1  and  O_2
REMARK    2  A    between atoms: O_2  and  C_3
REMARK    3  A    between atoms: C_6  and  C_7
REMARK    4  A    between atoms: C_13  and  C_14
REMARK    5  A    between atoms: C_14  and  C_15
REMARK    6  A    between atoms: C_15  and  N_16
REMARK    7  A    between atoms: C_17  and  C_19
REMARK    8  A    between atoms: C_22  and  O_23
REMARK    9  A    between atoms: O_23  and  C_24
REMARK   10  A    between atoms: C_24  and  C_25
REMARK   11  A    between atoms: C_25  and  C_26
REMARK                            x       y       z     vdW  Elec       q    Type
REMARK                         _______ _______ _______ _____ _____    ______ ____
ROOT
ATOM      1  C   UNL     1       2.347   7.353  19.244  0.00  0.00    +0.000 C 
ENDROOT
BRANCH   1   2
ATOM      2  N   UNL     1       1.650   8.286  20.117  0.00  0.00    +0.000 N 
ATOM      3  C   UNL     1       1.003   9.383  19.595  0.00  0.00    +0.000 C 
ATOM      4  O   UNL     1       0.995   9.658  18.399  0.00  0.00    +0.000 OA
ATOM      5  H   UNL     1       1.550   8.046  21.094  0.00  0.00    +0.000 HD
BRANCH   3   6
ATOM      6  C   UNL     1       0.250  10.225  20.542  0.00  0.00    +0.000 A 
ATOM      7  C   UNL     1      -0.689  11.186  20.158  0.00  0.00    +0.000 A 
ATOM      8  C   UNL     1      -1.360  11.913  21.145  0.00  0.00    +0.000 A 
ATOM      9  C   UNL     1      -1.043  11.668  22.474  0.00  0.00    +0.000 A 
ATOM     10  N   UNL     1      -0.147  10.740  22.869  0.00  0.00    +0.000 NA
ATOM     11  C   UNL     1       0.469  10.028  21.898  0.00  0.00    +0.000 A 
BRANCH   9  12
ATOM     12  O   UNL     1      -1.717  12.396  23.433  0.00  0.00    +0.000 OA
BRANCH  12  13
ATOM     13  C   UNL     1      -1.314  13.772  23.428  0.00  0.00    +0.000 C 
BRANCH  13  14
ATOM     14  C   UNL     1      -2.545  14.647  23.582  0.00  0.00    +0.000 C 
BRANCH  14  15
ATOM     15  C   UNL     1      -2.903  14.827  25.040  0.00  0.00    +0.000 C 
ATOM     16  F   UNL     1      -3.724  15.877  25.255  0.00  0.00    +0.000 F 
ATOM     17  F   UNL     1      -3.527  13.724  25.514  0.00  0.00    +0.000 F 
ATOM     18  F   UNL     1      -1.795  15.016  25.788  0.00  0.00    +0.000 F 
ENDBRANCH  14  15
ENDBRANCH  13  14
ENDBRANCH  12  13
ENDBRANCH   9  12
ENDBRANCH   3   6
ENDBRANCH   1   2
BRANCH   1  19
ATOM     19  C   UNL     1       2.599   6.016  19.952  0.00  0.00    +0.000 C 
BRANCH  19  26
ATOM     20  C   UNL     1       3.568   4.343  18.244  0.00  0.00    +0.000 A 
ATOM     21  C   UNL     1       3.426   3.100  17.574  0.00  0.00    +0.000 A 
ATOM     22  C   UNL     1       2.320   2.268  17.758  0.00  0.00    +0.000 A 
ATOM     23  C   UNL     1       1.323   2.646  18.638  0.00  0.00    +0.000 A 
ATOM     24  C   UNL     1       1.442   3.843  19.334  0.00  0.00    +0.000 A 
ATOM     25  F   UNL     1       0.450   4.138  20.184  0.00  0.00    +0.000 F 
ATOM     26  C   UNL     1       2.539   4.714  19.167  0.00  0.00    +0.000 A 
BRANCH  20  30
ATOM     27  C   UNL     1       6.856   6.832  17.274  0.00  0.00    +0.000 A 
ATOM     28  N   UNL     1       5.832   6.797  16.418  0.00  0.00    +0.000 NA
ATOM     29  C   UNL     1       4.804   5.986  16.762  0.00  0.00    +0.000 A 
ATOM     30  C   UNL     1       4.748   5.185  17.900  0.00  0.00    +0.000 A 
ATOM     31  C   UNL     1       5.919   5.261  18.634  0.00  0.00    +0.000 A 
ATOM     32  N   UNL     1       6.965   6.077  18.373  0.00  0.00    +0.000 NA
BRANCH  27  34
ATOM     33  C   UNL     1       7.963   8.767  17.874  0.00  0.00    +0.000 C 
ATOM     34  O   UNL     1       7.883   7.689  16.948  0.00  0.00    +0.000 OA
ENDBRANCH  27  34
ENDBRANCH  20  30
ENDBRANCH  19  26
ENDBRANCH   1  19
TORSDOF 10
ENDMDL
MODEL 7
REMARK VINA RESULT:      -8.3      1.667      2.063
REMARK  Name = 
REMARK  11 active torsions:
REMARK  status: ('A' for Active; 'I' for Inactive)
REMARK    1  A    between atoms: C_1  and  O_2
REMARK    2  A    between atoms: O_2  and  C_3
REMARK    3  A    between atoms: C_6  and  C_7
REMARK    4  A    between atoms: C_13  and  C_14
REMARK    5  A    between atoms: C_14  and  C_15
REMARK    6  A    between atoms: C_15  and  N_16
REMARK    7  A    between atoms: C_17  and  C_19
REMARK    8  A    between atoms: C_22  and  O_23
REMARK    9  A    between atoms: O_23  and  C_24
REMARK   10  A    between atoms: C_24  and  C_25
REMARK   11  A    between atoms: C_25  and  C_26
REMARK                            x       y       z     vdW  Elec       q    Type
REMARK                         _______ _______ _______ _____ _____    ______ ____
ROOT
ATOM      1  C   UNL     1       2.801   7.237  18.337  0.00  0.00    +0.000 C 
ENDROOT
BRANCH   1   2
ATOM      2  N   UNL     1       1.682   8.084  18.724  0.00  0.00    +0.000 N 
ATOM      3  C   UNL     1       1.499   9.313  18.132  0.00  0.00    +0.000 C 
ATOM      4  O   UNL     1       2.257   9.778  17.287  0.00  0.00    +0.000 OA
ATOM      5  H   UNL     1       0.982   7.700  19.344  0.00  0.00    +0.000 HD
BRANCH   3   6
ATOM      6  C   UNL     1       0.292  10.065  18.522  0.00  0.00    +0.000 A 
ATOM      7  C   UNL     1      -0.907  10.046  17.806  0.00  0.00    +0.000 A 
ATOM      8  C   UNL     1      -1.996  10.782  18.281  0.00  0.00    +0.000 A 
ATOM      9  C   UNL     1      -1.830  11.529  19.439  0.00  0.00    +0.000 A 
ATOM     10  N   UNL     1      -0.685  11.558  20.152  0.00  0.00    +0.000 NA
ATOM     11  C   UNL     1       0.346  10.814  19.689  0.00  0.00    +0.000 A 
BRANCH   9  12
ATOM     12  O   UNL     1      -2.917  12.249  19.892  0.00  0.00    +0.000 OA
BRANCH  12  13
ATOM     13  C   UNL     1      -2.552  13.142  20.952  0.00  0.00    +0.000 C 
BRANCH  13  14
ATOM     14  C   UNL     1      -3.531  12.971  22.099  0.00  0.00    +0.000 C 
BRANCH  14  15
ATOM     15  C   UNL     1      -2.848  12.377  23.311  0.00  0.00    +0.000 C 
ATOM     16  F   UNL     1      -2.050  13.257  23.951  0.00  0.00    +0.000 F 
ATOM     17  F   UNL     1      -3.765  11.939  24.204  0.00  0.00    +0.000 F 
ATOM     18  F   UNL     1      -2.087  11.316  22.962  0.00  0.00    +0.000 F 
ENDBRANCH  14  15
ENDBRANCH  13  14
ENDBRANCH  12  13
ENDBRANCH   9  12
ENDBRANCH   3   6
ENDBRANCH   1   2
BRANCH   1  19
ATOM     19  C   UNL     1       3.122   6.211  19.431  0.00  0.00    +0.000 C 
BRANCH  19  26
ATOM     20  C   UNL     1       3.348   3.832  18.457  0.00  0.00    +0.000 A 
ATOM     21  C   UNL     1       2.841   2.508  18.403  0.00  0.00    +0.000 A 
ATOM     22  C   UNL     1       1.691   2.115  19.090  0.00  0.00    +0.000 A 
ATOM     23  C   UNL     1       1.017   3.034  19.872  0.00  0.00    +0.000 A 
ATOM     24  C   UNL     1       1.502   4.333  19.972  0.00  0.00    +0.000 A 
ATOM     25  F   UNL     1       0.812   5.166  20.763  0.00  0.00    +0.000 F 
ATOM     26  C   UNL     1       2.654   4.770  19.285  0.00  0.00    +0.000 A 
BRANCH  20  30
ATOM     27  C   UNL     1       6.660   4.850  16.018  0.00  0.00    +0.000 A 
ATOM     28  N   UNL     1       5.500   4.586  15.410  0.00  0.00    +0.000 NA
ATOM     29  C   UNL     1       4.469   4.261  16.224  0.00  0.00    +0.000 A 
ATOM     30  C   UNL     1       4.532   4.157  17.611  0.00  0.00    +0.000 A 
ATOM     31  C   UNL     1       5.817   4.367  18.079  0.00  0.00    +0.000 A 
ATOM     32  N   UNL     1       6.882   4.734  17.332  0.00  0.00    +0.000 NA
BRANCH  27  34
ATOM     33  C   UNL     1       7.372   5.003  13.827  0.00  0.00    +0.000 C 
ATOM     34  O   UNL     1       7.699   5.223  15.195  0.00  0.00    +0.000 OA
ENDBRANCH  27  34
ENDBRANCH  20  30
ENDBRANCH  19  26
ENDBRANCH   1  19
TORSDOF 10
ENDMDL
MODEL 8
REMARK VINA RESULT:      -8.3      1.825      2.315
REMARK  Name = 
REMARK  11 active torsions:
REMARK  status: ('A' for Active; 'I' for Inactive)
REMARK    1  A    between atoms: C_1  and  O_2
REMARK    2  A    between atoms: O_2  and  C_3
REMARK    3  A    between atoms: C_6  and  C_7
REMARK    4  A    between atoms: C_13  and  C_14
REMARK    5  A    between atoms: C_14  and  C_15
REMARK    6  A    between atoms: C_15  and  N_16
REMARK    7  A    between atoms: C_17  and  C_19
REMARK    8  A    between atoms: C_22  and  O_23
REMARK    9  A    between atoms: O_23  and  C_24
REMARK   10  A    between atoms: C_24  and  C_25
REMARK   11  A    between atoms: C_25  and  C_26
REMARK                            x       y       z     vdW  Elec       q    Type
REMARK                         _______ _______ _______ _____ _____    ______ ____
ROOT
ATOM      1  C   UNL     1       2.170   7.338  19.156  0.00  0.00    +0.000 C 
ENDROOT
BRANCH   1   2
ATOM      2  N   UNL     1       1.636   8.349  20.059  0.00  0.00    +0.000 N 
ATOM      3  C   UNL     1       0.951   9.435  19.565  0.00  0.00    +0.000 C 
ATOM      4  O   UNL     1       0.774   9.637  18.367  0.00  0.00    +0.000 OA
ATOM      5  H   UNL     1       1.675   8.172  21.054  0.00  0.00    +0.000 HD
BRANCH   3   6
ATOM      6  C   UNL     1       0.370  10.362  20.554  0.00  0.00    +0.000 A 
ATOM      7  C   UNL     1      -0.127  11.629  20.240  0.00  0.00    +0.000 A 
ATOM      8  C   UNL     1      -0.676  12.415  21.258  0.00  0.00    +0.000 A 
ATOM      9  C   UNL     1      -0.678  11.911  22.550  0.00  0.00    +0.000 A 
ATOM     10  N   UNL     1      -0.211  10.688  22.877  0.00  0.00    +0.000 NA
ATOM     11  C   UNL     1       0.287   9.933  21.871  0.00  0.00    +0.000 A 
BRANCH   9  12
ATOM     12  O   UNL     1      -1.224  12.703  23.540  0.00  0.00    +0.000 OA
BRANCH  12  13
ATOM     13  C   UNL     1      -2.379  13.410  23.071  0.00  0.00    +0.000 C 
BRANCH  13  14
ATOM     14  C   UNL     1      -3.608  12.546  23.287  0.00  0.00    +0.000 C 
BRANCH  14  15
ATOM     15  C   UNL     1      -4.793  13.086  22.519  0.00  0.00    +0.000 C 
ATOM     16  F   UNL     1      -4.524  14.242  21.877  0.00  0.00    +0.000 F 
ATOM     17  F   UNL     1      -5.202  12.193  21.589  0.00  0.00    +0.000 F 
ATOM     18  F   UNL     1      -5.839  13.314  23.345  0.00  0.00    +0.000 F 
ENDBRANCH  14  15
ENDBRANCH  13  14
ENDBRANCH  12  13
ENDBRANCH   9  12
ENDBRANCH   3   6
ENDBRANCH   1   2
BRANCH   1  19
ATOM     19  C   UNL     1       2.534   6.056  19.916  0.00  0.00    +0.000 C 
BRANCH  19  26
ATOM     20  C   UNL     1       3.543   4.303  18.314  0.00  0.00    +0.000 A 
ATOM     21  C   UNL     1       3.424   3.023  17.713  0.00  0.00    +0.000 A 
ATOM     22  C   UNL     1       2.325   2.189  17.930  0.00  0.00    +0.000 A 
ATOM     23  C   UNL     1       1.313   2.603  18.776  0.00  0.00    +0.000 A 
ATOM     24  C   UNL     1       1.410   3.838  19.405  0.00  0.00    +0.000 A 
ATOM     25  F   UNL     1       0.404   4.168  20.227  0.00  0.00    +0.000 F 
ATOM     26  C   UNL     1       2.498   4.712  19.203  0.00  0.00    +0.000 A 
BRANCH  20  30
ATOM     27  C   UNL     1       6.816   6.776  17.254  0.00  0.00    +0.000 A 
ATOM     28  N   UNL     1       5.767   6.747  16.427  0.00  0.00    +0.000 NA
ATOM     29  C   UNL     1       4.745   5.942  16.800  0.00  0.00    +0.000 A 
ATOM     30  C   UNL     1       4.718   5.140  17.938  0.00  0.00    +0.000 A 
ATOM     31  C   UNL     1       5.909   5.209  18.638  0.00  0.00    +0.000 A 
ATOM     32  N   UNL     1       6.952   6.019  18.349  0.00  0.00    +0.000 NA
BRANCH  27  34
ATOM     33  C   UNL     1       7.942   8.711  17.817  0.00  0.00    +0.000 C 
ATOM     34  O   UNL     1       7.838   7.627  16.899  0.00  0.00    +0.000 OA
ENDBRANCH  27  34
ENDBRANCH  20  30
ENDBRANCH  19  26
ENDBRANCH   1  19
TORSDOF 10
ENDMDL
MODEL 9
REMARK VINA RESULT:      -8.3      1.841      2.320
REMARK  Name = 
REMARK  11 active torsions:
REMARK  status: ('A' for Active; 'I' for Inactive)
REMARK    1  A    between atoms: C_1  and  O_2
REMARK    2  A    between atoms: O_2  and  C_3
REMARK    3  A    between atoms: C_6  and  C_7
REMARK    4  A    between atoms: C_13  and  C_14
REMARK    5  A    between atoms: C_14  and  C_15
REMARK    6  A    between atoms: C_15  and  N_16
REMARK    7  A    between atoms: C_17  and  C_19
REMARK    8  A    between atoms: C_22  and  O_23
REMARK    9  A    between atoms: O_23  and  C_24
REMARK   10  A    between atoms: C_24  and  C_25
REMARK   11  A    between atoms: C_25  and  C_26
REMARK                            x       y       z     vdW  Elec       q    Type
REMARK                         _______ _______ _______ _____ _____    ______ ____
ROOT
ATOM      1  C   UNL     1       2.274   7.219  19.445  0.00  0.00    +0.000 C 
ENDROOT
BRANCH   1   2
ATOM      2  N   UNL     1       1.578   8.110  20.361  0.00  0.00    +0.000 N 
ATOM      3  C   UNL     1       1.050   9.300  19.914  0.00  0.00    +0.000 C 
ATOM      4  O   UNL     1       1.153   9.694  18.756  0.00  0.00    +0.000 OA
ATOM      5  H   UNL     1       1.387   7.782  21.298  0.00  0.00    +0.000 HD
BRANCH   3   6
ATOM      6  C   UNL     1       0.287  10.099  20.890  0.00  0.00    +0.000 A 
ATOM      7  C   UNL     1      -0.142   9.616  22.129  0.00  0.00    +0.000 A 
ATOM      8  C   UNL     1      -0.842  10.471  22.986  0.00  0.00    +0.000 A 
ATOM      9  C   UNL     1      -1.106  11.763  22.556  0.00  0.00    +0.000 A 
ATOM     10  N   UNL     1      -0.695  12.254  21.368  0.00  0.00    +0.000 NA
ATOM     11  C   UNL     1       0.006  11.418  20.568  0.00  0.00    +0.000 A 
BRANCH   9  12
ATOM     12  O   UNL     1      -1.798  12.591  23.417  0.00  0.00    +0.000 OA
BRANCH  12  13
ATOM     13  C   UNL     1      -3.109  12.082  23.696  0.00  0.00    +0.000 C 
BRANCH  13  14
ATOM     14  C   UNL     1      -4.100  13.231  23.668  0.00  0.00    +0.000 C 
BRANCH  14  15
ATOM     15  C   UNL     1      -4.700  13.397  22.290  0.00  0.00    +0.000 C 
ATOM     16  F   UNL     1      -4.411  14.589  21.729  0.00  0.00    +0.000 F 
ATOM     17  F   UNL     1      -4.241  12.436  21.455  0.00  0.00    +0.000 F 
ATOM     18  F   UNL     1      -6.045  13.283  22.334  0.00  0.00    +0.000 F 
ENDBRANCH  14  15
ENDBRANCH  13  14
ENDBRANCH  12  13
ENDBRANCH   9  12
ENDBRANCH   3   6
ENDBRANCH   1   2
BRANCH   1  19
ATOM     19  C   UNL     1       2.548   5.858  20.098  0.00  0.00    +0.000 C 
BRANCH  19  26
ATOM     20  C   UNL     1       3.469   4.279  18.278  0.00  0.00    +0.000 A 
ATOM     21  C   UNL     1       3.326   3.059  17.568  0.00  0.00    +0.000 A 
ATOM     22  C   UNL     1       2.253   2.189  17.776  0.00  0.00    +0.000 A 
ATOM     23  C   UNL     1       1.294   2.505  18.721  0.00  0.00    +0.000 A 
ATOM     24  C   UNL     1       1.419   3.678  19.456  0.00  0.00    +0.000 A 
ATOM     25  F   UNL     1       0.465   3.912  20.368  0.00  0.00    +0.000 F 
ATOM     26  C   UNL     1       2.481   4.586  19.266  0.00  0.00    +0.000 A 
BRANCH  20  30
ATOM     27  C   UNL     1       6.772   6.713  17.218  0.00  0.00    +0.000 A 
ATOM     28  N   UNL     1       6.833   6.057  18.380  0.00  0.00    +0.000 NA
ATOM     29  C   UNL     1       5.756   5.294  18.683  0.00  0.00    +0.000 A 
ATOM     30  C   UNL     1       4.607   5.168  17.907  0.00  0.00    +0.000 A 
ATOM     31  C   UNL     1       4.658   5.979  16.787  0.00  0.00    +0.000 A 
ATOM     32  N   UNL     1       5.712   6.731  16.401  0.00  0.00    +0.000 NA
BRANCH  27  34
ATOM     33  C   UNL     1       8.105   8.493  17.835  0.00  0.00    +0.000 C 
ATOM     34  O   UNL     1       7.883   7.454  16.887  0.00  0.00    +0.000 OA
ENDBRANCH  27  34
ENDBRANCH  20  30
ENDBRANCH  19  26
ENDBRANCH   1  19
TORSDOF 10
ENDMDL
