MODEL 1
REMARK VINA RESULT:      -7.6      0.000      0.000
REMARK  Name = 
REMARK  10 active torsions:
REMARK  status: ('A' for Active; 'I' for Inactive)
REMARK    1  A    between atoms: C_1  and  C_2
REMARK    2  A    between atoms: N_4  and  C_5
REMARK    3  A    between atoms: C_5  and  C_6
REMARK    4  A    between atoms: C_10  and  C_11
REMARK    5  A    between atoms: C_11  and  N_12
REMARK    6  A    between atoms: N_15  and  C_16
REMARK    7  A    between atoms: C_21  and  O_22
REMARK    8  A    between atoms: O_22  and  C_23
REMARK    9  A    between atoms: C_23  and  C_24
REMARK   10  A    between atoms: C_23  and  C_25
REMARK                            x       y       z     vdW  Elec       q    Type
REMARK                         _______ _______ _______ _____ _____    ______ ____
ROOT
ATOM      1  N   UNL     1       2.126   7.639  18.118  0.00  0.00    +0.000 NA
ATOM      2  C   UNL     1       1.647   7.298  19.480  0.00  0.00    +0.000 C 
ATOM      3  C   UNL     1       1.401   8.461  20.482  0.00  0.00    +0.000 C 
ATOM      4  N   UNL     1       0.592   9.515  19.856  0.00  0.00    +0.000 N 
ATOM      5  C   UNL     1       1.221  10.037  18.623  0.00  0.00    +0.000 C 
ATOM      6  C   UNL     1       1.465   8.865  17.621  0.00  0.00    +0.000 C 
ENDROOT
BRANCH   4   7
ATOM      7  C   UNL     1      -0.146  10.403  20.656  0.00  0.00    +0.000 A 
ATOM      8  C   UNL     1      -0.071  10.329  22.064  0.00  0.00    +0.000 A 
ATOM      9  C   UNL     1      -0.804  11.177  22.912  0.00  0.00    +0.000 A 
ATOM     10  C   UNL     1      -1.629  12.154  22.375  0.00  0.00    +0.000 A 
ATOM     11  C   UNL     1      -1.732  12.260  20.991  0.00  0.00    +0.000 A 
ATOM     12  C   UNL     1      -1.045  11.371  20.135  0.00  0.00    +0.000 A 
BRANCH  12  13
ATOM     13  O   UNL     1      -1.416  11.545  18.816  0.00  0.00    +0.000 OA
BRANCH  13  14
ATOM     14  C   UNL     1      -2.507  10.759  18.333  0.00  0.00    +0.000 C 
ATOM     15  C   UNL     1      -3.779  11.553  18.067  0.00  0.00    +0.000 C 
ATOM     16  C   UNL     1      -2.043  10.003  17.091  0.00  0.00    +0.000 C 
ENDBRANCH  13  14
ENDBRANCH  12  13
ENDBRANCH   4   7
BRANCH   1  17
ATOM     17  C   UNL     1       3.590   7.631  18.057  0.00  0.00    +0.000 C 
BRANCH  17  22
ATOM     18  C   UNL     1       4.345   4.032  17.102  0.00  0.00    +0.000 A 
ATOM     19  C   UNL     1       5.317   4.177  16.101  0.00  0.00    +0.000 A 
ATOM     20  C   UNL     1       5.732   5.458  15.712  0.00  0.00    +0.000 A 
ATOM     21  C   UNL     1       5.193   6.600  16.324  0.00  0.00    +0.000 A 
ATOM     22  C   UNL     1       4.210   6.467  17.309  0.00  0.00    +0.000 A 
ATOM     23  C   UNL     1       3.786   5.182  17.664  0.00  0.00    +0.000 A 
BRANCH  18  24
ATOM     24  C   UNL     1       3.907   2.697  17.636  0.00  0.00    +0.000 C 
BRANCH  24  28
ATOM     25  C   UNL     1       2.733   2.712  21.233  0.00  0.00    +0.000 C 
ATOM     26  C   UNL     1       3.698   2.532  20.094  0.00  0.00    +0.000 C 
ATOM     27  O   UNL     1       4.853   2.149  20.279  0.00  0.00    +0.000 OA
ATOM     28  N   UNL     1       3.154   2.805  18.864  0.00  0.00    +0.000 N 
ATOM     29  H   UNL     1       2.202   3.138  18.806  0.00  0.00    +0.000 HD
ENDBRANCH  24  28
ENDBRANCH  18  24
ENDBRANCH  17  22
ENDBRANCH   1  17
TORSDOF 7
ENDMDL
MODEL 2
REMARK VINA RESULT:      -7.5      1.025      1.316
REMARK  Name = 
REMARK  10 active torsions:
REMARK  status: ('A' for Active; 'I' for Inactive)
REMARK    1  A    between atoms: C_1  and  C_2
REMARK    2  A    between atoms: N_4  and  C_5
REMARK    3  A    between atoms: C_5  and  C_6
REMARK    4  A    between atoms: C_10  and  C_11
REMARK    5  A    between atoms: C_11  and  N_12
REMARK    6  A    between atoms: N_15  and  C_16
REMARK    7  A    between atoms: C_21  and  O_22
REMARK    8  A    between atoms: O_22  and  C_23
REMARK    9  A    between atoms: C_23  and  C_24
REMARK   10  A    between atoms: C_23  and  C_25
REMARK                            x       y       z     vdW  Elec       q    Type
REMARK                         _______ _______ _______ _____ _____    ______ ____
ROOT
ATOM      1  N   UNL     1       2.243   7.490  18.071  0.00  0.00    +0.000 NA
ATOM      2  C   UNL     1       1.957   7.066  19.465  0.00  0.00    +0.000 C 
ATOM      3  C   UNL     1       1.816   8.169  20.551  0.00  0.00    +0.000 C 
ATOM      4  N   UNL     1       0.905   9.226  20.095  0.00  0.00    +0.000 N 
ATOM      5  C   UNL     1       1.352   9.830  18.819  0.00  0.00    +0.000 C 
ATOM      6  C   UNL     1       1.491   8.717  17.732  0.00  0.00    +0.000 C 
ENDROOT
BRANCH   4   7
ATOM      7  C   UNL     1       0.257  10.048  21.030  0.00  0.00    +0.000 A 
ATOM      8  C   UNL     1      -0.294   9.497  22.207  0.00  0.00    +0.000 A 
ATOM      9  C   UNL     1      -0.972  10.269  23.166  0.00  0.00    +0.000 A 
ATOM     10  C   UNL     1      -1.104  11.638  22.991  0.00  0.00    +0.000 A 
ATOM     11  C   UNL     1      -0.575  12.222  21.843  0.00  0.00    +0.000 A 
ATOM     12  C   UNL     1       0.054  11.442  20.848  0.00  0.00    +0.000 A 
BRANCH  12  13
ATOM     13  O   UNL     1       0.354  12.192  19.728  0.00  0.00    +0.000 OA
BRANCH  13  14
ATOM     14  C   UNL     1      -0.692  12.997  19.178  0.00  0.00    +0.000 C 
ATOM     15  C   UNL     1      -0.229  14.353  18.660  0.00  0.00    +0.000 C 
ATOM     16  C   UNL     1      -1.401  12.190  18.096  0.00  0.00    +0.000 C 
ENDBRANCH  13  14
ENDBRANCH  12  13
ENDBRANCH   4   7
BRANCH   1  17
ATOM     17  C   UNL     1       3.685   7.533  17.819  0.00  0.00    +0.000 C 
BRANCH  17  22
ATOM     18  C   UNL     1       4.314   3.866  17.047  0.00  0.00    +0.000 A 
ATOM     19  C   UNL     1       5.301   3.926  16.053  0.00  0.00    +0.000 A 
ATOM     20  C   UNL     1       5.769   5.171  15.608  0.00  0.00    +0.000 A 
ATOM     21  C   UNL     1       5.267   6.360  16.158  0.00  0.00    +0.000 A 
ATOM     22  C   UNL     1       4.269   6.312  17.136  0.00  0.00    +0.000 A 
ATOM     23  C   UNL     1       3.793   5.062  17.546  0.00  0.00    +0.000 A 
BRANCH  18  24
ATOM     24  C   UNL     1       3.820   2.576  17.639  0.00  0.00    +0.000 C 
BRANCH  24  28
ATOM     25  C   UNL     1       2.764   2.790  21.267  0.00  0.00    +0.000 C 
ATOM     26  C   UNL     1       3.685   2.523  20.107  0.00  0.00    +0.000 C 
ATOM     27  O   UNL     1       4.829   2.102  20.273  0.00  0.00    +0.000 OA
ATOM     28  N   UNL     1       3.112   2.766  18.884  0.00  0.00    +0.000 N 
ATOM     29  H   UNL     1       2.173   3.133  18.840  0.00  0.00    +0.000 HD
ENDBRANCH  24  28
ENDBRANCH  18  24
ENDBRANCH  17  22
ENDBRANCH   1  17
TORSDOF 7
ENDMDL
MODEL 3
REMARK VINA RESULT:      -7.4      2.035      9.014
REMARK  Name = 
REMARK  10 active torsions:
REMARK  status: ('A' for Active; 'I' for Inactive)
REMARK    1  A    between atoms: C_1  and  C_2
REMARK    2  A    between atoms: N_4  and  C_5
REMARK    3  A    between atoms: C_5  and  C_6
REMARK    4  A    between atoms: C_10  and  C_11
REMARK    5  A    between atoms: C_11  and  N_12
REMARK    6  A    between atoms: N_15  and  C_16
REMARK    7  A    between atoms: C_21  and  O_22
REMARK    8  A    between atoms: O_22  and  C_23
REMARK    9  A    between atoms: C_23  and  C_24
REMARK   10  A    between atoms: C_23  and  C_25
REMARK                            x       y       z     vdW  Elec       q    Type
REMARK                         _______ _______ _______ _____ _____    ______ ____
ROOT
ATOM      1  N   UNL     1       0.570   9.611  19.696  0.00  0.00    +0.000 NA
ATOM      2  C   UNL     1       0.920   9.574  18.254  0.00  0.00    +0.000 C 
ATOM      3  C   UNL     1       2.245   8.874  17.840  0.00  0.00    +0.000 C 
ATOM      4  N   UNL     1       2.345   7.551  18.469  0.00  0.00    +0.000 N 
ATOM      5  C   UNL     1       2.258   7.632  19.944  0.00  0.00    +0.000 C 
ATOM      6  C   UNL     1       0.925   8.335  20.354  0.00  0.00    +0.000 C 
ENDROOT
BRANCH   4   7
ATOM      7  C   UNL     1       3.166   6.563  17.903  0.00  0.00    +0.000 A 
ATOM      8  C   UNL     1       4.402   6.911  17.314  0.00  0.00    +0.000 A 
ATOM      9  C   UNL     1       5.252   5.967  16.714  0.00  0.00    +0.000 A 
ATOM     10  C   UNL     1       4.904   4.625  16.701  0.00  0.00    +0.000 A 
ATOM     11  C   UNL     1       3.694   4.240  17.270  0.00  0.00    +0.000 A 
ATOM     12  C   UNL     1       2.808   5.192  17.821  0.00  0.00    +0.000 A 
BRANCH  12  13
ATOM     13  O   UNL     1       1.603   4.619  18.177  0.00  0.00    +0.000 OA
BRANCH  13  14
ATOM     14  C   UNL     1       1.618   3.673  19.249  0.00  0.00    +0.000 C 
ATOM     15  C   UNL     1       1.141   4.233  20.583  0.00  0.00    +0.000 C 
ATOM     16  C   UNL     1       0.807   2.452  18.826  0.00  0.00    +0.000 C 
ENDBRANCH  13  14
ENDBRANCH  12  13
ENDBRANCH   4   7
BRANCH   1  17
ATOM     17  C   UNL     1       1.086  10.826  20.332  0.00  0.00    +0.000 C 
BRANCH  17  22
ATOM     18  C   UNL     1      -2.253  12.639  20.324  0.00  0.00    +0.000 A 
ATOM     19  C   UNL     1      -1.974  13.800  21.060  0.00  0.00    +0.000 A 
ATOM     20  C   UNL     1      -0.688  14.003  21.583  0.00  0.00    +0.000 A 
ATOM     21  C   UNL     1       0.327  13.059  21.367  0.00  0.00    +0.000 A 
ATOM     22  C   UNL     1       0.055  11.889  20.652  0.00  0.00    +0.000 A 
ATOM     23  C   UNL     1      -1.240  11.689  20.163  0.00  0.00    +0.000 A 
BRANCH  18  24
ATOM     24  C   UNL     1      -3.576  12.384  19.659  0.00  0.00    +0.000 C 
BRANCH  24  28
ATOM     25  C   UNL     1      -4.099  11.038  16.161  0.00  0.00    +0.000 C 
ATOM     26  C   UNL     1      -4.464  11.388  17.578  0.00  0.00    +0.000 C 
ATOM     27  O   UNL     1      -5.577  11.139  18.039  0.00  0.00    +0.000 OA
ATOM     28  N   UNL     1      -3.439  11.970  18.282  0.00  0.00    +0.000 N 
ATOM     29  H   UNL     1      -2.564  12.159  17.817  0.00  0.00    +0.000 HD
ENDBRANCH  24  28
ENDBRANCH  18  24
ENDBRANCH  17  22
ENDBRANCH   1  17
TORSDOF 7
ENDMDL
MODEL 4
REMARK VINA RESULT:      -7.4      2.169      3.361
REMARK  Name = 
REMARK  10 active torsions:
REMARK  status: ('A' for Active; 'I' for Inactive)
REMARK    1  A    between atoms: C_1  and  C_2
REMARK    2  A    between atoms: N_4  and  C_5
REMARK    3  A    between atoms: C_5  and  C_6
REMARK    4  A    between atoms: C_10  and  C_11
REMARK    5  A    between atoms: C_11  and  N_12
REMARK    6  A    between atoms: N_15  and  C_16
REMARK    7  A    between atoms: C_21  and  O_22
REMARK    8  A    between atoms: O_22  and  C_23
REMARK    9  A    between atoms: C_23  and  C_24
REMARK   10  A    between atoms: C_23  and  C_25
REMARK                            x       y       z     vdW  Elec       q    Type
REMARK                         _______ _______ _______ _____ _____    ______ ____
ROOT
ATOM      1  N   UNL     1       2.281   6.956  19.661  0.00  0.00    +0.000 NA
ATOM      2  C   UNL     1       2.465   7.680  18.379  0.00  0.00    +0.000 C 
ATOM      3  C   UNL     1       1.436   8.787  18.010  0.00  0.00    +0.000 C 
ATOM      4  N   UNL     1       1.239   9.702  19.141  0.00  0.00    +0.000 N 
ATOM      5  C   UNL     1       0.796   8.988  20.359  0.00  0.00    +0.000 C 
ATOM      6  C   UNL     1       1.832   7.879  20.725  0.00  0.00    +0.000 C 
ENDROOT
BRANCH   4   7
ATOM      7  C   UNL     1       0.759  11.002  18.918  0.00  0.00    +0.000 A 
ATOM      8  C   UNL     1       1.585  12.122  19.160  0.00  0.00    +0.000 A 
ATOM      9  C   UNL     1       1.149  13.445  18.975  0.00  0.00    +0.000 A 
ATOM     10  C   UNL     1      -0.135  13.697  18.514  0.00  0.00    +0.000 A 
ATOM     11  C   UNL     1      -0.982  12.621  18.264  0.00  0.00    +0.000 A 
ATOM     12  C   UNL     1      -0.569  11.292  18.506  0.00  0.00    +0.000 A 
BRANCH  12  13
ATOM     13  O   UNL     1      -1.611  10.399  18.351  0.00  0.00    +0.000 OA
BRANCH  13  14
ATOM     14  C   UNL     1      -2.583  10.695  17.346  0.00  0.00    +0.000 C 
ATOM     15  C   UNL     1      -2.396   9.917  16.049  0.00  0.00    +0.000 C 
ATOM     16  C   UNL     1      -3.972  10.478  17.940  0.00  0.00    +0.000 C 
ENDBRANCH  13  14
ENDBRANCH  12  13
ENDBRANCH   4   7
BRANCH   1  17
ATOM     17  C   UNL     1       1.470   5.751  19.474  0.00  0.00    +0.000 C 
BRANCH  17  22
ATOM     18  C   UNL     1       4.138   3.860  17.539  0.00  0.00    +0.000 A 
ATOM     19  C   UNL     1       3.575   2.582  17.408  0.00  0.00    +0.000 A 
ATOM     20  C   UNL     1       2.316   2.314  17.963  0.00  0.00    +0.000 A 
ATOM     21  C   UNL     1       1.606   3.317  18.640  0.00  0.00    +0.000 A 
ATOM     22  C   UNL     1       2.166   4.589  18.793  0.00  0.00    +0.000 A 
ATOM     23  C   UNL     1       3.436   4.830  18.260  0.00  0.00    +0.000 A 
BRANCH  18  24
ATOM     24  C   UNL     1       5.441   4.255  16.903  0.00  0.00    +0.000 C 
BRANCH  24  28
ATOM     25  C   UNL     1       7.991   6.338  18.768  0.00  0.00    +0.000 C 
ATOM     26  C   UNL     1       7.468   5.160  17.992  0.00  0.00    +0.000 C 
ATOM     27  O   UNL     1       8.179   4.192  17.729  0.00  0.00    +0.000 OA
ATOM     28  N   UNL     1       6.143   5.273  17.650  0.00  0.00    +0.000 N 
ATOM     29  H   UNL     1       5.640   6.115  17.886  0.00  0.00    +0.000 HD
ENDBRANCH  24  28
ENDBRANCH  18  24
ENDBRANCH  17  22
ENDBRANCH   1  17
TORSDOF 7
ENDMDL
MODEL 5
REMARK VINA RESULT:      -7.3      2.133      3.320
REMARK  Name = 
REMARK  10 active torsions:
REMARK  status: ('A' for Active; 'I' for Inactive)
REMARK    1  A    between atoms: C_1  and  C_2
REMARK    2  A    between atoms: N_4  and  C_5
REMARK    3  A    between atoms: C_5  and  C_6
REMARK    4  A    between atoms: C_10  and  C_11
REMARK    5  A    between atoms: C_11  and  N_12
REMARK    6  A    between atoms: N_15  and  C_16
REMARK    7  A    between atoms: C_21  and  O_22
REMARK    8  A    between atoms: O_22  and  C_23
REMARK    9  A    between atoms: C_23  and  C_24
REMARK   10  A    between atoms: C_23  and  C_25
REMARK                            x       y       z     vdW  Elec       q    Type
REMARK                         _______ _______ _______ _____ _____    ______ ____
ROOT
ATOM      1  N   UNL     1       2.351   7.900  18.855  0.00  0.00    +0.000 NA
ATOM      2  C   UNL     1       1.988   9.053  17.993  0.00  0.00    +0.000 C 
ATOM      3  C   UNL     1       0.581   9.689  18.175  0.00  0.00    +0.000 C 
ATOM      4  N   UNL     1       0.317   9.952  19.595  0.00  0.00    +0.000 N 
ATOM      5  C   UNL     1       0.425   8.725  20.416  0.00  0.00    +0.000 C 
ATOM      6  C   UNL     1       1.840   8.092  20.229  0.00  0.00    +0.000 C 
ENDROOT
BRANCH   4   7
ATOM      7  C   UNL     1      -0.629  10.921  19.966  0.00  0.00    +0.000 A 
ATOM      8  C   UNL     1      -0.838  11.234  21.328  0.00  0.00    +0.000 A 
ATOM      9  C   UNL     1      -1.786  12.178  21.756  0.00  0.00    +0.000 A 
ATOM     10  C   UNL     1      -2.551  12.867  20.827  0.00  0.00    +0.000 A 
ATOM     11  C   UNL     1      -2.377  12.588  19.475  0.00  0.00    +0.000 A 
ATOM     12  C   UNL     1      -1.469  11.597  19.042  0.00  0.00    +0.000 A 
BRANCH  12  13
ATOM     13  O   UNL     1      -1.575  11.368  17.684  0.00  0.00    +0.000 OA
BRANCH  13  14
ATOM     14  C   UNL     1      -2.857  10.984  17.182  0.00  0.00    +0.000 C 
ATOM     15  C   UNL     1      -2.984  11.069  15.666  0.00  0.00    +0.000 C 
ATOM     16  C   UNL     1      -3.177   9.585  17.699  0.00  0.00    +0.000 C 
ENDBRANCH  13  14
ENDBRANCH  12  13
ENDBRANCH   4   7
BRANCH   1  17
ATOM     17  C   UNL     1       2.000   6.631  18.212  0.00  0.00    +0.000 C 
BRANCH  17  22
ATOM     18  C   UNL     1       5.110   4.490  18.638  0.00  0.00    +0.000 A 
ATOM     19  C   UNL     1       4.593   3.299  19.167  0.00  0.00    +0.000 A 
ATOM     20  C   UNL     1       3.216   3.181  19.407  0.00  0.00    +0.000 A 
ATOM     21  C   UNL     1       2.347   4.242  19.109  0.00  0.00    +0.000 A 
ATOM     22  C   UNL     1       2.854   5.440  18.600  0.00  0.00    +0.000 A 
ATOM     23  C   UNL     1       4.233   5.551  18.395  0.00  0.00    +0.000 A 
BRANCH  18  24
ATOM     24  C   UNL     1       6.557   4.668  18.273  0.00  0.00    +0.000 C 
BRANCH  24  28
ATOM     25  C   UNL     1       7.846   8.178  17.688  0.00  0.00    +0.000 C 
ATOM     26  C   UNL     1       7.431   6.778  17.325  0.00  0.00    +0.000 C 
ATOM     27  O   UNL     1       7.508   6.359  16.171  0.00  0.00    +0.000 OA
ATOM     28  N   UNL     1       7.001   6.037  18.398  0.00  0.00    +0.000 N 
ATOM     29  H   UNL     1       6.948   6.469  19.309  0.00  0.00    +0.000 HD
ENDBRANCH  24  28
ENDBRANCH  18  24
ENDBRANCH  17  22
ENDBRANCH   1  17
TORSDOF 7
ENDMDL
MODEL 6
REMARK VINA RESULT:      -7.3      2.383      3.803
REMARK  Name = 
REMARK  10 active torsions:
REMARK  status: ('A' for Active; 'I' for Inactive)
REMARK    1  A    between atoms: C_1  and  C_2
REMARK    2  A    between atoms: N_4  and  C_5
REMARK    3  A    between atoms: C_5  and  C_6
REMARK    4  A    between atoms: C_10  and  C_11
REMARK    5  A    between atoms: C_11  and  N_12
REMARK    6  A    between atoms: N_15  and  C_16
REMARK    7  A    between atoms: C_21  and  O_22
REMARK    8  A    between atoms: O_22  and  C_23
REMARK    9  A    between atoms: C_23  and  C_24
REMARK   10  A    between atoms: C_23  and  C_25
REMARK                            x       y       z     vdW  Elec       q    Type
REMARK                         _______ _______ _______ _____ _____    ______ ____
ROOT
ATOM      1  N   UNL     1       2.335   7.754  18.725  0.00  0.00    +0.000 NA
ATOM      2  C   UNL     1       1.985   9.126  18.280  0.00  0.00    +0.000 C 
ATOM      3  C   UNL     1       0.770   9.826  18.951  0.00  0.00    +0.000 C 
ATOM      4  N   UNL     1       0.861   9.722  20.413  0.00  0.00    +0.000 N 
ATOM      5  C   UNL     1       0.944   8.315  20.864  0.00  0.00    +0.000 C 
ATOM      6  C   UNL     1       2.167   7.618  20.188  0.00  0.00    +0.000 C 
ENDROOT
BRANCH   4   7
ATOM      7  C   UNL     1       0.184  10.645  21.227  0.00  0.00    +0.000 A 
ATOM      8  C   UNL     1      -0.575  10.202  22.333  0.00  0.00    +0.000 A 
ATOM      9  C   UNL     1      -1.290  11.079  23.166  0.00  0.00    +0.000 A 
ATOM     10  C   UNL     1      -1.253  12.445  22.934  0.00  0.00    +0.000 A 
ATOM     11  C   UNL     1      -0.518  12.923  21.854  0.00  0.00    +0.000 A 
ATOM     12  C   UNL     1       0.153  12.042  20.977  0.00  0.00    +0.000 A 
BRANCH  12  13
ATOM     13  O   UNL     1       0.677  12.710  19.887  0.00  0.00    +0.000 OA
BRANCH  13  14
ATOM     14  C   UNL     1       1.429  13.898  20.146  0.00  0.00    +0.000 C 
ATOM     15  C   UNL     1       2.788  13.648  20.787  0.00  0.00    +0.000 C 
ATOM     16  C   UNL     1       1.554  14.681  18.843  0.00  0.00    +0.000 C 
ENDBRANCH  13  14
ENDBRANCH  12  13
ENDBRANCH   4   7
BRANCH   1  17
ATOM     17  C   UNL     1       1.656   6.746  17.906  0.00  0.00    +0.000 C 
BRANCH  17  22
ATOM     18  C   UNL     1       4.371   4.110  17.564  0.00  0.00    +0.000 A 
ATOM     19  C   UNL     1       3.659   2.913  17.722  0.00  0.00    +0.000 A 
ATOM     20  C   UNL     1       2.277   2.949  17.956  0.00  0.00    +0.000 A 
ATOM     21  C   UNL     1       1.596   4.173  18.023  0.00  0.00    +0.000 A 
ATOM     22  C   UNL     1       2.300   5.374  17.887  0.00  0.00    +0.000 A 
ATOM     23  C   UNL     1       3.682   5.320  17.683  0.00  0.00    +0.000 A 
BRANCH  18  24
ATOM     24  C   UNL     1       5.835   4.159  17.227  0.00  0.00    +0.000 C 
BRANCH  24  28
ATOM     25  C   UNL     1       6.415   3.910  13.496  0.00  0.00    +0.000 C 
ATOM     26  C   UNL     1       6.096   4.579  14.804  0.00  0.00    +0.000 C 
ATOM     27  O   UNL     1       5.823   5.777  14.869  0.00  0.00    +0.000 OA
ATOM     28  N   UNL     1       6.113   3.724  15.877  0.00  0.00    +0.000 N 
ATOM     29  H   UNL     1       6.371   2.758  15.737  0.00  0.00    +0.000 HD
ENDBRANCH  24  28
ENDBRANCH  18  24
ENDBRANCH  17  22
ENDBRANCH   1  17
TORSDOF 7
ENDMDL
MODEL 7
REMARK VINA RESULT:      -7.2      2.614      3.939
REMARK  Name = 
REMARK  10 active torsions:
REMARK  status: ('A' for Active; 'I' for Inactive)
REMARK    1  A    between atoms: C_1  and  C_2
REMARK    2  A    between atoms: N_4  and  C_5
REMARK    3  A    between atoms: C_5  and  C_6
REMARK    4  A    between atoms: C_10  and  C_11
REMARK    5  A    between atoms: C_11  and  N_12
REMARK    6  A    between atoms: N_15  and  C_16
REMARK    7  A    between atoms: C_21  and  O_22
REMARK    8  A    between atoms: O_22  and  C_23
REMARK    9  A    between atoms: C_23  and  C_24
REMARK   10  A    between atoms: C_23  and  C_25
REMARK                            x       y       z     vdW  Elec       q    Type
REMARK                         _______ _______ _______ _____ _____    ______ ____
ROOT
ATOM      1  N   UNL     1       2.346   7.782  18.775  0.00  0.00    +0.000 NA
ATOM      2  C   UNL     1       2.258   9.102  18.102  0.00  0.00    +0.000 C 
ATOM      3  C   UNL     1       1.085  10.046  18.494  0.00  0.00    +0.000 C 
ATOM      4  N   UNL     1       0.984  10.160  19.954  0.00  0.00    +0.000 N 
ATOM      5  C   UNL     1       0.805   8.841  20.601  0.00  0.00    +0.000 C 
ATOM      6  C   UNL     1       1.985   7.897  20.205  0.00  0.00    +0.000 C 
ENDROOT
BRANCH   4   7
ATOM      7  C   UNL     1       0.355  11.275  20.530  0.00  0.00    +0.000 A 
ATOM      8  C   UNL     1      -1.023  11.242  20.837  0.00  0.00    +0.000 A 
ATOM      9  C   UNL     1      -1.707  12.336  21.394  0.00  0.00    +0.000 A 
ATOM     10  C   UNL     1      -1.024  13.507  21.687  0.00  0.00    +0.000 A 
ATOM     11  C   UNL     1       0.335  13.582  21.399  0.00  0.00    +0.000 A 
ATOM     12  C   UNL     1       1.014  12.507  20.784  0.00  0.00    +0.000 A 
BRANCH  12  13
ATOM     13  O   UNL     1       2.306  12.852  20.439  0.00  0.00    +0.000 OA
BRANCH  13  14
ATOM     14  C   UNL     1       2.476  13.980  19.578  0.00  0.00    +0.000 C 
ATOM     15  C   UNL     1       3.710  14.820  19.884  0.00  0.00    +0.000 C 
ATOM     16  C   UNL     1       2.470  13.488  18.134  0.00  0.00    +0.000 C 
ENDBRANCH  13  14
ENDBRANCH  12  13
ENDBRANCH   4   7
BRANCH   1  17
ATOM     17  C   UNL     1       1.631   6.754  18.015  0.00  0.00    +0.000 C 
BRANCH  17  22
ATOM     18  C   UNL     1       4.477   4.254  17.717  0.00  0.00    +0.000 A 
ATOM     19  C   UNL     1       3.801   3.030  17.615  0.00  0.00    +0.000 A 
ATOM     20  C   UNL     1       2.399   3.001  17.655  0.00  0.00    +0.000 A 
ATOM     21  C   UNL     1       1.664   4.189  17.784  0.00  0.00    +0.000 A 
ATOM     22  C   UNL     1       2.329   5.413  17.907  0.00  0.00    +0.000 A 
ATOM     23  C   UNL     1       3.727   5.420  17.895  0.00  0.00    +0.000 A 
BRANCH  18  24
ATOM     24  C   UNL     1       5.970   4.383  17.599  0.00  0.00    +0.000 C 
BRANCH  24  28
ATOM     25  C   UNL     1       7.599   7.798  17.610  0.00  0.00    +0.000 C 
ATOM     26  C   UNL     1       7.220   6.448  17.066  0.00  0.00    +0.000 C 
ATOM     27  O   UNL     1       7.607   6.063  15.963  0.00  0.00    +0.000 OA
ATOM     28  N   UNL     1       6.445   5.708  17.924  0.00  0.00    +0.000 N 
ATOM     29  H   UNL     1       6.154   6.111  18.802  0.00  0.00    +0.000 HD
ENDBRANCH  24  28
ENDBRANCH  18  24
ENDBRANCH  17  22
ENDBRANCH   1  17
TORSDOF 7
ENDMDL
MODEL 8
REMARK VINA RESULT:      -7.2      2.130      3.383
REMARK  Name = 
REMARK  10 active torsions:
REMARK  status: ('A' for Active; 'I' for Inactive)
REMARK    1  A    between atoms: C_1  and  C_2
REMARK    2  A    between atoms: N_4  and  C_5
REMARK    3  A    between atoms: C_5  and  C_6
REMARK    4  A    between atoms: C_10  and  C_11
REMARK    5  A    between atoms: C_11  and  N_12
REMARK    6  A    between atoms: N_15  and  C_16
REMARK    7  A    between atoms: C_21  and  O_22
REMARK    8  A    between atoms: O_22  and  C_23
REMARK    9  A    between atoms: C_23  and  C_24
REMARK   10  A    between atoms: C_23  and  C_25
REMARK                            x       y       z     vdW  Elec       q    Type
REMARK                         _______ _______ _______ _____ _____    ______ ____
ROOT
ATOM      1  N   UNL     1       2.366   7.530  18.732  0.00  0.00    +0.000 NA
ATOM      2  C   UNL     1       2.021   8.883  18.229  0.00  0.00    +0.000 C 
ATOM      3  C   UNL     1       0.793   9.605  18.852  0.00  0.00    +0.000 C 
ATOM      4  N   UNL     1       0.859   9.558  20.318  0.00  0.00    +0.000 N 
ATOM      5  C   UNL     1       0.937   8.170  20.824  0.00  0.00    +0.000 C 
ATOM      6  C   UNL     1       2.173   7.450  20.196  0.00  0.00    +0.000 C 
ENDROOT
BRANCH   4   7
ATOM      7  C   UNL     1       0.166  10.509  21.083  0.00  0.00    +0.000 A 
ATOM      8  C   UNL     1      -0.394  10.154  22.330  0.00  0.00    +0.000 A 
ATOM      9  C   UNL     1      -1.116  11.059  23.127  0.00  0.00    +0.000 A 
ATOM     10  C   UNL     1      -1.286  12.371  22.711  0.00  0.00    +0.000 A 
ATOM     11  C   UNL     1      -0.751  12.761  21.487  0.00  0.00    +0.000 A 
ATOM     12  C   UNL     1      -0.077  11.841  20.654  0.00  0.00    +0.000 A 
BRANCH  12  13
ATOM     13  O   UNL     1       0.224  12.392  19.424  0.00  0.00    +0.000 OA
BRANCH  13  14
ATOM     14  C   UNL     1       1.310  13.319  19.370  0.00  0.00    +0.000 C 
ATOM     15  C   UNL     1       2.506  12.831  18.562  0.00  0.00    +0.000 C 
ATOM     16  C   UNL     1       0.781  14.651  18.848  0.00  0.00    +0.000 C 
ENDBRANCH  13  14
ENDBRANCH  12  13
ENDBRANCH   4   7
BRANCH   1  17
ATOM     17  C   UNL     1       1.703   6.490  17.941  0.00  0.00    +0.000 C 
BRANCH  17  22
ATOM     18  C   UNL     1       4.569   4.120  17.161  0.00  0.00    +0.000 A 
ATOM     19  C   UNL     1       4.003   2.861  17.408  0.00  0.00    +0.000 A 
ATOM     20  C   UNL     1       2.675   2.767  17.847  0.00  0.00    +0.000 A 
ATOM     21  C   UNL     1       1.901   3.923  18.031  0.00  0.00    +0.000 A 
ATOM     22  C   UNL     1       2.461   5.184  17.807  0.00  0.00    +0.000 A 
ATOM     23  C   UNL     1       3.797   5.260  17.397  0.00  0.00    +0.000 A 
BRANCH  18  24
ATOM     24  C   UNL     1       5.955   4.306  16.608  0.00  0.00    +0.000 C 
BRANCH  24  28
ATOM     25  C   UNL     1       7.918   7.116  18.209  0.00  0.00    +0.000 C 
ATOM     26  C   UNL     1       7.440   5.705  18.004  0.00  0.00    +0.000 C 
ATOM     27  O   UNL     1       7.819   4.782  18.723  0.00  0.00    +0.000 OA
ATOM     28  N   UNL     1       6.539   5.575  16.976  0.00  0.00    +0.000 N 
ATOM     29  H   UNL     1       6.300   6.383  16.420  0.00  0.00    +0.000 HD
ENDBRANCH  24  28
ENDBRANCH  18  24
ENDBRANCH  17  22
ENDBRANCH   1  17
TORSDOF 7
ENDMDL
MODEL 9
REMARK VINA RESULT:      -7.2      2.594      9.406
REMARK  Name = 
REMARK  10 active torsions:
REMARK  status: ('A' for Active; 'I' for Inactive)
REMARK    1  A    between atoms: C_1  and  C_2
REMARK    2  A    between atoms: N_4  and  C_5
REMARK    3  A    between atoms: C_5  and  C_6
REMARK    4  A    between atoms: C_10  and  C_11
REMARK    5  A    between atoms: C_11  and  N_12
REMARK    6  A    between atoms: N_15  and  C_16
REMARK    7  A    between atoms: C_21  and  O_22
REMARK    8  A    between atoms: O_22  and  C_23
REMARK    9  A    between atoms: C_23  and  C_24
REMARK   10  A    between atoms: C_23  and  C_25
REMARK                            x       y       z     vdW  Elec       q    Type
REMARK                         _______ _______ _______ _____ _____    ______ ____
ROOT
ATOM      1  N   UNL     1       0.510   9.569  19.738  0.00  0.00    +0.000 NA
ATOM      2  C   UNL     1       0.875   9.562  18.299  0.00  0.00    +0.000 C 
ATOM      3  C   UNL     1       2.212   8.884  17.886  0.00  0.00    +0.000 C 
ATOM      4  N   UNL     1       2.320   7.551  18.492  0.00  0.00    +0.000 N 
ATOM      5  C   UNL     1       2.217   7.604  19.967  0.00  0.00    +0.000 C 
ATOM      6  C   UNL     1       0.873   8.285  20.376  0.00  0.00    +0.000 C 
ENDROOT
BRANCH   4   7
ATOM      7  C   UNL     1       3.159   6.583  17.916  0.00  0.00    +0.000 A 
ATOM      8  C   UNL     1       4.400   6.954  17.355  0.00  0.00    +0.000 A 
ATOM      9  C   UNL     1       5.268   6.031  16.747  0.00  0.00    +0.000 A 
ATOM     10  C   UNL     1       4.931   4.686  16.698  0.00  0.00    +0.000 A 
ATOM     11  C   UNL     1       3.715   4.279  17.239  0.00  0.00    +0.000 A 
ATOM     12  C   UNL     1       2.812   5.211  17.797  0.00  0.00    +0.000 A 
BRANCH  12  13
ATOM     13  O   UNL     1       1.607   4.621  18.121  0.00  0.00    +0.000 OA
BRANCH  13  14
ATOM     14  C   UNL     1       1.600   3.703  19.217  0.00  0.00    +0.000 C 
ATOM     15  C   UNL     1       1.067   4.290  20.518  0.00  0.00    +0.000 C 
ATOM     16  C   UNL     1       0.823   2.459  18.798  0.00  0.00    +0.000 C 
ENDBRANCH  13  14
ENDBRANCH  12  13
ENDBRANCH   4   7
BRANCH   1  17
ATOM     17  C   UNL     1       1.007  10.777  20.402  0.00  0.00    +0.000 C 
BRANCH  17  22
ATOM     18  C   UNL     1      -1.847  12.594  22.132  0.00  0.00    +0.000 A 
ATOM     19  C   UNL     1      -2.068  13.692  21.288  0.00  0.00    +0.000 A 
ATOM     20  C   UNL     1      -1.277  13.863  20.143  0.00  0.00    +0.000 A 
ATOM     21  C   UNL     1      -0.271  12.938  19.826  0.00  0.00    +0.000 A 
ATOM     22  C   UNL     1      -0.029  11.851  20.670  0.00  0.00    +0.000 A 
ATOM     23  C   UNL     1      -0.807  11.712  21.824  0.00  0.00    +0.000 A 
BRANCH  18  24
ATOM     24  C   UNL     1      -2.702  12.291  23.330  0.00  0.00    +0.000 C 
BRANCH  24  28
ATOM     25  C   UNL     1      -6.384  13.105  23.014  0.00  0.00    +0.000 C 
ATOM     26  C   UNL     1      -4.956  13.300  23.446  0.00  0.00    +0.000 C 
ATOM     27  O   UNL     1      -4.614  14.261  24.132  0.00  0.00    +0.000 OA
ATOM     28  N   UNL     1      -4.114  12.300  23.026  0.00  0.00    +0.000 N 
ATOM     29  H   UNL     1      -4.476  11.559  22.445  0.00  0.00    +0.000 HD
ENDBRANCH  24  28
ENDBRANCH  18  24
ENDBRANCH  17  22
ENDBRANCH   1  17
TORSDOF 7
ENDMDL
