MODEL 1
REMARK VINA RESULT:      -6.7      0.000      0.000
REMARK  Name = 
REMARK  5 active torsions:
REMARK  status: ('A' for Active; 'I' for Inactive)
REMARK    1  A    between atoms: C_1  and  O_2
REMARK    2  A    between atoms: O_2  and  C_3
REMARK    3  A    between atoms: C_6  and  C_7
REMARK    4  A    between atoms: C_7  and  C_8
REMARK    5  A    between atoms: C_7  and  N_10
REMARK                            x       y       z     vdW  Elec       q    Type
REMARK                         _______ _______ _______ _____ _____    ______ ____
ROOT
ATOM      1  C   UNL     1       3.912   5.034  19.397  0.00  0.00    +0.000 C 
ENDROOT
BRANCH   1   2
ATOM      2  N   UNL     1       3.109   3.784  19.210  0.00  0.00    +0.000 NA
ATOM      3  C   UNL     1       3.363   2.721  20.202  0.00  0.00    +0.000 C 
ATOM      4  C   UNL     1       2.482   2.725  21.476  0.00  0.00    +0.000 C 
ATOM      5  N   UNL     1       1.055   2.953  21.236  0.00  0.00    +0.000 NA
ATOM      6  C   UNL     1       0.839   4.083  20.330  0.00  0.00    +0.000 C 
ATOM      7  C   UNL     1       1.655   3.953  19.030  0.00  0.00    +0.000 C 
ATOM      8  H   UNL     1       0.576   3.119  22.119  0.00  0.00    +0.000 HD
ENDBRANCH   1   2
BRANCH   1  12
ATOM      9  C   UNL     1       6.800   5.320  16.145  0.00  0.00    +0.000 A 
ATOM     10  C   UNL     1       5.461   5.646  15.929  0.00  0.00    +0.000 A 
ATOM     11  C   UNL     1       4.531   5.596  16.982  0.00  0.00    +0.000 A 
ATOM     12  C   UNL     1       4.936   5.199  18.262  0.00  0.00    +0.000 A 
ATOM     13  C   UNL     1       6.285   4.841  18.454  0.00  0.00    +0.000 A 
ATOM     14  C   UNL     1       7.212   4.908  17.407  0.00  0.00    +0.000 A 
BRANCH   9  16
ATOM     15  C   UNL     1       7.091   4.809  13.852  0.00  0.00    +0.000 C 
ATOM     16  O   UNL     1       7.608   5.394  15.038  0.00  0.00    +0.000 OA
ENDBRANCH   9  16
ENDBRANCH   1  12
BRANCH   1  17
ATOM     17  C   UNL     1       3.036   6.275  19.337  0.00  0.00    +0.000 C 
ATOM     18  N   UNL     1       2.310   7.304  19.289  0.00  0.00    +0.000 NA
ENDBRANCH   1  17
TORSDOF 4
ENDMDL
MODEL 2
REMARK VINA RESULT:      -6.6      1.635      2.856
REMARK  Name = 
REMARK  5 active torsions:
REMARK  status: ('A' for Active; 'I' for Inactive)
REMARK    1  A    between atoms: C_1  and  O_2
REMARK    2  A    between atoms: O_2  and  C_3
REMARK    3  A    between atoms: C_6  and  C_7
REMARK    4  A    between atoms: C_7  and  C_8
REMARK    5  A    between atoms: C_7  and  N_10
REMARK                            x       y       z     vdW  Elec       q    Type
REMARK                         _______ _______ _______ _____ _____    ______ ____
ROOT
ATOM      1  C   UNL     1       3.828   3.501  18.342  0.00  0.00    +0.000 C 
ENDROOT
BRANCH   1   2
ATOM      2  N   UNL     1       2.621   4.254  18.809  0.00  0.00    +0.000 NA
ATOM      3  C   UNL     1       1.325   3.666  18.415  0.00  0.00    +0.000 C 
ATOM      4  C   UNL     1       0.688   2.652  19.397  0.00  0.00    +0.000 C 
ATOM      5  N   UNL     1       0.730   3.050  20.807  0.00  0.00    +0.000 NA
ATOM      6  C   UNL     1       2.061   3.529  21.187  0.00  0.00    +0.000 C 
ATOM      7  C   UNL     1       2.582   4.622  20.236  0.00  0.00    +0.000 C 
ATOM      8  H   UNL     1       0.460   2.267  21.398  0.00  0.00    +0.000 HD
ENDBRANCH   1   2
BRANCH   1  12
ATOM      9  C   UNL     1       6.839   6.385  17.072  0.00  0.00    +0.000 A 
ATOM     10  C   UNL     1       6.999   5.680  18.265  0.00  0.00    +0.000 A 
ATOM     11  C   UNL     1       6.053   4.718  18.662  0.00  0.00    +0.000 A 
ATOM     12  C   UNL     1       4.925   4.469  17.870  0.00  0.00    +0.000 A 
ATOM     13  C   UNL     1       4.764   5.215  16.685  0.00  0.00    +0.000 A 
ATOM     14  C   UNL     1       5.716   6.160  16.286  0.00  0.00    +0.000 A 
BRANCH   9  16
ATOM     15  C   UNL     1       7.881   8.425  17.671  0.00  0.00    +0.000 C 
ATOM     16  O   UNL     1       7.820   7.305  16.800  0.00  0.00    +0.000 OA
ENDBRANCH   9  16
ENDBRANCH   1  12
BRANCH   1  17
ATOM     17  C   UNL     1       4.455   2.696  19.469  0.00  0.00    +0.000 C 
ATOM     18  N   UNL     1       4.976   2.030  20.405  0.00  0.00    +0.000 NA
ENDBRANCH   1  17
TORSDOF 4
ENDMDL
MODEL 3
REMARK VINA RESULT:      -6.5      0.579      1.055
REMARK  Name = 
REMARK  5 active torsions:
REMARK  status: ('A' for Active; 'I' for Inactive)
REMARK    1  A    between atoms: C_1  and  O_2
REMARK    2  A    between atoms: O_2  and  C_3
REMARK    3  A    between atoms: C_6  and  C_7
REMARK    4  A    between atoms: C_7  and  C_8
REMARK    5  A    between atoms: C_7  and  N_10
REMARK                            x       y       z     vdW  Elec       q    Type
REMARK                         _______ _______ _______ _____ _____    ______ ____
ROOT
ATOM      1  C   UNL     1       3.967   4.848  19.311  0.00  0.00    +0.000 C 
ENDROOT
BRANCH   1   2
ATOM      2  N   UNL     1       3.105   3.631  19.186  0.00  0.00    +0.000 NA
ATOM      3  C   UNL     1       3.343   2.587  20.203  0.00  0.00    +0.000 C 
ATOM      4  C   UNL     1       2.503   2.668  21.501  0.00  0.00    +0.000 C 
ATOM      5  N   UNL     1       1.080   2.953  21.297  0.00  0.00    +0.000 NA
ATOM      6  C   UNL     1       0.886   4.063  20.363  0.00  0.00    +0.000 C 
ATOM      7  C   UNL     1       1.655   3.859  19.044  0.00  0.00    +0.000 C 
ATOM      8  H   UNL     1       0.636   3.166  22.188  0.00  0.00    +0.000 HD
ENDBRANCH   1   2
BRANCH   1  12
ATOM      9  C   UNL     1       6.745   5.173  15.968  0.00  0.00    +0.000 A 
ATOM     10  C   UNL     1       6.998   5.849  17.162  0.00  0.00    +0.000 A 
ATOM     11  C   UNL     1       6.129   5.717  18.259  0.00  0.00    +0.000 A 
ATOM     12  C   UNL     1       4.984   4.916  18.159  0.00  0.00    +0.000 A 
ATOM     13  C   UNL     1       4.727   4.268  16.935  0.00  0.00    +0.000 A 
ATOM     14  C   UNL     1       5.604   4.389  15.850  0.00  0.00    +0.000 A 
BRANCH   9  16
ATOM     15  C   UNL     1       7.304   4.895  13.684  0.00  0.00    +0.000 C 
ATOM     16  O   UNL     1       7.658   5.391  14.967  0.00  0.00    +0.000 OA
ENDBRANCH   9  16
ENDBRANCH   1  12
BRANCH   1  17
ATOM     17  C   UNL     1       3.150   6.126  19.206  0.00  0.00    +0.000 C 
ATOM     18  N   UNL     1       2.471   7.184  19.120  0.00  0.00    +0.000 NA
ENDBRANCH   1  17
TORSDOF 4
ENDMDL
MODEL 4
REMARK VINA RESULT:      -6.5      1.729      2.602
REMARK  Name = 
REMARK  5 active torsions:
REMARK  status: ('A' for Active; 'I' for Inactive)
REMARK    1  A    between atoms: C_1  and  O_2
REMARK    2  A    between atoms: O_2  and  C_3
REMARK    3  A    between atoms: C_6  and  C_7
REMARK    4  A    between atoms: C_7  and  C_8
REMARK    5  A    between atoms: C_7  and  N_10
REMARK                            x       y       z     vdW  Elec       q    Type
REMARK                         _______ _______ _______ _____ _____    ______ ____
ROOT
ATOM      1  C   UNL     1       3.791   3.574  18.118  0.00  0.00    +0.000 C 
ENDROOT
BRANCH   1   2
ATOM      2  N   UNL     1       2.442   4.151  18.412  0.00  0.00    +0.000 NA
ATOM      3  C   UNL     1       1.328   3.181  18.401  0.00  0.00    +0.000 C 
ATOM      4  C   UNL     1       0.984   2.494  19.746  0.00  0.00    +0.000 C 
ATOM      5  N   UNL     1       0.949   3.390  20.904  0.00  0.00    +0.000 NA
ATOM      6  C   UNL     1       2.122   4.266  20.938  0.00  0.00    +0.000 C 
ATOM      7  C   UNL     1       2.335   5.009  19.607  0.00  0.00    +0.000 C 
ATOM      8  H   UNL     1       0.894   2.847  21.764  0.00  0.00    +0.000 HD
ENDBRANCH   1   2
BRANCH   1  12
ATOM      9  C   UNL     1       6.800   6.614  17.279  0.00  0.00    +0.000 A 
ATOM     10  C   UNL     1       5.663   6.508  16.477  0.00  0.00    +0.000 A 
ATOM     11  C   UNL     1       4.668   5.557  16.765  0.00  0.00    +0.000 A 
ATOM     12  C   UNL     1       4.816   4.689  17.854  0.00  0.00    +0.000 A 
ATOM     13  C   UNL     1       5.986   4.789  18.633  0.00  0.00    +0.000 A 
ATOM     14  C   UNL     1       6.967   5.747  18.352  0.00  0.00    +0.000 A 
BRANCH   9  16
ATOM     15  C   UNL     1       7.950   8.610  17.822  0.00  0.00    +0.000 C 
ATOM     16  O   UNL     1       7.704   7.569  16.889  0.00  0.00    +0.000 OA
ENDBRANCH   9  16
ENDBRANCH   1  12
BRANCH   1  17
ATOM     17  C   UNL     1       4.336   2.795  19.305  0.00  0.00    +0.000 C 
ATOM     18  N   UNL     1       4.790   2.149  20.288  0.00  0.00    +0.000 NA
ENDBRANCH   1  17
TORSDOF 4
ENDMDL
MODEL 5
REMARK VINA RESULT:      -6.3      1.270      1.586
REMARK  Name = 
REMARK  5 active torsions:
REMARK  status: ('A' for Active; 'I' for Inactive)
REMARK    1  A    between atoms: C_1  and  O_2
REMARK    2  A    between atoms: O_2  and  C_3
REMARK    3  A    between atoms: C_6  and  C_7
REMARK    4  A    between atoms: C_7  and  C_8
REMARK    5  A    between atoms: C_7  and  N_10
REMARK                            x       y       z     vdW  Elec       q    Type
REMARK                         _______ _______ _______ _____ _____    ______ ____
ROOT
ATOM      1  C   UNL     1       3.018   5.276  19.207  0.00  0.00    +0.000 C 
ENDROOT
BRANCH   1   2
ATOM      2  N   UNL     1       1.958   4.441  18.560  0.00  0.00    +0.000 NA
ATOM      3  C   UNL     1       2.436   3.532  17.498  0.00  0.00    +0.000 C 
ATOM      4  C   UNL     1       2.856   2.106  17.933  0.00  0.00    +0.000 C 
ATOM      5  N   UNL     1       1.941   1.455  18.874  0.00  0.00    +0.000 NA
ATOM      6  C   UNL     1       1.572   2.353  19.970  0.00  0.00    +0.000 C 
ATOM      7  C   UNL     1       1.049   3.709  19.462  0.00  0.00    +0.000 C 
ATOM      8  H   UNL     1       2.368   0.609  19.246  0.00  0.00    +0.000 HD
ENDBRANCH   1   2
BRANCH   1  12
ATOM      9  C   UNL     1       6.405   5.573  16.478  0.00  0.00    +0.000 A 
ATOM     10  C   UNL     1       5.228   6.278  16.220  0.00  0.00    +0.000 A 
ATOM     11  C   UNL     1       4.146   6.220  17.116  0.00  0.00    +0.000 A 
ATOM     12  C   UNL     1       4.230   5.436  18.274  0.00  0.00    +0.000 A 
ATOM     13  C   UNL     1       5.413   4.706  18.501  0.00  0.00    +0.000 A 
ATOM     14  C   UNL     1       6.494   4.779  17.614  0.00  0.00    +0.000 A 
BRANCH   9  16
ATOM     15  C   UNL     1       7.162   4.995  14.311  0.00  0.00    +0.000 C 
ATOM     16  O   UNL     1       7.383   5.698  15.525  0.00  0.00    +0.000 OA
ENDBRANCH   9  16
ENDBRANCH   1  12
BRANCH   1  17
ATOM     17  C   UNL     1       2.528   6.688  19.481  0.00  0.00    +0.000 C 
ATOM     18  N   UNL     1       2.122   7.860  19.709  0.00  0.00    +0.000 NA
ENDBRANCH   1  17
TORSDOF 4
ENDMDL
MODEL 6
REMARK VINA RESULT:      -6.2      1.389      2.315
REMARK  Name = 
REMARK  5 active torsions:
REMARK  status: ('A' for Active; 'I' for Inactive)
REMARK    1  A    between atoms: C_1  and  O_2
REMARK    2  A    between atoms: O_2  and  C_3
REMARK    3  A    between atoms: C_6  and  C_7
REMARK    4  A    between atoms: C_7  and  C_8
REMARK    5  A    between atoms: C_7  and  N_10
REMARK                            x       y       z     vdW  Elec       q    Type
REMARK                         _______ _______ _______ _____ _____    ______ ____
ROOT
ATOM      1  C   UNL     1       3.735   3.133  18.369  0.00  0.00    +0.000 C 
ENDROOT
BRANCH   1   2
ATOM      2  N   UNL     1       2.696   4.097  18.852  0.00  0.00    +0.000 NA
ATOM      3  C   UNL     1       1.327   3.840  18.362  0.00  0.00    +0.000 C 
ATOM      4  C   UNL     1       0.433   2.921  19.231  0.00  0.00    +0.000 C 
ATOM      5  N   UNL     1       0.483   3.194  20.669  0.00  0.00    +0.000 NA
ATOM      6  C   UNL     1       1.862   3.339  21.138  0.00  0.00    +0.000 C 
ATOM      7  C   UNL     1       2.659   4.358  20.304  0.00  0.00    +0.000 C 
ATOM      8  H   UNL     1       0.017   2.448  21.182  0.00  0.00    +0.000 HD
ENDBRANCH   1   2
BRANCH   1  12
ATOM      9  C   UNL     1       6.819   5.014  15.930  0.00  0.00    +0.000 A 
ATOM     10  C   UNL     1       5.627   4.582  15.348  0.00  0.00    +0.000 A 
ATOM     11  C   UNL     1       4.610   4.012  16.134  0.00  0.00    +0.000 A 
ATOM     12  C   UNL     1       4.791   3.854  17.514  0.00  0.00    +0.000 A 
ATOM     13  C   UNL     1       6.014   4.266  18.079  0.00  0.00    +0.000 A 
ATOM     14  C   UNL     1       7.017   4.848  17.295  0.00  0.00    +0.000 A 
BRANCH   9  16
ATOM     15  C   UNL     1       7.603   5.151  13.700  0.00  0.00    +0.000 C 
ATOM     16  O   UNL     1       7.739   5.541  15.059  0.00  0.00    +0.000 OA
ENDBRANCH   9  16
ENDBRANCH   1  12
BRANCH   1  17
ATOM     17  C   UNL     1       4.504   2.514  19.526  0.00  0.00    +0.000 C 
ATOM     18  N   UNL     1       5.142   2.002  20.485  0.00  0.00    +0.000 NA
ENDBRANCH   1  17
TORSDOF 4
ENDMDL
MODEL 7
REMARK VINA RESULT:      -6.2      2.017      2.589
REMARK  Name = 
REMARK  5 active torsions:
REMARK  status: ('A' for Active; 'I' for Inactive)
REMARK    1  A    between atoms: C_1  and  O_2
REMARK    2  A    between atoms: O_2  and  C_3
REMARK    3  A    between atoms: C_6  and  C_7
REMARK    4  A    between atoms: C_7  and  C_8
REMARK    5  A    between atoms: C_7  and  N_10
REMARK                            x       y       z     vdW  Elec       q    Type
REMARK                         _______ _______ _______ _____ _____    ______ ____
ROOT
ATOM      1  C   UNL     1       3.404   4.986  19.230  0.00  0.00    +0.000 C 
ENDROOT
BRANCH   1   2
ATOM      2  N   UNL     1       2.637   4.193  18.219  0.00  0.00    +0.000 NA
ATOM      3  C   UNL     1       3.343   3.011  17.683  0.00  0.00    +0.000 C 
ATOM      4  C   UNL     1       3.136   1.672  18.433  0.00  0.00    +0.000 C 
ATOM      5  N   UNL     1       1.750   1.386  18.813  0.00  0.00    +0.000 NA
ATOM      6  C   UNL     1       1.116   2.549  19.436  0.00  0.00    +0.000 C 
ATOM      7  C   UNL     1       1.256   3.820  18.579  0.00  0.00    +0.000 C 
ATOM      8  H   UNL     1       1.720   0.591  19.448  0.00  0.00    +0.000 HD
ENDBRANCH   1   2
BRANCH   1  12
ATOM      9  C   UNL     1       6.788   7.107  17.482  0.00  0.00    +0.000 A 
ATOM     10  C   UNL     1       6.986   6.203  18.526  0.00  0.00    +0.000 A 
ATOM     11  C   UNL     1       5.906   5.484  19.068  0.00  0.00    +0.000 A 
ATOM     12  C   UNL     1       4.610   5.682  18.576  0.00  0.00    +0.000 A 
ATOM     13  C   UNL     1       4.424   6.623  17.544  0.00  0.00    +0.000 A 
ATOM     14  C   UNL     1       5.505   7.324  16.996  0.00  0.00    +0.000 A 
BRANCH   9  16
ATOM     15  C   UNL     1       8.267   8.935  17.757  0.00  0.00    +0.000 C 
ATOM     16  O   UNL     1       7.916   7.756  17.047  0.00  0.00    +0.000 OA
ENDBRANCH   9  16
ENDBRANCH   1  12
BRANCH   1  17
ATOM     17  C   UNL     1       2.561   6.106  19.819  0.00  0.00    +0.000 C 
ATOM     18  N   UNL     1       1.863   7.034  20.308  0.00  0.00    +0.000 NA
ENDBRANCH   1  17
TORSDOF 4
ENDMDL
MODEL 8
REMARK VINA RESULT:      -6.1      3.482      6.018
REMARK  Name = 
REMARK  5 active torsions:
REMARK  status: ('A' for Active; 'I' for Inactive)
REMARK    1  A    between atoms: C_1  and  O_2
REMARK    2  A    between atoms: O_2  and  C_3
REMARK    3  A    between atoms: C_6  and  C_7
REMARK    4  A    between atoms: C_7  and  C_8
REMARK    5  A    between atoms: C_7  and  N_10
REMARK                            x       y       z     vdW  Elec       q    Type
REMARK                         _______ _______ _______ _____ _____    ______ ____
ROOT
ATOM      1  C   UNL     1       3.921   5.534  18.010  0.00  0.00    +0.000 C 
ENDROOT
BRANCH   1   2
ATOM      2  N   UNL     1       4.807   6.005  16.900  0.00  0.00    +0.000 NA
ATOM      3  C   UNL     1       6.057   6.662  17.330  0.00  0.00    +0.000 C 
ATOM      4  C   UNL     1       7.298   5.754  17.517  0.00  0.00    +0.000 C 
ATOM      5  N   UNL     1       7.507   4.771  16.450  0.00  0.00    +0.000 NA
ATOM      6  C   UNL     1       6.266   4.066  16.123  0.00  0.00    +0.000 C 
ATOM      7  C   UNL     1       5.104   5.033  15.831  0.00  0.00    +0.000 C 
ATOM      8  H   UNL     1       8.224   4.103  16.728  0.00  0.00    +0.000 HD
ENDBRANCH   1   2
BRANCH   1  12
ATOM      9  C   UNL     1       1.448   8.820  19.454  0.00  0.00    +0.000 A 
ATOM     10  C   UNL     1       1.976   8.851  18.163  0.00  0.00    +0.000 A 
ATOM     11  C   UNL     1       2.741   7.776  17.674  0.00  0.00    +0.000 A 
ATOM     12  C   UNL     1       2.997   6.666  18.489  0.00  0.00    +0.000 A 
ATOM     13  C   UNL     1       2.484   6.668  19.801  0.00  0.00    +0.000 A 
ATOM     14  C   UNL     1       1.710   7.733  20.278  0.00  0.00    +0.000 A 
BRANCH   9  16
ATOM     15  C   UNL     1       0.105  10.643  18.762  0.00  0.00    +0.000 C 
ATOM     16  O   UNL     1       0.731   9.932  19.820  0.00  0.00    +0.000 OA
ENDBRANCH   9  16
ENDBRANCH   1  12
BRANCH   1  17
ATOM     17  C   UNL     1       2.993   4.420  17.551  0.00  0.00    +0.000 C 
ATOM     18  N   UNL     1       2.223   3.498  17.171  0.00  0.00    +0.000 NA
ENDBRANCH   1  17
TORSDOF 4
ENDMDL
MODEL 9
REMARK VINA RESULT:      -6.1      1.283      1.969
REMARK  Name = 
REMARK  5 active torsions:
REMARK  status: ('A' for Active; 'I' for Inactive)
REMARK    1  A    between atoms: C_1  and  O_2
REMARK    2  A    between atoms: O_2  and  C_3
REMARK    3  A    between atoms: C_6  and  C_7
REMARK    4  A    between atoms: C_7  and  C_8
REMARK    5  A    between atoms: C_7  and  N_10
REMARK                            x       y       z     vdW  Elec       q    Type
REMARK                         _______ _______ _______ _____ _____    ______ ____
ROOT
ATOM      1  C   UNL     1       2.908   5.324  19.225  0.00  0.00    +0.000 C 
ENDROOT
BRANCH   1   2
ATOM      2  N   UNL     1       1.774   4.493  18.711  0.00  0.00    +0.000 NA
ATOM      3  C   UNL     1       2.107   3.612  17.574  0.00  0.00    +0.000 C 
ATOM      4  C   UNL     1       2.591   2.181  17.915  0.00  0.00    +0.000 C 
ATOM      5  N   UNL     1       1.818   1.501  18.957  0.00  0.00    +0.000 NA
ATOM      6  C   UNL     1       1.597   2.372  20.113  0.00  0.00    +0.000 C 
ATOM      7  C   UNL     1       1.001   3.734  19.712  0.00  0.00    +0.000 C 
ATOM      8  H   UNL     1       2.297   0.651  19.248  0.00  0.00    +0.000 HD
ENDBRANCH   1   2
BRANCH   1  12
ATOM      9  C   UNL     1       6.204   5.661  16.392  0.00  0.00    +0.000 A 
ATOM     10  C   UNL     1       6.253   4.722  17.422  0.00  0.00    +0.000 A 
ATOM     11  C   UNL     1       5.177   4.578  18.316  0.00  0.00    +0.000 A 
ATOM     12  C   UNL     1       4.045   5.393  18.192  0.00  0.00    +0.000 A 
ATOM     13  C   UNL     1       4.026   6.359  17.167  0.00  0.00    +0.000 A 
ATOM     14  C   UNL     1       5.093   6.487  16.270  0.00  0.00    +0.000 A 
BRANCH   9  16
ATOM     15  C   UNL     1       7.243   5.001  14.371  0.00  0.00    +0.000 C 
ATOM     16  O   UNL     1       7.319   5.716  15.595  0.00  0.00    +0.000 OA
ENDBRANCH   9  16
ENDBRANCH   1  12
BRANCH   1  17
ATOM     17  C   UNL     1       2.484   6.765  19.459  0.00  0.00    +0.000 C 
ATOM     18  N   UNL     1       2.132   7.960  19.654  0.00  0.00    +0.000 NA
ENDBRANCH   1  17
TORSDOF 4
ENDMDL
