MODEL 1
REMARK VINA RESULT:      -8.7      0.000      0.000
REMARK  Name = 
REMARK  6 active torsions:
REMARK  status: ('A' for Active; 'I' for Inactive)
REMARK    1  A    between atoms: C_2  and  OXT_3
REMARK    2  A    between atoms: C_2  and  CA_4
REMARK    3  A    between atoms: CA_4  and  N_5
REMARK    4  A    between atoms: CA_4  and  C_20
REMARK    5  A    between atoms: N_5  and  C_6
REMARK    6  A    between atoms: C_8  and  C_9
REMARK                            x       y       z     vdW  Elec       q    Type
REMARK                         _______ _______ _______ _____ _____    ______ ____
ROOT
ATOM      1  C   UNL     1       4.112   5.197  17.437  0.00  0.00    +0.000 A 
ATOM      2  N   UNL     1       4.087   3.961  17.957  0.00  0.00    +0.000 NA
ATOM      3  C   UNL     1       3.457   3.760  19.137  0.00  0.00    +0.000 A 
ATOM      4  N   UNL     1       2.808   4.738  19.798  0.00  0.00    +0.000 NA
ATOM      5  C   UNL     1       2.778   5.957  19.244  0.00  0.00    +0.000 A 
ATOM      6  C   UNL     1       2.084   6.964  19.900  0.00  0.00    +0.000 A 
ATOM      7  C   UNL     1       1.968   8.250  19.364  0.00  0.00    +0.000 A 
ATOM      8  C   UNL     1       2.558   8.544  18.143  0.00  0.00    +0.000 A 
ATOM      9  C   UNL     1       3.284   7.557  17.477  0.00  0.00    +0.000 A 
ATOM     10  C   UNL     1       3.404   6.254  18.025  0.00  0.00    +0.000 A 
ENDROOT
BRANCH   3  11
ATOM     11  C   UNL     1       3.402   2.324  19.677  0.00  0.00    +0.000 C 
ATOM     12  F   UNL     1       2.124   1.891  19.909  0.00  0.00    +0.000 F 
ATOM     13  F   UNL     1       3.956   1.396  18.845  0.00  0.00    +0.000 F 
ATOM     14  F   UNL     1       4.045   2.189  20.875  0.00  0.00    +0.000 F 
ENDBRANCH   3  11
BRANCH   1  15
ATOM     15  N   UNL     1       4.840   5.363  16.263  0.00  0.00    +0.000 N 
ATOM     16  H   UNL     1       4.233   5.343  15.447  0.00  0.00    +0.000 HD
BRANCH  15  17
ATOM     17  CA  UNL     1       6.110   4.617  16.018  0.00  0.00    +0.000 C 
BRANCH  17  18
ATOM     18  C   UNL     1       6.425   4.437  14.533  0.00  0.00    +0.000 A 
ATOM     19  C   UNL     1       5.709   3.553  13.708  0.00  0.00    +0.000 A 
ATOM     20  C   UNL     1       6.022   3.423  12.352  0.00  0.00    +0.000 A 
ATOM     21  C   UNL     1       7.053   4.173  11.796  0.00  0.00    +0.000 A 
ATOM     22  C   UNL     1       7.774   5.056  12.595  0.00  0.00    +0.000 A 
ATOM     23  C   UNL     1       7.464   5.187  13.952  0.00  0.00    +0.000 A 
ENDBRANCH  17  18
BRANCH  17  25
ATOM     24  O   UNL     1       7.496   6.271  17.174  0.00  0.00    +0.000 OA
ATOM     25  C   UNL     1       7.292   5.096  16.899  0.00  0.00    +0.000 C 
BRANCH  25  26
ATOM     26  OXT UNL     1       8.095   4.123  17.385  0.00  0.00    +0.000 OA
ATOM     27  HXT UNL     1       8.275   4.290  18.337  0.00  0.00    +0.000 HD
ENDBRANCH  25  26
ENDBRANCH  17  25
ENDBRANCH  15  17
ENDBRANCH   1  15
TORSDOF 6
ENDMDL
MODEL 2
REMARK VINA RESULT:      -8.7      0.399      1.314
REMARK  Name = 
REMARK  6 active torsions:
REMARK  status: ('A' for Active; 'I' for Inactive)
REMARK    1  A    between atoms: C_2  and  OXT_3
REMARK    2  A    between atoms: C_2  and  CA_4
REMARK    3  A    between atoms: CA_4  and  N_5
REMARK    4  A    between atoms: CA_4  and  C_20
REMARK    5  A    between atoms: N_5  and  C_6
REMARK    6  A    between atoms: C_8  and  C_9
REMARK                            x       y       z     vdW  Elec       q    Type
REMARK                         _______ _______ _______ _____ _____    ______ ____
ROOT
ATOM      1  C   UNL     1       4.111   5.349  17.575  0.00  0.00    +0.000 A 
ATOM      2  N   UNL     1       4.125   4.141  18.159  0.00  0.00    +0.000 NA
ATOM      3  C   UNL     1       3.492   3.980  19.343  0.00  0.00    +0.000 A 
ATOM      4  N   UNL     1       2.803   4.967  19.947  0.00  0.00    +0.000 NA
ATOM      5  C   UNL     1       2.734   6.154  19.329  0.00  0.00    +0.000 A 
ATOM      6  C   UNL     1       1.998   7.168  19.926  0.00  0.00    +0.000 A 
ATOM      7  C   UNL     1       1.842   8.419  19.322  0.00  0.00    +0.000 A 
ATOM      8  C   UNL     1       2.432   8.669  18.092  0.00  0.00    +0.000 A 
ATOM      9  C   UNL     1       3.198   7.676  17.484  0.00  0.00    +0.000 A 
ATOM     10  C   UNL     1       3.360   6.409  18.101  0.00  0.00    +0.000 A 
ENDROOT
BRANCH   3  11
ATOM     11  C   UNL     1       3.483   2.573  19.958  0.00  0.00    +0.000 C 
ATOM     12  F   UNL     1       4.662   1.902  19.771  0.00  0.00    +0.000 F 
ATOM     13  F   UNL     1       3.263   2.557  21.304  0.00  0.00    +0.000 F 
ATOM     14  F   UNL     1       2.526   1.767  19.409  0.00  0.00    +0.000 F 
ENDBRANCH   3  11
BRANCH   1  15
ATOM     15  N   UNL     1       4.843   5.479  16.399  0.00  0.00    +0.000 N 
ATOM     16  H   UNL     1       4.235   5.472  15.583  0.00  0.00    +0.000 HD
BRANCH  15  17
ATOM     17  CA  UNL     1       6.087   4.688  16.161  0.00  0.00    +0.000 C 
BRANCH  17  18
ATOM     18  C   UNL     1       6.420   4.524  14.678  0.00  0.00    +0.000 A 
ATOM     19  C   UNL     1       7.470   5.221  14.056  0.00  0.00    +0.000 A 
ATOM     20  C   UNL     1       7.749   5.037  12.698  0.00  0.00    +0.000 A 
ATOM     21  C   UNL     1       6.987   4.153  11.939  0.00  0.00    +0.000 A 
ATOM     22  C   UNL     1       5.944   3.451  12.536  0.00  0.00    +0.000 A 
ATOM     23  C   UNL     1       5.662   3.635  13.894  0.00  0.00    +0.000 A 
ENDBRANCH  17  18
BRANCH  17  25
ATOM     24  O   UNL     1       7.434   6.244  17.486  0.00  0.00    +0.000 OA
ATOM     25  C   UNL     1       7.271   5.105  17.070  0.00  0.00    +0.000 C 
BRANCH  25  26
ATOM     26  OXT UNL     1       8.125   4.114  17.411  0.00  0.00    +0.000 OA
ATOM     27  HXT UNL     1       8.271   4.127  18.384  0.00  0.00    +0.000 HD
ENDBRANCH  25  26
ENDBRANCH  17  25
ENDBRANCH  15  17
ENDBRANCH   1  15
TORSDOF 6
ENDMDL
MODEL 3
REMARK VINA RESULT:      -8.4      2.957      4.780
REMARK  Name = 
REMARK  6 active torsions:
REMARK  status: ('A' for Active; 'I' for Inactive)
REMARK    1  A    between atoms: C_2  and  OXT_3
REMARK    2  A    between atoms: C_2  and  CA_4
REMARK    3  A    between atoms: CA_4  and  N_5
REMARK    4  A    between atoms: CA_4  and  C_20
REMARK    5  A    between atoms: N_5  and  C_6
REMARK    6  A    between atoms: C_8  and  C_9
REMARK                            x       y       z     vdW  Elec       q    Type
REMARK                         _______ _______ _______ _____ _____    ______ ____
ROOT
ATOM      1  C   UNL     1       3.952   4.632  17.187  0.00  0.00    +0.000 A 
ATOM      2  N   UNL     1       3.710   5.947  17.301  0.00  0.00    +0.000 NA
ATOM      3  C   UNL     1       2.681   6.358  18.075  0.00  0.00    +0.000 A 
ATOM      4  N   UNL     1       1.909   5.510  18.782  0.00  0.00    +0.000 NA
ATOM      5  C   UNL     1       2.194   4.202  18.720  0.00  0.00    +0.000 A 
ATOM      6  C   UNL     1       1.427   3.322  19.471  0.00  0.00    +0.000 A 
ATOM      7  C   UNL     1       1.690   1.950  19.495  0.00  0.00    +0.000 A 
ATOM      8  C   UNL     1       2.744   1.437  18.753  0.00  0.00    +0.000 A 
ATOM      9  C   UNL     1       3.514   2.297  17.970  0.00  0.00    +0.000 A 
ATOM     10  C   UNL     1       3.242   3.689  17.943  0.00  0.00    +0.000 A 
ENDROOT
BRANCH   3  11
ATOM     11  C   UNL     1       2.465   7.871  18.224  0.00  0.00    +0.000 C 
ATOM     12  F   UNL     1       2.190   8.246  19.512  0.00  0.00    +0.000 F 
ATOM     13  F   UNL     1       3.537   8.625  17.845  0.00  0.00    +0.000 F 
ATOM     14  F   UNL     1       1.406   8.324  17.490  0.00  0.00    +0.000 F 
ENDBRANCH   3  11
BRANCH   1  15
ATOM     15  N   UNL     1       4.971   4.260  16.317  0.00  0.00    +0.000 N 
ATOM     16  H   UNL     1       5.413   3.393  16.615  0.00  0.00    +0.000 HD
BRANCH  15  17
ATOM     17  CA  UNL     1       5.979   5.246  15.827  0.00  0.00    +0.000 C 
BRANCH  17  18
ATOM     18  C   UNL     1       6.804   5.873  16.951  0.00  0.00    +0.000 A 
ATOM     19  C   UNL     1       7.313   5.122  18.025  0.00  0.00    +0.000 A 
ATOM     20  C   UNL     1       8.071   5.730  19.031  0.00  0.00    +0.000 A 
ATOM     21  C   UNL     1       8.335   7.096  18.981  0.00  0.00    +0.000 A 
ATOM     22  C   UNL     1       7.842   7.857  17.925  0.00  0.00    +0.000 A 
ATOM     23  C   UNL     1       7.083   7.251  16.919  0.00  0.00    +0.000 A 
ENDBRANCH  17  18
BRANCH  17  25
ATOM     24  O   UNL     1       7.739   5.361  14.128  0.00  0.00    +0.000 OA
ATOM     25  C   UNL     1       6.788   4.751  14.600  0.00  0.00    +0.000 C 
BRANCH  25  26
ATOM     26  OXT UNL     1       6.397   3.567  14.079  0.00  0.00    +0.000 OA
ATOM     27  HXT UNL     1       7.189   3.053  13.801  0.00  0.00    +0.000 HD
ENDBRANCH  25  26
ENDBRANCH  17  25
ENDBRANCH  15  17
ENDBRANCH   1  15
TORSDOF 6
ENDMDL
MODEL 4
REMARK VINA RESULT:      -8.3      3.032      4.795
REMARK  Name = 
REMARK  6 active torsions:
REMARK  status: ('A' for Active; 'I' for Inactive)
REMARK    1  A    between atoms: C_2  and  OXT_3
REMARK    2  A    between atoms: C_2  and  CA_4
REMARK    3  A    between atoms: CA_4  and  N_5
REMARK    4  A    between atoms: CA_4  and  C_20
REMARK    5  A    between atoms: N_5  and  C_6
REMARK    6  A    between atoms: C_8  and  C_9
REMARK                            x       y       z     vdW  Elec       q    Type
REMARK                         _______ _______ _______ _____ _____    ______ ____
ROOT
ATOM      1  C   UNL     1       3.941   5.052  17.588  0.00  0.00    +0.000 A 
ATOM      2  N   UNL     1       3.487   6.309  17.473  0.00  0.00    +0.000 NA
ATOM      3  C   UNL     1       2.641   6.788  18.414  0.00  0.00    +0.000 A 
ATOM      4  N   UNL     1       2.265   6.075  19.494  0.00  0.00    +0.000 NA
ATOM      5  C   UNL     1       2.773   4.844  19.641  0.00  0.00    +0.000 A 
ATOM      6  C   UNL     1       2.419   4.114  20.768  0.00  0.00    +0.000 A 
ATOM      7  C   UNL     1       2.942   2.841  21.016  0.00  0.00    +0.000 A 
ATOM      8  C   UNL     1       3.839   2.279  20.120  0.00  0.00    +0.000 A 
ATOM      9  C   UNL     1       4.190   2.980  18.968  0.00  0.00    +0.000 A 
ATOM     10  C   UNL     1       3.655   4.270  18.716  0.00  0.00    +0.000 A 
ENDROOT
BRANCH   3  11
ATOM     11  C   UNL     1       2.182   8.247  18.281  0.00  0.00    +0.000 C 
ATOM     12  F   UNL     1       1.136   8.399  17.410  0.00  0.00    +0.000 F 
ATOM     13  F   UNL     1       1.767   8.808  19.452  0.00  0.00    +0.000 F 
ATOM     14  F   UNL     1       3.166   9.063  17.799  0.00  0.00    +0.000 F 
ENDBRANCH   3  11
BRANCH   1  15
ATOM     15  N   UNL     1       4.744   4.584  16.553  0.00  0.00    +0.000 N 
ATOM     16  H   UNL     1       5.032   3.622  16.715  0.00  0.00    +0.000 HD
BRANCH  15  17
ATOM     17  CA  UNL     1       5.864   5.404  16.002  0.00  0.00    +0.000 C 
BRANCH  17  18
ATOM     18  C   UNL     1       6.752   6.015  17.086  0.00  0.00    +0.000 A 
ATOM     19  C   UNL     1       7.256   5.267  18.164  0.00  0.00    +0.000 A 
ATOM     20  C   UNL     1       8.072   5.861  19.132  0.00  0.00    +0.000 A 
ATOM     21  C   UNL     1       8.400   7.209  19.039  0.00  0.00    +0.000 A 
ATOM     22  C   UNL     1       7.914   7.968  17.979  0.00  0.00    +0.000 A 
ATOM     23  C   UNL     1       7.097   7.377  17.011  0.00  0.00    +0.000 A 
ENDBRANCH  17  18
BRANCH  17  25
ATOM     24  O   UNL     1       7.537   5.248  14.221  0.00  0.00    +0.000 OA
ATOM     25  C   UNL     1       6.615   4.721  14.830  0.00  0.00    +0.000 C 
BRANCH  25  26
ATOM     26  OXT UNL     1       6.207   3.470  14.521  0.00  0.00    +0.000 OA
ATOM     27  HXT UNL     1       5.249   3.379  14.719  0.00  0.00    +0.000 HD
ENDBRANCH  25  26
ENDBRANCH  17  25
ENDBRANCH  15  17
ENDBRANCH   1  15
TORSDOF 6
ENDMDL
MODEL 5
REMARK VINA RESULT:      -8.3      3.175      6.769
REMARK  Name = 
REMARK  6 active torsions:
REMARK  status: ('A' for Active; 'I' for Inactive)
REMARK    1  A    between atoms: C_2  and  OXT_3
REMARK    2  A    between atoms: C_2  and  CA_4
REMARK    3  A    between atoms: CA_4  and  N_5
REMARK    4  A    between atoms: CA_4  and  C_20
REMARK    5  A    between atoms: N_5  and  C_6
REMARK    6  A    between atoms: C_8  and  C_9
REMARK                            x       y       z     vdW  Elec       q    Type
REMARK                         _______ _______ _______ _____ _____    ______ ____
ROOT
ATOM      1  C   UNL     1       5.183   4.527  16.022  0.00  0.00    +0.000 A 
ATOM      2  N   UNL     1       5.736   5.381  16.897  0.00  0.00    +0.000 NA
ATOM      3  C   UNL     1       6.909   5.974  16.578  0.00  0.00    +0.000 A 
ATOM      4  N   UNL     1       7.531   5.785  15.398  0.00  0.00    +0.000 NA
ATOM      5  C   UNL     1       6.942   4.984  14.500  0.00  0.00    +0.000 A 
ATOM      6  C   UNL     1       7.556   4.809  13.267  0.00  0.00    +0.000 A 
ATOM      7  C   UNL     1       6.983   4.026  12.262  0.00  0.00    +0.000 A 
ATOM      8  C   UNL     1       5.766   3.399  12.486  0.00  0.00    +0.000 A 
ATOM      9  C   UNL     1       5.141   3.538  13.725  0.00  0.00    +0.000 A 
ATOM     10  C   UNL     1       5.727   4.329  14.746  0.00  0.00    +0.000 A 
ENDROOT
BRANCH   3  11
ATOM     11  C   UNL     1       7.488   6.985  17.578  0.00  0.00    +0.000 C 
ATOM     12  F   UNL     1       8.187   6.390  18.594  0.00  0.00    +0.000 F 
ATOM     13  F   UNL     1       8.349   7.885  17.022  0.00  0.00    +0.000 F 
ATOM     14  F   UNL     1       6.519   7.722  18.199  0.00  0.00    +0.000 F 
ENDBRANCH   3  11
BRANCH   1  15
ATOM     15  N   UNL     1       4.019   3.885  16.432  0.00  0.00    +0.000 N 
ATOM     16  H   UNL     1       3.191   4.371  16.096  0.00  0.00    +0.000 HD
BRANCH  15  17
ATOM     17  CA  UNL     1       3.841   3.411  17.837  0.00  0.00    +0.000 C 
BRANCH  17  18
ATOM     18  C   UNL     1       3.153   4.439  18.736  0.00  0.00    +0.000 A 
ATOM     19  C   UNL     1       2.932   5.768  18.335  0.00  0.00    +0.000 A 
ATOM     20  C   UNL     1       2.292   6.678  19.183  0.00  0.00    +0.000 A 
ATOM     21  C   UNL     1       1.860   6.276  20.443  0.00  0.00    +0.000 A 
ATOM     22  C   UNL     1       2.067   4.964  20.859  0.00  0.00    +0.000 A 
ATOM     23  C   UNL     1       2.709   4.053  20.014  0.00  0.00    +0.000 A 
ENDBRANCH  17  18
BRANCH  17  25
ATOM     24  O   UNL     1       3.914   1.046  18.467  0.00  0.00    +0.000 OA
ATOM     25  C   UNL     1       3.297   1.964  17.941  0.00  0.00    +0.000 C 
BRANCH  25  26
ATOM     26  OXT UNL     1       2.061   1.763  17.431  0.00  0.00    +0.000 OA
ATOM     27  HXT UNL     1       2.051   0.926  16.914  0.00  0.00    +0.000 HD
ENDBRANCH  25  26
ENDBRANCH  17  25
ENDBRANCH  15  17
ENDBRANCH   1  15
TORSDOF 6
ENDMDL
MODEL 6
REMARK VINA RESULT:      -8.3      2.942      4.831
REMARK  Name = 
REMARK  6 active torsions:
REMARK  status: ('A' for Active; 'I' for Inactive)
REMARK    1  A    between atoms: C_2  and  OXT_3
REMARK    2  A    between atoms: C_2  and  CA_4
REMARK    3  A    between atoms: CA_4  and  N_5
REMARK    4  A    between atoms: CA_4  and  C_20
REMARK    5  A    between atoms: N_5  and  C_6
REMARK    6  A    between atoms: C_8  and  C_9
REMARK                            x       y       z     vdW  Elec       q    Type
REMARK                         _______ _______ _______ _____ _____    ______ ____
ROOT
ATOM      1  C   UNL     1       3.912   4.675  17.131  0.00  0.00    +0.000 A 
ATOM      2  N   UNL     1       3.664   5.988  17.247  0.00  0.00    +0.000 NA
ATOM      3  C   UNL     1       2.690   6.399  18.091  0.00  0.00    +0.000 A 
ATOM      4  N   UNL     1       1.982   5.551  18.862  0.00  0.00    +0.000 NA
ATOM      5  C   UNL     1       2.277   4.246  18.794  0.00  0.00    +0.000 A 
ATOM      6  C   UNL     1       1.577   3.367  19.609  0.00  0.00    +0.000 A 
ATOM      7  C   UNL     1       1.856   1.997  19.629  0.00  0.00    +0.000 A 
ATOM      8  C   UNL     1       2.859   1.487  18.818  0.00  0.00    +0.000 A 
ATOM      9  C   UNL     1       3.559   2.345  17.970  0.00  0.00    +0.000 A 
ATOM     10  C   UNL     1       3.270   3.734  17.948  0.00  0.00    +0.000 A 
ENDROOT
BRANCH   3  11
ATOM     11  C   UNL     1       2.469   7.911  18.238  0.00  0.00    +0.000 C 
ATOM     12  F   UNL     1       2.160   8.282  19.520  0.00  0.00    +0.000 F 
ATOM     13  F   UNL     1       3.549   8.667  17.889  0.00  0.00    +0.000 F 
ATOM     14  F   UNL     1       1.429   8.365  17.478  0.00  0.00    +0.000 F 
ENDBRANCH   3  11
BRANCH   1  15
ATOM     15  N   UNL     1       4.869   4.303  16.192  0.00  0.00    +0.000 N 
ATOM     16  H   UNL     1       5.270   3.395  16.415  0.00  0.00    +0.000 HD
BRANCH  15  17
ATOM     17  CA  UNL     1       5.912   5.260  15.718  0.00  0.00    +0.000 C 
BRANCH  17  18
ATOM     18  C   UNL     1       6.749   5.848  16.854  0.00  0.00    +0.000 A 
ATOM     19  C   UNL     1       7.045   7.219  16.946  0.00  0.00    +0.000 A 
ATOM     20  C   UNL     1       7.808   7.720  18.006  0.00  0.00    +0.000 A 
ATOM     21  C   UNL     1       8.286   6.862  18.992  0.00  0.00    +0.000 A 
ATOM     22  C   UNL     1       8.002   5.501  18.921  0.00  0.00    +0.000 A 
ATOM     23  C   UNL     1       7.241   4.998  17.861  0.00  0.00    +0.000 A 
ENDBRANCH  17  18
BRANCH  17  25
ATOM     24  O   UNL     1       6.379   3.779  13.826  0.00  0.00    +0.000 OA
ATOM     25  C   UNL     1       6.712   4.750  14.493  0.00  0.00    +0.000 C 
BRANCH  25  26
ATOM     26  OXT UNL     1       7.813   5.466  14.171  0.00  0.00    +0.000 OA
ATOM     27  HXT UNL     1       7.949   5.440  13.198  0.00  0.00    +0.000 HD
ENDBRANCH  25  26
ENDBRANCH  17  25
ENDBRANCH  15  17
ENDBRANCH   1  15
TORSDOF 6
ENDMDL
MODEL 7
REMARK VINA RESULT:      -8.2      3.121      4.888
REMARK  Name = 
REMARK  6 active torsions:
REMARK  status: ('A' for Active; 'I' for Inactive)
REMARK    1  A    between atoms: C_2  and  OXT_3
REMARK    2  A    between atoms: C_2  and  CA_4
REMARK    3  A    between atoms: CA_4  and  N_5
REMARK    4  A    between atoms: CA_4  and  C_20
REMARK    5  A    between atoms: N_5  and  C_6
REMARK    6  A    between atoms: C_8  and  C_9
REMARK                            x       y       z     vdW  Elec       q    Type
REMARK                         _______ _______ _______ _____ _____    ______ ____
ROOT
ATOM      1  C   UNL     1       3.748   5.196  17.719  0.00  0.00    +0.000 A 
ATOM      2  N   UNL     1       3.321   6.461  17.583  0.00  0.00    +0.000 NA
ATOM      3  C   UNL     1       2.493   6.976  18.521  0.00  0.00    +0.000 A 
ATOM      4  N   UNL     1       2.111   6.293  19.618  0.00  0.00    +0.000 NA
ATOM      5  C   UNL     1       2.593   5.054  19.785  0.00  0.00    +0.000 A 
ATOM      6  C   UNL     1       2.233   4.354  20.928  0.00  0.00    +0.000 A 
ATOM      7  C   UNL     1       2.729   3.075  21.197  0.00  0.00    +0.000 A 
ATOM      8  C   UNL     1       3.607   2.475  20.306  0.00  0.00    +0.000 A 
ATOM      9  C   UNL     1       3.964   3.147  19.137  0.00  0.00    +0.000 A 
ATOM     10  C   UNL     1       3.455   4.443  18.864  0.00  0.00    +0.000 A 
ENDROOT
BRANCH   3  11
ATOM     11  C   UNL     1       2.065   8.442  18.362  0.00  0.00    +0.000 C 
ATOM     12  F   UNL     1       3.079   9.248  17.920  0.00  0.00    +0.000 F 
ATOM     13  F   UNL     1       1.040   8.628  17.483  0.00  0.00    +0.000 F 
ATOM     14  F   UNL     1       1.657   8.999  19.542  0.00  0.00    +0.000 F 
ENDBRANCH   3  11
BRANCH   1  15
ATOM     15  N   UNL     1       4.533   4.691  16.688  0.00  0.00    +0.000 N 
ATOM     16  H   UNL     1       4.842   3.743  16.889  0.00  0.00    +0.000 HD
BRANCH  15  17
ATOM     17  CA  UNL     1       5.624   5.501  16.067  0.00  0.00    +0.000 C 
BRANCH  17  18
ATOM     18  C   UNL     1       6.602   6.076  17.091  0.00  0.00    +0.000 A 
ATOM     19  C   UNL     1       7.014   7.420  17.072  0.00  0.00    +0.000 A 
ATOM     20  C   UNL     1       7.905   7.912  18.032  0.00  0.00    +0.000 A 
ATOM     21  C   UNL     1       8.397   7.072  19.026  0.00  0.00    +0.000 A 
ATOM     22  C   UNL     1       8.000   5.738  19.063  0.00  0.00    +0.000 A 
ATOM     23  C   UNL     1       7.111   5.244  18.104  0.00  0.00    +0.000 A 
ENDBRANCH  17  18
BRANCH  17  25
ATOM     24  O   UNL     1       5.704   3.982  14.148  0.00  0.00    +0.000 OA
ATOM     25  C   UNL     1       6.270   4.827  14.830  0.00  0.00    +0.000 C 
BRANCH  25  26
ATOM     26  OXT UNL     1       7.515   5.249  14.515  0.00  0.00    +0.000 OA
ATOM     27  HXT UNL     1       7.590   6.213  14.692  0.00  0.00    +0.000 HD
ENDBRANCH  25  26
ENDBRANCH  17  25
ENDBRANCH  15  17
ENDBRANCH   1  15
TORSDOF 6
ENDMDL
MODEL 8
REMARK VINA RESULT:      -8.2      3.176      6.718
REMARK  Name = 
REMARK  6 active torsions:
REMARK  status: ('A' for Active; 'I' for Inactive)
REMARK    1  A    between atoms: C_2  and  OXT_3
REMARK    2  A    between atoms: C_2  and  CA_4
REMARK    3  A    between atoms: CA_4  and  N_5
REMARK    4  A    between atoms: CA_4  and  C_20
REMARK    5  A    between atoms: N_5  and  C_6
REMARK    6  A    between atoms: C_8  and  C_9
REMARK                            x       y       z     vdW  Elec       q    Type
REMARK                         _______ _______ _______ _____ _____    ______ ____
ROOT
ATOM      1  C   UNL     1       5.191   4.534  16.022  0.00  0.00    +0.000 A 
ATOM      2  N   UNL     1       5.744   5.385  16.900  0.00  0.00    +0.000 NA
ATOM      3  C   UNL     1       6.919   5.976  16.585  0.00  0.00    +0.000 A 
ATOM      4  N   UNL     1       7.543   5.789  15.406  0.00  0.00    +0.000 NA
ATOM      5  C   UNL     1       6.955   4.991  14.505  0.00  0.00    +0.000 A 
ATOM      6  C   UNL     1       7.572   4.818  13.274  0.00  0.00    +0.000 A 
ATOM      7  C   UNL     1       6.999   4.038  12.265  0.00  0.00    +0.000 A 
ATOM      8  C   UNL     1       5.780   3.414  12.485  0.00  0.00    +0.000 A 
ATOM      9  C   UNL     1       5.153   3.551  13.722  0.00  0.00    +0.000 A 
ATOM     10  C   UNL     1       5.738   4.338  14.747  0.00  0.00    +0.000 A 
ENDROOT
BRANCH   3  11
ATOM     11  C   UNL     1       7.498   6.984  17.589  0.00  0.00    +0.000 C 
ATOM     12  F   UNL     1       6.536   7.750  18.191  0.00  0.00    +0.000 F 
ATOM     13  F   UNL     1       8.199   6.411  18.609  0.00  0.00    +0.000 F 
ATOM     14  F   UNL     1       8.348   7.879  17.003  0.00  0.00    +0.000 F 
ENDBRANCH   3  11
BRANCH   1  15
ATOM     15  N   UNL     1       4.024   3.894  16.427  0.00  0.00    +0.000 N 
ATOM     16  H   UNL     1       3.199   4.380  16.085  0.00  0.00    +0.000 HD
BRANCH  15  17
ATOM     17  CA  UNL     1       3.839   3.424  17.833  0.00  0.00    +0.000 C 
BRANCH  17  18
ATOM     18  C   UNL     1       3.143   4.454  18.724  0.00  0.00    +0.000 A 
ATOM     19  C   UNL     1       2.731   4.164  20.036  0.00  0.00    +0.000 A 
ATOM     20  C   UNL     1       2.105   5.137  20.823  0.00  0.00    +0.000 A 
ATOM     21  C   UNL     1       1.882   6.413  20.315  0.00  0.00    +0.000 A 
ATOM     22  C   UNL     1       2.285   6.721  19.018  0.00  0.00    +0.000 A 
ATOM     23  C   UNL     1       2.909   5.750  18.229  0.00  0.00    +0.000 A 
ENDBRANCH  17  18
BRANCH  17  25
ATOM     24  O   UNL     1       3.924   1.056  18.448  0.00  0.00    +0.000 OA
ATOM     25  C   UNL     1       3.297   1.976  17.937  0.00  0.00    +0.000 C 
BRANCH  25  26
ATOM     26  OXT UNL     1       2.054   1.777  17.447  0.00  0.00    +0.000 OA
ATOM     27  HXT UNL     1       1.467   1.444  18.163  0.00  0.00    +0.000 HD
ENDBRANCH  25  26
ENDBRANCH  17  25
ENDBRANCH  15  17
ENDBRANCH   1  15
TORSDOF 6
ENDMDL
MODEL 9
REMARK VINA RESULT:      -8.0      3.195      6.735
REMARK  Name = 
REMARK  6 active torsions:
REMARK  status: ('A' for Active; 'I' for Inactive)
REMARK    1  A    between atoms: C_2  and  OXT_3
REMARK    2  A    between atoms: C_2  and  CA_4
REMARK    3  A    between atoms: CA_4  and  N_5
REMARK    4  A    between atoms: CA_4  and  C_20
REMARK    5  A    between atoms: N_5  and  C_6
REMARK    6  A    between atoms: C_8  and  C_9
REMARK                            x       y       z     vdW  Elec       q    Type
REMARK                         _______ _______ _______ _____ _____    ______ ____
ROOT
ATOM      1  C   UNL     1       5.193   4.692  16.008  0.00  0.00    +0.000 A 
ATOM      2  N   UNL     1       5.751   5.548  16.877  0.00  0.00    +0.000 NA
ATOM      3  C   UNL     1       6.951   6.095  16.577  0.00  0.00    +0.000 A 
ATOM      4  N   UNL     1       7.597   5.858  15.419  0.00  0.00    +0.000 NA
ATOM      5  C   UNL     1       7.006   5.055  14.524  0.00  0.00    +0.000 A 
ATOM      6  C   UNL     1       7.647   4.831  13.313  0.00  0.00    +0.000 A 
ATOM      7  C   UNL     1       7.074   4.043  12.310  0.00  0.00    +0.000 A 
ATOM      8  C   UNL     1       5.832   3.462  12.516  0.00  0.00    +0.000 A 
ATOM      9  C   UNL     1       5.179   3.650  13.734  0.00  0.00    +0.000 A 
ATOM     10  C   UNL     1       5.764   4.446  14.752  0.00  0.00    +0.000 A 
ENDROOT
BRANCH   3  11
ATOM     11  C   UNL     1       7.537   7.110  17.569  0.00  0.00    +0.000 C 
ATOM     12  F   UNL     1       8.452   7.951  16.994  0.00  0.00    +0.000 F 
ATOM     13  F   UNL     1       6.606   7.923  18.146  0.00  0.00    +0.000 F 
ATOM     14  F   UNL     1       8.205   6.511  18.599  0.00  0.00    +0.000 F 
ENDBRANCH   3  11
BRANCH   1  15
ATOM     15  N   UNL     1       3.998   4.098  16.400  0.00  0.00    +0.000 N 
ATOM     16  H   UNL     1       3.196   4.641  16.088  0.00  0.00    +0.000 HD
BRANCH  15  17
ATOM     17  CA  UNL     1       3.801   3.581  17.788  0.00  0.00    +0.000 C 
BRANCH  17  18
ATOM     18  C   UNL     1       3.111   4.586  18.711  0.00  0.00    +0.000 A 
ATOM     19  C   UNL     1       2.662   4.247  19.999  0.00  0.00    +0.000 A 
ATOM     20  C   UNL     1       2.043   5.197  20.817  0.00  0.00    +0.000 A 
ATOM     21  C   UNL     1       1.863   6.500  20.365  0.00  0.00    +0.000 A 
ATOM     22  C   UNL     1       2.303   6.858  19.094  0.00  0.00    +0.000 A 
ATOM     23  C   UNL     1       2.920   5.910  18.273  0.00  0.00    +0.000 A 
ENDBRANCH  17  18
BRANCH  17  25
ATOM     24  O   UNL     1       2.115   1.833  17.475  0.00  0.00    +0.000 OA
ATOM     25  C   UNL     1       3.245   2.136  17.839  0.00  0.00    +0.000 C 
BRANCH  25  26
ATOM     26  OXT UNL     1       4.100   1.193  18.293  0.00  0.00    +0.000 OA
ATOM     27  HXT UNL     1       3.801   0.875  19.174  0.00  0.00    +0.000 HD
ENDBRANCH  25  26
ENDBRANCH  17  25
ENDBRANCH  15  17
ENDBRANCH   1  15
TORSDOF 6
ENDMDL
