MODEL 1
REMARK VINA RESULT:      -7.4      0.000      0.000
REMARK  Name = 
REMARK  5 active torsions:
REMARK  status: ('A' for Active; 'I' for Inactive)
REMARK    1  A    between atoms: C_2  and  O_3
REMARK    2  A    between atoms: C_2  and  C_4
REMARK    3  A    between atoms: C_4  and  C_5
REMARK    4  A    between atoms: C_9  and  C_10
REMARK    5  A    between atoms: C_10  and  C_12
REMARK                            x       y       z     vdW  Elec       q    Type
REMARK                         _______ _______ _______ _____ _____    ______ ____
ROOT
ATOM      1  C   UNL     1       5.839   5.273  16.535  0.00  0.00    +0.000 A 
ATOM      2  C   UNL     1       6.771   6.085  17.196  0.00  0.00    +0.000 A 
ATOM      3  C   UNL     1       6.942   5.987  18.578  0.00  0.00    +0.000 A 
ATOM      4  C   UNL     1       6.206   5.058  19.311  0.00  0.00    +0.000 A 
ATOM      5  C   UNL     1       5.291   4.222  18.665  0.00  0.00    +0.000 A 
ATOM      6  C   UNL     1       5.077   4.364  17.287  0.00  0.00    +0.000 A 
ENDROOT
BRANCH   5   7
ATOM      7  C   UNL     1       4.557   3.210  19.472  0.00  0.00    +0.000 C 
ATOM      8  O   UNL     1       5.196   2.366  20.096  0.00  0.00    +0.000 OA
BRANCH   7   9
ATOM      9  C   UNL     1       3.070   3.192  19.533  0.00  0.00    +0.000 A 
ATOM     10  C   UNL     1       2.428   4.087  20.399  0.00  0.00    +0.000 A 
ATOM     11  C   UNL     1       1.035   4.118  20.465  0.00  0.00    +0.000 A 
ATOM     12  C   UNL     1       0.277   3.256  19.673  0.00  0.00    +0.000 A 
ATOM     13  C   UNL     1       0.910   2.343  18.831  0.00  0.00    +0.000 A 
ATOM     14  C   UNL     1       2.304   2.298  18.772  0.00  0.00    +0.000 A 
ENDBRANCH   7   9
ENDBRANCH   5   7
BRANCH   1  15
ATOM     15  C   UNL     1       5.639   5.387  15.039  0.00  0.00    +0.000 C 
BRANCH  15  17
ATOM     16  O   UNL     1       7.790   5.347  13.949  0.00  0.00    +0.000 OA
ATOM     17  C   UNL     1       6.736   4.777  14.189  0.00  0.00    +0.000 C 
BRANCH  17  18
ATOM     18  O   UNL     1       6.502   3.513  13.763  0.00  0.00    +0.000 OA
ATOM     19  H   UNL     1       6.874   2.821  14.343  0.00  0.00    +0.000 HD
ENDBRANCH  17  18
ENDBRANCH  15  17
ENDBRANCH   1  15
TORSDOF 5
ENDMDL
MODEL 2
REMARK VINA RESULT:      -7.3      1.819      1.906
REMARK  Name = 
REMARK  5 active torsions:
REMARK  status: ('A' for Active; 'I' for Inactive)
REMARK    1  A    between atoms: C_2  and  O_3
REMARK    2  A    between atoms: C_2  and  C_4
REMARK    3  A    between atoms: C_4  and  C_5
REMARK    4  A    between atoms: C_9  and  C_10
REMARK    5  A    between atoms: C_10  and  C_12
REMARK                            x       y       z     vdW  Elec       q    Type
REMARK                         _______ _______ _______ _____ _____    ______ ____
ROOT
ATOM      1  C   UNL     1       6.223   4.440  15.989  0.00  0.00    +0.000 A 
ATOM      2  C   UNL     1       7.304   4.557  16.874  0.00  0.00    +0.000 A 
ATOM      3  C   UNL     1       7.127   5.125  18.137  0.00  0.00    +0.000 A 
ATOM      4  C   UNL     1       5.864   5.554  18.542  0.00  0.00    +0.000 A 
ATOM      5  C   UNL     1       4.770   5.422  17.681  0.00  0.00    +0.000 A 
ATOM      6  C   UNL     1       4.962   4.908  16.391  0.00  0.00    +0.000 A 
ENDROOT
BRANCH   5   7
ATOM      7  C   UNL     1       3.429   5.848  18.165  0.00  0.00    +0.000 C 
ATOM      8  O   UNL     1       3.105   7.029  18.063  0.00  0.00    +0.000 OA
BRANCH   7   9
ATOM      9  C   UNL     1       2.477   4.879  18.774  0.00  0.00    +0.000 A 
ATOM     10  C   UNL     1       2.207   4.984  20.145  0.00  0.00    +0.000 A 
ATOM     11  C   UNL     1       1.302   4.110  20.748  0.00  0.00    +0.000 A 
ATOM     12  C   UNL     1       0.668   3.127  19.990  0.00  0.00    +0.000 A 
ATOM     13  C   UNL     1       0.954   2.998  18.632  0.00  0.00    +0.000 A 
ATOM     14  C   UNL     1       1.870   3.861  18.027  0.00  0.00    +0.000 A 
ENDBRANCH   7   9
ENDBRANCH   5   7
BRANCH   1  15
ATOM     15  C   UNL     1       6.415   3.841  14.613  0.00  0.00    +0.000 C 
BRANCH  15  17
ATOM     16  O   UNL     1       7.921   5.616  13.983  0.00  0.00    +0.000 OA
ATOM     17  C   UNL     1       7.196   4.696  13.635  0.00  0.00    +0.000 C 
BRANCH  17  18
ATOM     18  O   UNL     1       7.094   4.328  12.336  0.00  0.00    +0.000 OA
ATOM     19  H   UNL     1       7.057   5.077  11.711  0.00  0.00    +0.000 HD
ENDBRANCH  17  18
ENDBRANCH  15  17
ENDBRANCH   1  15
TORSDOF 5
ENDMDL
MODEL 3
REMARK VINA RESULT:      -7.3      1.300      1.483
REMARK  Name = 
REMARK  5 active torsions:
REMARK  status: ('A' for Active; 'I' for Inactive)
REMARK    1  A    between atoms: C_2  and  O_3
REMARK    2  A    between atoms: C_2  and  C_4
REMARK    3  A    between atoms: C_4  and  C_5
REMARK    4  A    between atoms: C_9  and  C_10
REMARK    5  A    between atoms: C_10  and  C_12
REMARK                            x       y       z     vdW  Elec       q    Type
REMARK                         _______ _______ _______ _____ _____    ______ ____
ROOT
ATOM      1  C   UNL     1       5.516   4.770  15.286  0.00  0.00    +0.000 A 
ATOM      2  C   UNL     1       5.285   6.152  15.332  0.00  0.00    +0.000 A 
ATOM      3  C   UNL     1       4.764   6.745  16.483  0.00  0.00    +0.000 A 
ATOM      4  C   UNL     1       4.497   5.970  17.611  0.00  0.00    +0.000 A 
ATOM      5  C   UNL     1       4.746   4.595  17.592  0.00  0.00    +0.000 A 
ATOM      6  C   UNL     1       5.211   3.992  16.414  0.00  0.00    +0.000 A 
ENDROOT
BRANCH   5   7
ATOM      7  C   UNL     1       4.493   3.807  18.829  0.00  0.00    +0.000 C 
ATOM      8  O   UNL     1       5.448   3.449  19.514  0.00  0.00    +0.000 OA
BRANCH   7   9
ATOM      9  C   UNL     1       3.113   3.438  19.247  0.00  0.00    +0.000 A 
ATOM     10  C   UNL     1       2.713   3.733  20.557  0.00  0.00    +0.000 A 
ATOM     11  C   UNL     1       1.419   3.426  20.979  0.00  0.00    +0.000 A 
ATOM     12  C   UNL     1       0.522   2.820  20.100  0.00  0.00    +0.000 A 
ATOM     13  C   UNL     1       0.923   2.496  18.805  0.00  0.00    +0.000 A 
ATOM     14  C   UNL     1       2.221   2.790  18.382  0.00  0.00    +0.000 A 
ENDBRANCH   7   9
ENDBRANCH   5   7
BRANCH   1  15
ATOM     15  C   UNL     1       6.066   4.121  14.034  0.00  0.00    +0.000 C 
BRANCH  15  17
ATOM     16  O   UNL     1       8.054   5.485  14.045  0.00  0.00    +0.000 OA
ATOM     17  C   UNL     1       7.249   4.826  13.403  0.00  0.00    +0.000 C 
BRANCH  17  18
ATOM     18  O   UNL     1       7.403   4.621  12.073  0.00  0.00    +0.000 OA
ATOM     19  H   UNL     1       6.869   5.217  11.514  0.00  0.00    +0.000 HD
ENDBRANCH  17  18
ENDBRANCH  15  17
ENDBRANCH   1  15
TORSDOF 5
ENDMDL
MODEL 4
REMARK VINA RESULT:      -7.3      2.001      2.476
REMARK  Name = 
REMARK  5 active torsions:
REMARK  status: ('A' for Active; 'I' for Inactive)
REMARK    1  A    between atoms: C_2  and  O_3
REMARK    2  A    between atoms: C_2  and  C_4
REMARK    3  A    between atoms: C_4  and  C_5
REMARK    4  A    between atoms: C_9  and  C_10
REMARK    5  A    between atoms: C_10  and  C_12
REMARK                            x       y       z     vdW  Elec       q    Type
REMARK                         _______ _______ _______ _____ _____    ______ ____
ROOT
ATOM      1  C   UNL     1       6.255   4.547  15.602  0.00  0.00    +0.000 A 
ATOM      2  C   UNL     1       7.322   4.461  16.507  0.00  0.00    +0.000 A 
ATOM      3  C   UNL     1       7.198   4.975  17.798  0.00  0.00    +0.000 A 
ATOM      4  C   UNL     1       5.999   5.554  18.211  0.00  0.00    +0.000 A 
ATOM      5  C   UNL     1       4.916   5.624  17.330  0.00  0.00    +0.000 A 
ATOM      6  C   UNL     1       5.062   5.163  16.014  0.00  0.00    +0.000 A 
ENDROOT
BRANCH   5   7
ATOM      7  C   UNL     1       3.636   6.206  17.819  0.00  0.00    +0.000 C 
ATOM      8  O   UNL     1       3.376   7.378  17.563  0.00  0.00    +0.000 OA
BRANCH   7   9
ATOM      9  C   UNL     1       2.672   5.401  18.619  0.00  0.00    +0.000 A 
ATOM     10  C   UNL     1       2.045   4.310  18.005  0.00  0.00    +0.000 A 
ATOM     11  C   UNL     1       1.154   3.517  18.729  0.00  0.00    +0.000 A 
ATOM     12  C   UNL     1       0.882   3.811  20.065  0.00  0.00    +0.000 A 
ATOM     13  C   UNL     1       1.479   4.913  20.673  0.00  0.00    +0.000 A 
ATOM     14  C   UNL     1       2.361   5.718  19.949  0.00  0.00    +0.000 A 
ENDBRANCH   7   9
ENDBRANCH   5   7
BRANCH   1  15
ATOM     15  C   UNL     1       6.390   4.005  14.195  0.00  0.00    +0.000 C 
BRANCH  15  17
ATOM     16  O   UNL     1       8.042   5.684  13.675  0.00  0.00    +0.000 OA
ATOM     17  C   UNL     1       7.294   4.803  13.277  0.00  0.00    +0.000 C 
BRANCH  17  18
ATOM     18  O   UNL     1       7.273   4.428  11.976  0.00  0.00    +0.000 OA
ATOM     19  H   UNL     1       6.402   4.530  11.546  0.00  0.00    +0.000 HD
ENDBRANCH  17  18
ENDBRANCH  15  17
ENDBRANCH   1  15
TORSDOF 5
ENDMDL
MODEL 5
REMARK VINA RESULT:      -7.3      1.859      2.356
REMARK  Name = 
REMARK  5 active torsions:
REMARK  status: ('A' for Active; 'I' for Inactive)
REMARK    1  A    between atoms: C_2  and  O_3
REMARK    2  A    between atoms: C_2  and  C_4
REMARK    3  A    between atoms: C_4  and  C_5
REMARK    4  A    between atoms: C_9  and  C_10
REMARK    5  A    between atoms: C_10  and  C_12
REMARK                            x       y       z     vdW  Elec       q    Type
REMARK                         _______ _______ _______ _____ _____    ______ ____
ROOT
ATOM      1  C   UNL     1       5.643   4.991  16.436  0.00  0.00    +0.000 A 
ATOM      2  C   UNL     1       5.680   6.377  16.645  0.00  0.00    +0.000 A 
ATOM      3  C   UNL     1       4.592   7.035  17.221  0.00  0.00    +0.000 A 
ATOM      4  C   UNL     1       3.468   6.315  17.622  0.00  0.00    +0.000 A 
ATOM      5  C   UNL     1       3.425   4.929  17.445  0.00  0.00    +0.000 A 
ATOM      6  C   UNL     1       4.493   4.278  16.810  0.00  0.00    +0.000 A 
ENDROOT
BRANCH   5   7
ATOM      7  C   UNL     1       2.229   4.186  17.927  0.00  0.00    +0.000 C 
ATOM      8  O   UNL     1       1.252   4.084  17.189  0.00  0.00    +0.000 OA
BRANCH   7   9
ATOM      9  C   UNL     1       2.188   3.575  19.284  0.00  0.00    +0.000 A 
ATOM     10  C   UNL     1       3.362   3.008  19.794  0.00  0.00    +0.000 A 
ATOM     11  C   UNL     1       3.370   2.448  21.072  0.00  0.00    +0.000 A 
ATOM     12  C   UNL     1       2.208   2.447  21.843  0.00  0.00    +0.000 A 
ATOM     13  C   UNL     1       1.029   2.983  21.330  0.00  0.00    +0.000 A 
ATOM     14  C   UNL     1       1.012   3.532  20.046  0.00  0.00    +0.000 A 
ENDBRANCH   7   9
ENDBRANCH   5   7
BRANCH   1  15
ATOM     15  C   UNL     1       6.814   4.276  15.797  0.00  0.00    +0.000 C 
BRANCH  15  17
ATOM     16  O   UNL     1       7.682   5.440  13.872  0.00  0.00    +0.000 OA
ATOM     17  C   UNL     1       6.998   4.529  14.314  0.00  0.00    +0.000 C 
BRANCH  17  18
ATOM     18  O   UNL     1       6.406   3.627  13.496  0.00  0.00    +0.000 OA
ATOM     19  H   UNL     1       5.663   3.144  13.906  0.00  0.00    +0.000 HD
ENDBRANCH  17  18
ENDBRANCH  15  17
ENDBRANCH   1  15
TORSDOF 5
ENDMDL
MODEL 6
REMARK VINA RESULT:      -7.3      2.546      3.540
REMARK  Name = 
REMARK  5 active torsions:
REMARK  status: ('A' for Active; 'I' for Inactive)
REMARK    1  A    between atoms: C_2  and  O_3
REMARK    2  A    between atoms: C_2  and  C_4
REMARK    3  A    between atoms: C_4  and  C_5
REMARK    4  A    between atoms: C_9  and  C_10
REMARK    5  A    between atoms: C_10  and  C_12
REMARK                            x       y       z     vdW  Elec       q    Type
REMARK                         _______ _______ _______ _____ _____    ______ ____
ROOT
ATOM      1  C   UNL     1       6.794   5.704  17.904  0.00  0.00    +0.000 A 
ATOM      2  C   UNL     1       7.009   4.867  16.800  0.00  0.00    +0.000 A 
ATOM      3  C   UNL     1       5.939   4.206  16.194  0.00  0.00    +0.000 A 
ATOM      4  C   UNL     1       4.640   4.396  16.663  0.00  0.00    +0.000 A 
ATOM      5  C   UNL     1       4.405   5.248  17.746  0.00  0.00    +0.000 A 
ATOM      6  C   UNL     1       5.487   5.862  18.392  0.00  0.00    +0.000 A 
ENDROOT
BRANCH   5   7
ATOM      7  C   UNL     1       3.001   5.464  18.190  0.00  0.00    +0.000 C 
ATOM      8  O   UNL     1       2.367   6.409  17.728  0.00  0.00    +0.000 OA
BRANCH   7   9
ATOM      9  C   UNL     1       2.354   4.567  19.187  0.00  0.00    +0.000 A 
ATOM     10  C   UNL     1       1.413   3.634  18.731  0.00  0.00    +0.000 A 
ATOM     11  C   UNL     1       0.804   2.759  19.631  0.00  0.00    +0.000 A 
ATOM     12  C   UNL     1       1.126   2.813  20.987  0.00  0.00    +0.000 A 
ATOM     13  C   UNL     1       2.038   3.759  21.451  0.00  0.00    +0.000 A 
ATOM     14  C   UNL     1       2.640   4.646  20.557  0.00  0.00    +0.000 A 
ENDBRANCH   7   9
ENDBRANCH   5   7
BRANCH   1  15
ATOM     15  C   UNL     1       7.953   6.410  18.574  0.00  0.00    +0.000 C 
BRANCH  15  17
ATOM     16  O   UNL     1       7.658   8.344  17.165  0.00  0.00    +0.000 OA
ATOM     17  C   UNL     1       8.153   7.857  18.171  0.00  0.00    +0.000 C 
BRANCH  17  18
ATOM     18  O   UNL     1       8.868   8.607  19.043  0.00  0.00    +0.000 OA
ATOM     19  H   UNL     1       9.595   9.113  18.631  0.00  0.00    +0.000 HD
ENDBRANCH  17  18
ENDBRANCH  15  17
ENDBRANCH   1  15
TORSDOF 5
ENDMDL
MODEL 7
REMARK VINA RESULT:      -7.3      2.141      6.304
REMARK  Name = 
REMARK  5 active torsions:
REMARK  status: ('A' for Active; 'I' for Inactive)
REMARK    1  A    between atoms: C_2  and  O_3
REMARK    2  A    between atoms: C_2  and  C_4
REMARK    3  A    between atoms: C_4  and  C_5
REMARK    4  A    between atoms: C_9  and  C_10
REMARK    5  A    between atoms: C_10  and  C_12
REMARK                            x       y       z     vdW  Elec       q    Type
REMARK                         _______ _______ _______ _____ _____    ______ ____
ROOT
ATOM      1  C   UNL     1       3.183   4.209  17.515  0.00  0.00    +0.000 A 
ATOM      2  C   UNL     1       2.917   5.518  17.938  0.00  0.00    +0.000 A 
ATOM      3  C   UNL     1       3.876   6.520  17.786  0.00  0.00    +0.000 A 
ATOM      4  C   UNL     1       5.100   6.234  17.183  0.00  0.00    +0.000 A 
ATOM      5  C   UNL     1       5.372   4.939  16.732  0.00  0.00    +0.000 A 
ATOM      6  C   UNL     1       4.432   3.921  16.941  0.00  0.00    +0.000 A 
ENDROOT
BRANCH   5   7
ATOM      7  C   UNL     1       6.670   4.681  16.051  0.00  0.00    +0.000 C 
ATOM      8  O   UNL     1       7.694   4.610  16.726  0.00  0.00    +0.000 OA
BRANCH   7   9
ATOM      9  C   UNL     1       6.755   4.518  14.574  0.00  0.00    +0.000 A 
ATOM     10  C   UNL     1       7.668   5.311  13.867  0.00  0.00    +0.000 A 
ATOM     11  C   UNL     1       7.794   5.169  12.485  0.00  0.00    +0.000 A 
ATOM     12  C   UNL     1       7.009   4.241  11.802  0.00  0.00    +0.000 A 
ATOM     13  C   UNL     1       6.077   3.470  12.495  0.00  0.00    +0.000 A 
ATOM     14  C   UNL     1       5.937   3.618  13.876  0.00  0.00    +0.000 A 
ENDBRANCH   7   9
ENDBRANCH   5   7
BRANCH   1  15
ATOM     15  C   UNL     1       2.152   3.115  17.693  0.00  0.00    +0.000 C 
BRANCH  15  17
ATOM     16  O   UNL     1       1.925   2.224  19.922  0.00  0.00    +0.000 OA
ATOM     17  C   UNL     1       2.433   2.134  18.814  0.00  0.00    +0.000 C 
BRANCH  17  18
ATOM     18  O   UNL     1       3.239   1.097  18.486  0.00  0.00    +0.000 OA
ATOM     19  H   UNL     1       3.038   0.694  17.619  0.00  0.00    +0.000 HD
ENDBRANCH  17  18
ENDBRANCH  15  17
ENDBRANCH   1  15
TORSDOF 5
ENDMDL
MODEL 8
REMARK VINA RESULT:      -7.3      2.546      3.382
REMARK  Name = 
REMARK  5 active torsions:
REMARK  status: ('A' for Active; 'I' for Inactive)
REMARK    1  A    between atoms: C_2  and  O_3
REMARK    2  A    between atoms: C_2  and  C_4
REMARK    3  A    between atoms: C_4  and  C_5
REMARK    4  A    between atoms: C_9  and  C_10
REMARK    5  A    between atoms: C_10  and  C_12
REMARK                            x       y       z     vdW  Elec       q    Type
REMARK                         _______ _______ _______ _____ _____    ______ ____
ROOT
ATOM      1  C   UNL     1       6.802   5.721  17.898  0.00  0.00    +0.000 A 
ATOM      2  C   UNL     1       7.008   4.881  16.795  0.00  0.00    +0.000 A 
ATOM      3  C   UNL     1       5.934   4.219  16.198  0.00  0.00    +0.000 A 
ATOM      4  C   UNL     1       4.639   4.412  16.677  0.00  0.00    +0.000 A 
ATOM      5  C   UNL     1       4.412   5.267  17.760  0.00  0.00    +0.000 A 
ATOM      6  C   UNL     1       5.499   5.882  18.396  0.00  0.00    +0.000 A 
ENDROOT
BRANCH   5   7
ATOM      7  C   UNL     1       3.012   5.485  18.214  0.00  0.00    +0.000 C 
ATOM      8  O   UNL     1       2.402   6.473  17.814  0.00  0.00    +0.000 OA
BRANCH   7   9
ATOM      9  C   UNL     1       2.340   4.538  19.146  0.00  0.00    +0.000 A 
ATOM     10  C   UNL     1       2.662   4.605  20.508  0.00  0.00    +0.000 A 
ATOM     11  C   UNL     1       2.035   3.751  21.417  0.00  0.00    +0.000 A 
ATOM     12  C   UNL     1       1.091   2.827  20.972  0.00  0.00    +0.000 A 
ATOM     13  C   UNL     1       0.788   2.735  19.614  0.00  0.00    +0.000 A 
ATOM     14  C   UNL     1       1.423   3.578  18.699  0.00  0.00    +0.000 A 
ENDBRANCH   7   9
ENDBRANCH   5   7
BRANCH   1  15
ATOM     15  C   UNL     1       7.967   6.427  18.558  0.00  0.00    +0.000 C 
BRANCH  15  17
ATOM     16  O   UNL     1       7.635   8.377  17.179  0.00  0.00    +0.000 OA
ATOM     17  C   UNL     1       8.149   7.881  18.170  0.00  0.00    +0.000 C 
BRANCH  17  18
ATOM     18  O   UNL     1       8.871   8.625  19.041  0.00  0.00    +0.000 OA
ATOM     19  H   UNL     1       8.430   9.450  19.322  0.00  0.00    +0.000 HD
ENDBRANCH  17  18
ENDBRANCH  15  17
ENDBRANCH   1  15
TORSDOF 5
ENDMDL
MODEL 9
REMARK VINA RESULT:      -7.2      1.430      1.715
REMARK  Name = 
REMARK  5 active torsions:
REMARK  status: ('A' for Active; 'I' for Inactive)
REMARK    1  A    between atoms: C_2  and  O_3
REMARK    2  A    between atoms: C_2  and  C_4
REMARK    3  A    between atoms: C_4  and  C_5
REMARK    4  A    between atoms: C_9  and  C_10
REMARK    5  A    between atoms: C_10  and  C_12
REMARK                            x       y       z     vdW  Elec       q    Type
REMARK                         _______ _______ _______ _____ _____    ______ ____
ROOT
ATOM      1  C   UNL     1       5.939   4.872  15.338  0.00  0.00    +0.000 A 
ATOM      2  C   UNL     1       5.492   6.199  15.279  0.00  0.00    +0.000 A 
ATOM      3  C   UNL     1       4.723   6.734  16.314  0.00  0.00    +0.000 A 
ATOM      4  C   UNL     1       4.418   5.960  17.432  0.00  0.00    +0.000 A 
ATOM      5  C   UNL     1       4.877   4.643  17.519  0.00  0.00    +0.000 A 
ATOM      6  C   UNL     1       5.597   4.088  16.451  0.00  0.00    +0.000 A 
ENDROOT
BRANCH   5   7
ATOM      7  C   UNL     1       4.572   3.861  18.748  0.00  0.00    +0.000 C 
ATOM      8  O   UNL     1       5.499   3.443  19.436  0.00  0.00    +0.000 OA
BRANCH   7   9
ATOM      9  C   UNL     1       3.170   3.569  19.155  0.00  0.00    +0.000 A 
ATOM     10  C   UNL     1       2.675   4.171  20.319  0.00  0.00    +0.000 A 
ATOM     11  C   UNL     1       1.358   3.941  20.719  0.00  0.00    +0.000 A 
ATOM     12  C   UNL     1       0.533   3.108  19.966  0.00  0.00    +0.000 A 
ATOM     13  C   UNL     1       1.028   2.482  18.823  0.00  0.00    +0.000 A 
ATOM     14  C   UNL     1       2.349   2.698  18.426  0.00  0.00    +0.000 A 
ENDBRANCH   7   9
ENDBRANCH   5   7
BRANCH   1  15
ATOM     15  C   UNL     1       6.759   4.283  14.210  0.00  0.00    +0.000 C 
BRANCH  15  17
ATOM     16  O   UNL     1       4.774   3.831  12.917  0.00  0.00    +0.000 OA
ATOM     17  C   UNL     1       5.962   3.614  13.108  0.00  0.00    +0.000 C 
BRANCH  17  18
ATOM     18  O   UNL     1       6.673   2.799  12.293  0.00  0.00    +0.000 OA
ATOM     19  H   UNL     1       6.141   2.105  11.860  0.00  0.00    +0.000 HD
ENDBRANCH  17  18
ENDBRANCH  15  17
ENDBRANCH   1  15
TORSDOF 5
ENDMDL
