MODEL 1
REMARK VINA RESULT:      -8.5      0.000      0.000
REMARK  Name = 
REMARK  2 active torsions:
REMARK  status: ('A' for Active; 'I' for Inactive)
REMARK    1  A    between atoms: C_4  and  C_5
REMARK    2  A    between atoms: N_8  and  C_9
REMARK                            x       y       z     vdW  Elec       q    Type
REMARK                         _______ _______ _______ _____ _____    ______ ____
ROOT
ATOM      1  C   UNL     1       7.363   5.295  15.917  0.00  0.00    +0.000 C 
ATOM      2  C   UNL     1       6.967   4.414  17.108  0.00  0.00    +0.000 C 
ATOM      3  C   UNL     1       5.469   4.468  17.432  0.00  0.00    +0.000 C 
ATOM      4  N   UNL     1       4.958   5.827  17.613  0.00  0.00    +0.000 NA
ATOM      5  C   UNL     1       5.326   6.723  16.510  0.00  0.00    +0.000 C 
ATOM      6  C   UNL     1       6.834   6.706  16.221  0.00  0.00    +0.000 C 
ENDROOT
BRANCH   4   7
ATOM      7  C   UNL     1       3.510   5.894  17.980  0.00  0.00    +0.000 C 
ATOM      8  C   UNL     1       3.395   6.469  19.419  0.00  0.00    +0.000 C 
ATOM      9  C   UNL     1       2.054   6.195  20.032  0.00  0.00    +0.000 C 
ATOM     10  C   UNL     1       1.888   4.709  20.068  0.00  0.00    +0.000 A 
ATOM     11  C   UNL     1       1.788   3.981  21.247  0.00  0.00    +0.000 A 
ATOM     12  C   UNL     1       1.284   2.689  21.204  0.00  0.00    +0.000 A 
ATOM     13  C   UNL     1       0.826   2.177  19.990  0.00  0.00    +0.000 A 
ATOM     14  C   UNL     1       1.126   2.845  18.796  0.00  0.00    +0.000 A 
ATOM     15  C   UNL     1       1.817   4.057  18.843  0.00  0.00    +0.000 A 
ATOM     16  C   UNL     1       2.548   4.665  17.659  0.00  0.00    +0.000 C 
ENDBRANCH   4   7
BRANCH   1  20
ATOM     17  C   UNL     1       6.400   3.808  11.946  0.00  0.00    +0.000 A 
ATOM     18  C   UNL     1       5.647   3.384  13.034  0.00  0.00    +0.000 A 
ATOM     19  C   UNL     1       5.947   3.843  14.319  0.00  0.00    +0.000 A 
ATOM     20  C   UNL     1       6.984   4.764  14.543  0.00  0.00    +0.000 A 
ATOM     21  C   UNL     1       7.744   5.162  13.430  0.00  0.00    +0.000 A 
ATOM     22  C   UNL     1       7.457   4.690  12.144  0.00  0.00    +0.000 A 
ENDBRANCH   1  20
TORSDOF 2
ENDMDL
MODEL 2
REMARK VINA RESULT:      -8.4      0.091      1.027
REMARK  Name = 
REMARK  2 active torsions:
REMARK  status: ('A' for Active; 'I' for Inactive)
REMARK    1  A    between atoms: C_4  and  C_5
REMARK    2  A    between atoms: N_8  and  C_9
REMARK                            x       y       z     vdW  Elec       q    Type
REMARK                         _______ _______ _______ _____ _____    ______ ____
ROOT
ATOM      1  C   UNL     1       7.447   5.321  15.994  0.00  0.00    +0.000 C 
ATOM      2  C   UNL     1       7.024   4.428  17.166  0.00  0.00    +0.000 C 
ATOM      3  C   UNL     1       5.520   4.478  17.457  0.00  0.00    +0.000 C 
ATOM      4  N   UNL     1       5.005   5.836  17.641  0.00  0.00    +0.000 NA
ATOM      5  C   UNL     1       5.398   6.743  16.556  0.00  0.00    +0.000 C 
ATOM      6  C   UNL     1       6.911   6.728  16.301  0.00  0.00    +0.000 C 
ENDROOT
BRANCH   4   7
ATOM      7  C   UNL     1       3.549   5.899  17.977  0.00  0.00    +0.000 C 
ATOM      8  C   UNL     1       3.401   6.476  19.412  0.00  0.00    +0.000 C 
ATOM      9  C   UNL     1       2.048   6.199  19.996  0.00  0.00    +0.000 C 
ATOM     10  C   UNL     1       1.885   4.712  20.030  0.00  0.00    +0.000 A 
ATOM     11  C   UNL     1       1.761   3.986  21.208  0.00  0.00    +0.000 A 
ATOM     12  C   UNL     1       1.262   2.692  21.156  0.00  0.00    +0.000 A 
ATOM     13  C   UNL     1       0.832   2.177  19.933  0.00  0.00    +0.000 A 
ATOM     14  C   UNL     1       1.156   2.845  18.744  0.00  0.00    +0.000 A 
ATOM     15  C   UNL     1       1.842   4.059  18.806  0.00  0.00    +0.000 A 
ATOM     16  C   UNL     1       2.597   4.667  17.636  0.00  0.00    +0.000 C 
ENDBRANCH   4   7
BRANCH   1  20
ATOM     17  C   UNL     1       6.332   3.813  12.071  0.00  0.00    +0.000 A 
ATOM     18  C   UNL     1       7.402   4.691  12.185  0.00  0.00    +0.000 A 
ATOM     19  C   UNL     1       7.770   5.194  13.435  0.00  0.00    +0.000 A 
ATOM     20  C   UNL     1       7.099   4.804  14.606  0.00  0.00    +0.000 A 
ATOM     21  C   UNL     1       6.007   3.932  14.463  0.00  0.00    +0.000 A 
ATOM     22  C   UNL     1       5.625   3.440  13.209  0.00  0.00    +0.000 A 
ENDBRANCH   1  20
TORSDOF 2
ENDMDL
MODEL 3
REMARK VINA RESULT:      -8.0      4.594      7.772
REMARK  Name = 
REMARK  2 active torsions:
REMARK  status: ('A' for Active; 'I' for Inactive)
REMARK    1  A    between atoms: C_4  and  C_5
REMARK    2  A    between atoms: N_8  and  C_9
REMARK                            x       y       z     vdW  Elec       q    Type
REMARK                         _______ _______ _______ _____ _____    ______ ____
ROOT
ATOM      1  C   UNL     1       0.112  11.559  19.604  0.00  0.00    +0.000 C 
ATOM      2  C   UNL     1       0.027  10.678  20.857  0.00  0.00    +0.000 C 
ATOM      3  C   UNL     1       1.085   9.570  20.895  0.00  0.00    +0.000 C 
ATOM      4  N   UNL     1       1.104   8.739  19.690  0.00  0.00    +0.000 NA
ATOM      5  C   UNL     1       1.164   9.530  18.456  0.00  0.00    +0.000 C 
ATOM      6  C   UNL     1       0.071  10.607  18.398  0.00  0.00    +0.000 C 
ENDROOT
BRANCH   4   7
ATOM      7  C   UNL     1       2.096   7.621  19.733  0.00  0.00    +0.000 C 
ATOM      8  C   UNL     1       2.477   7.246  18.274  0.00  0.00    +0.000 C 
ATOM      9  C   UNL     1       3.126   5.897  18.186  0.00  0.00    +0.000 C 
ATOM     10  C   UNL     1       2.141   4.906  18.721  0.00  0.00    +0.000 A 
ATOM     11  C   UNL     1       1.575   3.901  17.948  0.00  0.00    +0.000 A 
ATOM     12  C   UNL     1       0.967   2.824  18.576  0.00  0.00    +0.000 A 
ATOM     13  C   UNL     1       0.999   2.742  19.968  0.00  0.00    +0.000 A 
ATOM     14  C   UNL     1       1.388   3.857  20.722  0.00  0.00    +0.000 A 
ATOM     15  C   UNL     1       1.811   5.014  20.066  0.00  0.00    +0.000 A 
ATOM     16  C   UNL     1       1.866   6.386  20.715  0.00  0.00    +0.000 C 
ENDBRANCH   4   7
BRANCH   1  20
ATOM     17  C   UNL     1       3.347  14.456  19.396  0.00  0.00    +0.000 A 
ATOM     18  C   UNL     1       2.848  14.079  20.637  0.00  0.00    +0.000 A 
ATOM     19  C   UNL     1       1.803  13.157  20.724  0.00  0.00    +0.000 A 
ATOM     20  C   UNL     1       1.254  12.563  19.575  0.00  0.00    +0.000 A 
ATOM     21  C   UNL     1       1.761  12.975  18.332  0.00  0.00    +0.000 A 
ATOM     22  C   UNL     1       2.797  13.912  18.241  0.00  0.00    +0.000 A 
ENDBRANCH   1  20
TORSDOF 2
ENDMDL
MODEL 4
REMARK VINA RESULT:      -8.0      4.593      7.787
REMARK  Name = 
REMARK  2 active torsions:
REMARK  status: ('A' for Active; 'I' for Inactive)
REMARK    1  A    between atoms: C_4  and  C_5
REMARK    2  A    between atoms: N_8  and  C_9
REMARK                            x       y       z     vdW  Elec       q    Type
REMARK                         _______ _______ _______ _____ _____    ______ ____
ROOT
ATOM      1  C   UNL     1       0.128  11.595  19.522  0.00  0.00    +0.000 C 
ATOM      2  C   UNL     1       0.031  10.747  20.796  0.00  0.00    +0.000 C 
ATOM      3  C   UNL     1       1.083   9.635  20.868  0.00  0.00    +0.000 C 
ATOM      4  N   UNL     1       1.105   8.773  19.685  0.00  0.00    +0.000 NA
ATOM      5  C   UNL     1       1.177   9.533  18.431  0.00  0.00    +0.000 C 
ATOM      6  C   UNL     1       0.090  10.613  18.340  0.00  0.00    +0.000 C 
ENDROOT
BRANCH   4   7
ATOM      7  C   UNL     1       2.091   7.652  19.762  0.00  0.00    +0.000 C 
ATOM      8  C   UNL     1       2.529   7.283  18.318  0.00  0.00    +0.000 C 
ATOM      9  C   UNL     1       3.177   5.932  18.249  0.00  0.00    +0.000 C 
ATOM     10  C   UNL     1       2.168   4.942  18.739  0.00  0.00    +0.000 A 
ATOM     11  C   UNL     1       1.631   3.942  17.938  0.00  0.00    +0.000 A 
ATOM     12  C   UNL     1       0.994   2.864  18.536  0.00  0.00    +0.000 A 
ATOM     13  C   UNL     1       0.970   2.775  19.928  0.00  0.00    +0.000 A 
ATOM     14  C   UNL     1       1.332   3.885  20.703  0.00  0.00    +0.000 A 
ATOM     15  C   UNL     1       1.785   5.044  20.070  0.00  0.00    +0.000 A 
ATOM     16  C   UNL     1       1.817   6.413  20.727  0.00  0.00    +0.000 C 
ENDBRANCH   4   7
BRANCH   1  20
ATOM     17  C   UNL     1       3.432  14.422  19.513  0.00  0.00    +0.000 A 
ATOM     18  C   UNL     1       2.981  13.897  18.309  0.00  0.00    +0.000 A 
ATOM     19  C   UNL     1       1.926  12.980  18.292  0.00  0.00    +0.000 A 
ATOM     20  C   UNL     1       1.276  12.593  19.474  0.00  0.00    +0.000 A 
ATOM     21  C   UNL     1       1.763  13.120  20.681  0.00  0.00    +0.000 A 
ATOM     22  C   UNL     1       2.831  14.026  20.703  0.00  0.00    +0.000 A 
ENDBRANCH   1  20
TORSDOF 2
ENDMDL
MODEL 5
REMARK VINA RESULT:      -7.6      4.265      8.096
REMARK  Name = 
REMARK  2 active torsions:
REMARK  status: ('A' for Active; 'I' for Inactive)
REMARK    1  A    between atoms: C_4  and  C_5
REMARK    2  A    between atoms: N_8  and  C_9
REMARK                            x       y       z     vdW  Elec       q    Type
REMARK                         _______ _______ _______ _____ _____    ______ ____
ROOT
ATOM      1  C   UNL     1       0.378  11.010  19.399  0.00  0.00    +0.000 C 
ATOM      2  C   UNL     1       1.589  11.042  18.459  0.00  0.00    +0.000 C 
ATOM      3  C   UNL     1       1.956   9.665  17.894  0.00  0.00    +0.000 C 
ATOM      4  N   UNL     1       2.137   8.639  18.922  0.00  0.00    +0.000 NA
ATOM      5  C   UNL     1       1.014   8.577  19.865  0.00  0.00    +0.000 C 
ATOM      6  C   UNL     1       0.682   9.949  20.468  0.00  0.00    +0.000 C 
ENDROOT
BRANCH   4   7
ATOM      7  C   UNL     1       2.545   7.303  18.389  0.00  0.00    +0.000 C 
ATOM      8  C   UNL     1       2.771   6.344  19.591  0.00  0.00    +0.000 C 
ATOM      9  C   UNL     1       3.568   5.133  19.207  0.00  0.00    +0.000 C 
ATOM     10  C   UNL     1       4.886   5.624  18.697  0.00  0.00    +0.000 A 
ATOM     11  C   UNL     1       6.095   5.348  19.323  0.00  0.00    +0.000 A 
ATOM     12  C   UNL     1       7.277   5.520  18.618  0.00  0.00    +0.000 A 
ATOM     13  C   UNL     1       7.221   5.900  17.277  0.00  0.00    +0.000 A 
ATOM     14  C   UNL     1       6.015   6.367  16.736  0.00  0.00    +0.000 A 
ATOM     15  C   UNL     1       4.866   6.375  17.529  0.00  0.00    +0.000 A 
ATOM     16  C   UNL     1       3.631   7.205  17.226  0.00  0.00    +0.000 C 
ENDBRANCH   4   7
BRANCH   1  20
ATOM     17  C   UNL     1      -3.534  10.689  17.526  0.00  0.00    +0.000 A 
ATOM     18  C   UNL     1      -2.491   9.894  17.068  0.00  0.00    +0.000 A 
ATOM     19  C   UNL     1      -1.224   9.989  17.650  0.00  0.00    +0.000 A 
ATOM     20  C   UNL     1      -0.979  10.856  18.727  0.00  0.00    +0.000 A 
ATOM     21  C   UNL     1      -2.043  11.665  19.160  0.00  0.00    +0.000 A 
ATOM     22  C   UNL     1      -3.308  11.584  18.567  0.00  0.00    +0.000 A 
ENDBRANCH   1  20
TORSDOF 2
ENDMDL
MODEL 6
REMARK VINA RESULT:      -7.6      4.185      7.499
REMARK  Name = 
REMARK  2 active torsions:
REMARK  status: ('A' for Active; 'I' for Inactive)
REMARK    1  A    between atoms: C_4  and  C_5
REMARK    2  A    between atoms: N_8  and  C_9
REMARK                            x       y       z     vdW  Elec       q    Type
REMARK                         _______ _______ _______ _____ _____    ______ ____
ROOT
ATOM      1  C   UNL     1       0.188  10.757  19.166  0.00  0.00    +0.000 C 
ATOM      2  C   UNL     1       0.060   9.804  20.361  0.00  0.00    +0.000 C 
ATOM      3  C   UNL     1       1.240   8.834  20.494  0.00  0.00    +0.000 C 
ATOM      4  N   UNL     1       1.518   8.081  19.271  0.00  0.00    +0.000 NA
ATOM      5  C   UNL     1       1.631   8.942  18.088  0.00  0.00    +0.000 C 
ATOM      6  C   UNL     1       0.424   9.877  17.929  0.00  0.00    +0.000 C 
ENDROOT
BRANCH   4   7
ATOM      7  C   UNL     1       2.633   7.093  19.400  0.00  0.00    +0.000 C 
ATOM      8  C   UNL     1       3.289   6.908  18.004  0.00  0.00    +0.000 C 
ATOM      9  C   UNL     1       4.121   5.662  17.930  0.00  0.00    +0.000 C 
ATOM     10  C   UNL     1       3.208   4.512  18.215  0.00  0.00    +0.000 A 
ATOM     11  C   UNL     1       2.914   3.523  17.285  0.00  0.00    +0.000 A 
ATOM     12  C   UNL     1       2.365   2.326  17.720  0.00  0.00    +0.000 A 
ATOM     13  C   UNL     1       2.186   2.117  19.088  0.00  0.00    +0.000 A 
ATOM     14  C   UNL     1       2.294   3.194  19.976  0.00  0.00    +0.000 A 
ATOM     15  C   UNL     1       2.656   4.451  19.488  0.00  0.00    +0.000 A 
ATOM     16  C   UNL     1       2.419   5.752  20.235  0.00  0.00    +0.000 C 
ENDBRANCH   4   7
BRANCH   1  20
ATOM     17  C   UNL     1       3.039  13.987  19.759  0.00  0.00    +0.000 A 
ATOM     18  C   UNL     1       2.908  13.415  18.500  0.00  0.00    +0.000 A 
ATOM     19  C   UNL     1       2.005  12.370  18.291  0.00  0.00    +0.000 A 
ATOM     20  C   UNL     1       1.185  11.895  19.328  0.00  0.00    +0.000 A 
ATOM     21  C   UNL     1       1.350  12.474  20.597  0.00  0.00    +0.000 A 
ATOM     22  C   UNL     1       2.267  13.510  20.813  0.00  0.00    +0.000 A 
ENDBRANCH   1  20
TORSDOF 2
ENDMDL
MODEL 7
REMARK VINA RESULT:      -7.4      4.261      8.065
REMARK  Name = 
REMARK  2 active torsions:
REMARK  status: ('A' for Active; 'I' for Inactive)
REMARK    1  A    between atoms: C_4  and  C_5
REMARK    2  A    between atoms: N_8  and  C_9
REMARK                            x       y       z     vdW  Elec       q    Type
REMARK                         _______ _______ _______ _____ _____    ______ ____
ROOT
ATOM      1  C   UNL     1       0.402  11.078  19.442  0.00  0.00    +0.000 C 
ATOM      2  C   UNL     1       1.627  11.106  18.519  0.00  0.00    +0.000 C 
ATOM      3  C   UNL     1       1.979   9.735  17.933  0.00  0.00    +0.000 C 
ATOM      4  N   UNL     1       2.129   8.687  18.944  0.00  0.00    +0.000 NA
ATOM      5  C   UNL     1       0.992   8.626  19.870  0.00  0.00    +0.000 C 
ATOM      6  C   UNL     1       0.674   9.992  20.495  0.00  0.00    +0.000 C 
ENDROOT
BRANCH   4   7
ATOM      7  C   UNL     1       2.523   7.355  18.392  0.00  0.00    +0.000 C 
ATOM      8  C   UNL     1       2.729   6.374  19.579  0.00  0.00    +0.000 C 
ATOM      9  C   UNL     1       3.512   5.158  19.180  0.00  0.00    +0.000 C 
ATOM     10  C   UNL     1       4.839   5.640  18.685  0.00  0.00    +0.000 A 
ATOM     11  C   UNL     1       6.041   5.338  19.313  0.00  0.00    +0.000 A 
ATOM     12  C   UNL     1       7.230   5.506  18.617  0.00  0.00    +0.000 A 
ATOM     13  C   UNL     1       7.185   5.909  17.282  0.00  0.00    +0.000 A 
ATOM     14  C   UNL     1       5.989   6.400  16.743  0.00  0.00    +0.000 A 
ATOM     15  C   UNL     1       4.836   6.410  17.530  0.00  0.00    +0.000 A 
ATOM     16  C   UNL     1       3.613   7.261  17.234  0.00  0.00    +0.000 C 
ENDBRANCH   4   7
BRANCH   1  20
ATOM     17  C   UNL     1      -3.419  10.620  17.417  0.00  0.00    +0.000 A 
ATOM     18  C   UNL     1      -3.308  11.522  18.468  0.00  0.00    +0.000 A 
ATOM     19  C   UNL     1      -2.091  11.676  19.137  0.00  0.00    +0.000 A 
ATOM     20  C   UNL     1      -0.948  10.959  18.749  0.00  0.00    +0.000 A 
ATOM     21  C   UNL     1      -1.090  10.038  17.698  0.00  0.00    +0.000 A 
ATOM     22  C   UNL     1      -2.312   9.869  17.037  0.00  0.00    +0.000 A 
ENDBRANCH   1  20
TORSDOF 2
ENDMDL
MODEL 8
REMARK VINA RESULT:      -7.2      4.991      9.130
REMARK  Name = 
REMARK  2 active torsions:
REMARK  status: ('A' for Active; 'I' for Inactive)
REMARK    1  A    between atoms: C_4  and  C_5
REMARK    2  A    between atoms: N_8  and  C_9
REMARK                            x       y       z     vdW  Elec       q    Type
REMARK                         _______ _______ _______ _____ _____    ______ ____
ROOT
ATOM      1  C   UNL     1      -1.188  11.821  19.076  0.00  0.00    +0.000 C 
ATOM      2  C   UNL     1      -1.370  10.457  18.397  0.00  0.00    +0.000 C 
ATOM      3  C   UNL     1      -0.301   9.433  18.795  0.00  0.00    +0.000 C 
ATOM      4  N   UNL     1       1.068   9.914  18.609  0.00  0.00    +0.000 NA
ATOM      5  C   UNL     1       1.296  11.229  19.221  0.00  0.00    +0.000 C 
ATOM      6  C   UNL     1       0.253  12.266  18.782  0.00  0.00    +0.000 C 
ENDROOT
BRANCH   4   7
ATOM      7  C   UNL     1       2.123   8.908  18.944  0.00  0.00    +0.000 C 
ATOM      8  C   UNL     1       2.643   8.284  17.620  0.00  0.00    +0.000 C 
ATOM      9  C   UNL     1       3.382   7.000  17.851  0.00  0.00    +0.000 C 
ATOM     10  C   UNL     1       2.422   6.060  18.509  0.00  0.00    +0.000 A 
ATOM     11  C   UNL     1       1.985   4.880  17.920  0.00  0.00    +0.000 A 
ATOM     12  C   UNL     1       1.398   3.904  18.712  0.00  0.00    +0.000 A 
ATOM     13  C   UNL     1       1.323   4.102  20.092  0.00  0.00    +0.000 A 
ATOM     14  C   UNL     1       1.578   5.371  20.627  0.00  0.00    +0.000 A 
ATOM     15  C   UNL     1       1.978   6.405  19.779  0.00  0.00    +0.000 A 
ATOM     16  C   UNL     1       1.893   7.878  20.138  0.00  0.00    +0.000 C 
ENDBRANCH   4   7
BRANCH   1  20
ATOM     17  C   UNL     1      -2.432  12.050  23.236  0.00  0.00    +0.000 A 
ATOM     18  C   UNL     1      -1.298  11.321  22.903  0.00  0.00    +0.000 A 
ATOM     19  C   UNL     1      -0.887  11.228  21.570  0.00  0.00    +0.000 A 
ATOM     20  C   UNL     1      -1.581  11.889  20.544  0.00  0.00    +0.000 A 
ATOM     21  C   UNL     1      -2.736  12.603  20.902  0.00  0.00    +0.000 A 
ATOM     22  C   UNL     1      -3.159  12.684  22.234  0.00  0.00    +0.000 A 
ENDBRANCH   1  20
TORSDOF 2
ENDMDL
MODEL 9
REMARK VINA RESULT:      -7.2      8.324     11.390
REMARK  Name = 
REMARK  2 active torsions:
REMARK  status: ('A' for Active; 'I' for Inactive)
REMARK    1  A    between atoms: C_4  and  C_5
REMARK    2  A    between atoms: N_8  and  C_9
REMARK                            x       y       z     vdW  Elec       q    Type
REMARK                         _______ _______ _______ _____ _____    ______ ____
ROOT
ATOM      1  C   UNL     1      -0.511  11.101  18.900  0.00  0.00    +0.000 C 
ATOM      2  C   UNL     1      -1.237  12.384  18.476  0.00  0.00    +0.000 C 
ATOM      3  C   UNL     1      -2.757  12.219  18.382  0.00  0.00    +0.000 C 
ATOM      4  N   UNL     1      -3.173  11.099  17.538  0.00  0.00    +0.000 NA
ATOM      5  C   UNL     1      -2.493   9.845  17.885  0.00  0.00    +0.000 C 
ATOM      6  C   UNL     1      -0.967  10.001  17.929  0.00  0.00    +0.000 C 
ENDROOT
BRANCH   4   7
ATOM      7  C   UNL     1      -4.655  10.956  17.394  0.00  0.00    +0.000 C 
ATOM      8  C   UNL     1      -5.289  12.374  17.422  0.00  0.00    +0.000 C 
ATOM      9  C   UNL     1      -6.762  12.330  17.700  0.00  0.00    +0.000 C 
ATOM     10  C   UNL     1      -6.933  11.673  19.033  0.00  0.00    +0.000 A 
ATOM     11  C   UNL     1      -7.461  12.324  20.141  0.00  0.00    +0.000 A 
ATOM     12  C   UNL     1      -7.917  11.573  21.215  0.00  0.00    +0.000 A 
ATOM     13  C   UNL     1      -7.898  10.181  21.128  0.00  0.00    +0.000 A 
ATOM     14  C   UNL     1      -7.178   9.558  20.100  0.00  0.00    +0.000 A 
ATOM     15  C   UNL     1      -6.551  10.342  19.130  0.00  0.00    +0.000 A 
ATOM     16  C   UNL     1      -5.434   9.844  18.228  0.00  0.00    +0.000 C 
ENDBRANCH   4   7
BRANCH   1  20
ATOM     17  C   UNL     1      -0.746   9.941  23.084  0.00  0.00    +0.000 A 
ATOM     18  C   UNL     1      -1.158  11.213  22.704  0.00  0.00    +0.000 A 
ATOM     19  C   UNL     1      -1.081  11.607  21.366  0.00  0.00    +0.000 A 
ATOM     20  C   UNL     1      -0.624  10.729  20.370  0.00  0.00    +0.000 A 
ATOM     21  C   UNL     1      -0.193   9.456  20.781  0.00  0.00    +0.000 A 
ATOM     22  C   UNL     1      -0.253   9.065  22.124  0.00  0.00    +0.000 A 
ENDBRANCH   1  20
TORSDOF 2
ENDMDL
