MODEL 1
REMARK VINA RESULT:      -7.9      0.000      0.000
REMARK  Name = 
REMARK  7 active torsions:
REMARK  status: ('A' for Active; 'I' for Inactive)
REMARK    1  A    between atoms: C_2  and  C_3
REMARK    2  A    between atoms: C_3  and  O_4
REMARK    3  A    between atoms: O_4  and  C_5
REMARK    4  A    between atoms: C_5  and  C_7
REMARK    5  A    between atoms: C_7  and  C_8
REMARK    6  A    between atoms: N_15  and  C_16
REMARK    7  A    between atoms: C_16  and  C_17
REMARK                            x       y       z     vdW  Elec       q    Type
REMARK                         _______ _______ _______ _____ _____    ______ ____
ROOT
ATOM      1  C   UNL     1       7.944   6.475  18.704  0.00  0.00    +0.000 C 
ENDROOT
BRANCH   1   3
ATOM      2  O   UNL     1       7.313   7.932  16.861  0.00  0.00    +0.000 OA
ATOM      3  C   UNL     1       7.897   7.813  17.938  0.00  0.00    +0.000 C 
ATOM      4  N   UNL     1       8.604   8.827  18.542  0.00  0.00    +0.000 N 
ATOM      5  H   UNL     1       8.824   8.700  19.524  0.00  0.00    +0.000 HD
BRANCH   4   6
ATOM      6  C   UNL     1       8.556  10.197  18.086  0.00  0.00    +0.000 C 
BRANCH   6   7
ATOM      7  C   UNL     1       9.699  10.988  18.674  0.00  0.00    +0.000 A 
ATOM      8  C   UNL     1      10.718  11.463  17.836  0.00  0.00    +0.000 A 
ATOM      9  C   UNL     1      11.801  12.172  18.373  0.00  0.00    +0.000 A 
ATOM     10  C   UNL     1      11.878  12.388  19.747  0.00  0.00    +0.000 A 
ATOM     11  C   UNL     1      10.875  11.907  20.582  0.00  0.00    +0.000 A 
ATOM     12  C   UNL     1       9.797  11.205  20.051  0.00  0.00    +0.000 A 
ENDBRANCH   6   7
ENDBRANCH   4   6
ENDBRANCH   1   3
BRANCH   1  13
ATOM     13  O   UNL     1       6.846   5.564  18.615  0.00  0.00    +0.000 OA
BRANCH  13  14
ATOM     14  C   UNL     1       6.898   4.671  17.591  0.00  0.00    +0.000 C 
ATOM     15  O   UNL     1       7.928   4.324  17.034  0.00  0.00    +0.000 OA
BRANCH  14  16
ATOM     16  C   UNL     1       5.501   4.234  17.168  0.00  0.00    +0.000 C 
BRANCH  16  17
ATOM     17  C   UNL     1       4.514   4.375  18.340  0.00  0.00    +0.000 C 
ATOM     18  C   UNL     1       4.418   3.178  19.322  0.00  0.00    +0.000 C 
ATOM     19  C   UNL     1       2.890   2.952  19.472  0.00  0.00    +0.000 C 
ATOM     20  C   UNL     1       2.357   2.256  18.213  0.00  0.00    +0.000 C 
ATOM     21  C   UNL     1       2.548   3.328  17.133  0.00  0.00    +0.000 C 
ATOM     22  C   UNL     1       3.030   4.552  17.938  0.00  0.00    +0.000 C 
ATOM     23  C   UNL     1       2.328   4.357  19.283  0.00  0.00    +0.000 C 
ENDBRANCH  16  17
ENDBRANCH  14  16
ENDBRANCH  13  14
ENDBRANCH   1  13
TORSDOF 7
ENDMDL
MODEL 2
REMARK VINA RESULT:      -7.8      0.871      1.833
REMARK  Name = 
REMARK  7 active torsions:
REMARK  status: ('A' for Active; 'I' for Inactive)
REMARK    1  A    between atoms: C_2  and  C_3
REMARK    2  A    between atoms: C_3  and  O_4
REMARK    3  A    between atoms: O_4  and  C_5
REMARK    4  A    between atoms: C_5  and  C_7
REMARK    5  A    between atoms: C_7  and  C_8
REMARK    6  A    between atoms: N_15  and  C_16
REMARK    7  A    between atoms: C_16  and  C_17
REMARK                            x       y       z     vdW  Elec       q    Type
REMARK                         _______ _______ _______ _____ _____    ______ ____
ROOT
ATOM      1  C   UNL     1       7.653   6.011  18.914  0.00  0.00    +0.000 C 
ENDROOT
BRANCH   1   3
ATOM      2  O   UNL     1       7.658   7.131  16.754  0.00  0.00    +0.000 OA
ATOM      3  C   UNL     1       7.858   7.211  17.967  0.00  0.00    +0.000 C 
ATOM      4  N   UNL     1       8.327   8.343  18.593  0.00  0.00    +0.000 N 
ATOM      5  H   UNL     1       8.215   8.380  19.600  0.00  0.00    +0.000 HD
BRANCH   4   6
ATOM      6  C   UNL     1       8.430   9.621  17.929  0.00  0.00    +0.000 C 
BRANCH   6   7
ATOM      7  C   UNL     1       9.426  10.504  18.639  0.00  0.00    +0.000 A 
ATOM      8  C   UNL     1       9.317  10.702  20.023  0.00  0.00    +0.000 A 
ATOM      9  C   UNL     1      10.217  11.545  20.690  0.00  0.00    +0.000 A 
ATOM     10  C   UNL     1      11.211  12.206  19.973  0.00  0.00    +0.000 A 
ATOM     11  C   UNL     1      11.314  12.023  18.598  0.00  0.00    +0.000 A 
ATOM     12  C   UNL     1      10.423  11.184  17.934  0.00  0.00    +0.000 A 
ENDBRANCH   6   7
ENDBRANCH   4   6
ENDBRANCH   1   3
BRANCH   1  13
ATOM     13  O   UNL     1       7.520   4.693  18.377  0.00  0.00    +0.000 OA
BRANCH  13  14
ATOM     14  C   UNL     1       6.346   4.426  17.745  0.00  0.00    +0.000 C 
ATOM     15  O   UNL     1       6.246   4.189  16.552  0.00  0.00    +0.000 OA
BRANCH  14  16
ATOM     16  C   UNL     1       5.164   4.554  18.699  0.00  0.00    +0.000 C 
BRANCH  16  17
ATOM     17  C   UNL     1       4.113   3.470  18.405  0.00  0.00    +0.000 C 
ATOM     18  C   UNL     1       2.876   3.903  17.575  0.00  0.00    +0.000 C 
ATOM     19  C   UNL     1       1.680   3.321  18.375  0.00  0.00    +0.000 C 
ATOM     20  C   UNL     1       1.435   4.188  19.617  0.00  0.00    +0.000 C 
ATOM     21  C   UNL     1       2.697   3.939  20.452  0.00  0.00    +0.000 C 
ATOM     22  C   UNL     1       3.436   2.849  19.650  0.00  0.00    +0.000 C 
ATOM     23  C   UNL     1       2.284   2.073  19.011  0.00  0.00    +0.000 C 
ENDBRANCH  16  17
ENDBRANCH  14  16
ENDBRANCH  13  14
ENDBRANCH   1  13
TORSDOF 7
ENDMDL
MODEL 3
REMARK VINA RESULT:      -7.7      4.511      5.697
REMARK  Name = 
REMARK  7 active torsions:
REMARK  status: ('A' for Active; 'I' for Inactive)
REMARK    1  A    between atoms: C_2  and  C_3
REMARK    2  A    between atoms: C_3  and  O_4
REMARK    3  A    between atoms: O_4  and  C_5
REMARK    4  A    between atoms: C_5  and  C_7
REMARK    5  A    between atoms: C_7  and  C_8
REMARK    6  A    between atoms: N_15  and  C_16
REMARK    7  A    between atoms: C_16  and  C_17
REMARK                            x       y       z     vdW  Elec       q    Type
REMARK                         _______ _______ _______ _____ _____    ______ ____
ROOT
ATOM      1  C   UNL     1       6.411   5.796  17.081  0.00  0.00    +0.000 C 
ENDROOT
BRANCH   1   3
ATOM      2  O   UNL     1       5.132   6.768  15.254  0.00  0.00    +0.000 OA
ATOM      3  C   UNL     1       5.224   6.566  16.465  0.00  0.00    +0.000 C 
ATOM      4  N   UNL     1       4.325   7.041  17.392  0.00  0.00    +0.000 N 
ATOM      5  H   UNL     1       4.355   6.611  18.310  0.00  0.00    +0.000 HD
BRANCH   4   6
ATOM      6  C   UNL     1       3.063   7.640  17.025  0.00  0.00    +0.000 C 
BRANCH   6   7
ATOM      7  C   UNL     1       2.340   8.138  18.253  0.00  0.00    +0.000 A 
ATOM      8  C   UNL     1       2.419   7.408  19.449  0.00  0.00    +0.000 A 
ATOM      9  C   UNL     1       1.727   7.843  20.588  0.00  0.00    +0.000 A 
ATOM     10  C   UNL     1       0.941   8.990  20.528  0.00  0.00    +0.000 A 
ATOM     11  C   UNL     1       0.851   9.709  19.339  0.00  0.00    +0.000 A 
ATOM     12  C   UNL     1       1.539   9.282  18.208  0.00  0.00    +0.000 A 
ENDBRANCH   6   7
ENDBRANCH   4   6
ENDBRANCH   1   3
BRANCH   1  13
ATOM     13  O   UNL     1       6.200   4.505  17.659  0.00  0.00    +0.000 OA
BRANCH  13  14
ATOM     14  C   UNL     1       5.925   4.490  18.991  0.00  0.00    +0.000 C 
ATOM     15  O   UNL     1       6.546   5.125  19.828  0.00  0.00    +0.000 OA
BRANCH  14  16
ATOM     16  C   UNL     1       4.805   3.508  19.311  0.00  0.00    +0.000 C 
BRANCH  16  17
ATOM     17  C   UNL     1       3.432   4.151  19.047  0.00  0.00    +0.000 C 
ATOM     18  C   UNL     1       2.316   3.868  20.087  0.00  0.00    +0.000 C 
ATOM     19  C   UNL     1       1.096   3.474  19.214  0.00  0.00    +0.000 C 
ATOM     20  C   UNL     1       1.289   2.043  18.694  0.00  0.00    +0.000 C 
ATOM     21  C   UNL     1       2.489   2.190  17.750  0.00  0.00    +0.000 C 
ATOM     22  C   UNL     1       2.737   3.712  17.736  0.00  0.00    +0.000 C 
ATOM     23  C   UNL     1       1.330   4.276  17.938  0.00  0.00    +0.000 C 
ENDBRANCH  16  17
ENDBRANCH  14  16
ENDBRANCH  13  14
ENDBRANCH   1  13
TORSDOF 7
ENDMDL
MODEL 4
REMARK VINA RESULT:      -7.6      5.058      7.272
REMARK  Name = 
REMARK  7 active torsions:
REMARK  status: ('A' for Active; 'I' for Inactive)
REMARK    1  A    between atoms: C_2  and  C_3
REMARK    2  A    between atoms: C_3  and  O_4
REMARK    3  A    between atoms: O_4  and  C_5
REMARK    4  A    between atoms: C_5  and  C_7
REMARK    5  A    between atoms: C_7  and  C_8
REMARK    6  A    between atoms: N_15  and  C_16
REMARK    7  A    between atoms: C_16  and  C_17
REMARK                            x       y       z     vdW  Elec       q    Type
REMARK                         _______ _______ _______ _____ _____    ______ ____
ROOT
ATOM      1  C   UNL     1       5.662   5.279  16.800  0.00  0.00    +0.000 C 
ENDROOT
BRANCH   1   3
ATOM      2  O   UNL     1       7.881   4.512  16.164  0.00  0.00    +0.000 OA
ATOM      3  C   UNL     1       6.789   4.949  15.800  0.00  0.00    +0.000 C 
ATOM      4  N   UNL     1       6.476   5.236  14.491  0.00  0.00    +0.000 N 
ATOM      5  H   UNL     1       5.490   5.344  14.277  0.00  0.00    +0.000 HD
BRANCH   4   6
ATOM      6  C   UNL     1       7.316   4.852  13.381  0.00  0.00    +0.000 C 
BRANCH   6   7
ATOM      7  C   UNL     1       6.623   3.817  12.529  0.00  0.00    +0.000 A 
ATOM      8  C   UNL     1       5.223   3.817  12.438  0.00  0.00    +0.000 A 
ATOM      9  C   UNL     1       4.565   2.843  11.675  0.00  0.00    +0.000 A 
ATOM     10  C   UNL     1       5.301   1.858  11.022  0.00  0.00    +0.000 A 
ATOM     11  C   UNL     1       6.689   1.847  11.120  0.00  0.00    +0.000 A 
ATOM     12  C   UNL     1       7.345   2.815  11.875  0.00  0.00    +0.000 A 
ENDBRANCH   6   7
ENDBRANCH   4   6
ENDBRANCH   1   3
BRANCH   1  13
ATOM     13  O   UNL     1       4.990   4.224  17.492  0.00  0.00    +0.000 OA
BRANCH  13  14
ATOM     14  C   UNL     1       5.309   4.079  18.805  0.00  0.00    +0.000 C 
ATOM     15  O   UNL     1       6.216   4.676  19.362  0.00  0.00    +0.000 OA
BRANCH  14  16
ATOM     16  C   UNL     1       4.450   3.007  19.467  0.00  0.00    +0.000 C 
BRANCH  16  17
ATOM     17  C   UNL     1       3.298   3.652  20.257  0.00  0.00    +0.000 C 
ATOM     18  C   UNL     1       2.386   2.696  21.070  0.00  0.00    +0.000 C 
ATOM     19  C   UNL     1       0.952   3.154  20.696  0.00  0.00    +0.000 C 
ATOM     20  C   UNL     1       0.612   2.649  19.287  0.00  0.00    +0.000 C 
ATOM     21  C   UNL     1       1.582   3.444  18.405  0.00  0.00    +0.000 C 
ATOM     22  C   UNL     1       2.252   4.409  19.404  0.00  0.00    +0.000 C 
ATOM     23  C   UNL     1       1.141   4.643  20.429  0.00  0.00    +0.000 C 
ENDBRANCH  16  17
ENDBRANCH  14  16
ENDBRANCH  13  14
ENDBRANCH   1  13
TORSDOF 7
ENDMDL
MODEL 5
REMARK VINA RESULT:      -7.6      0.891      1.327
REMARK  Name = 
REMARK  7 active torsions:
REMARK  status: ('A' for Active; 'I' for Inactive)
REMARK    1  A    between atoms: C_2  and  C_3
REMARK    2  A    between atoms: C_3  and  O_4
REMARK    3  A    between atoms: O_4  and  C_5
REMARK    4  A    between atoms: C_5  and  C_7
REMARK    5  A    between atoms: C_7  and  C_8
REMARK    6  A    between atoms: N_15  and  C_16
REMARK    7  A    between atoms: C_16  and  C_17
REMARK                            x       y       z     vdW  Elec       q    Type
REMARK                         _______ _______ _______ _____ _____    ______ ____
ROOT
ATOM      1  C   UNL     1       7.803   6.026  18.104  0.00  0.00    +0.000 C 
ENDROOT
BRANCH   1   3
ATOM      2  O   UNL     1       6.722   7.700  16.708  0.00  0.00    +0.000 OA
ATOM      3  C   UNL     1       7.548   7.458  17.589  0.00  0.00    +0.000 C 
ATOM      4  N   UNL     1       8.357   8.411  18.165  0.00  0.00    +0.000 N 
ATOM      5  H   UNL     1       8.806   8.153  19.037  0.00  0.00    +0.000 HD
BRANCH   4   6
ATOM      6  C   UNL     1       8.173   9.827  17.953  0.00  0.00    +0.000 C 
BRANCH   6   7
ATOM      7  C   UNL     1       9.281  10.607  18.619  0.00  0.00    +0.000 A 
ATOM      8  C   UNL     1      10.303  11.166  17.838  0.00  0.00    +0.000 A 
ATOM      9  C   UNL     1      11.355  11.865  18.446  0.00  0.00    +0.000 A 
ATOM     10  C   UNL     1      11.397  11.989  19.832  0.00  0.00    +0.000 A 
ATOM     11  C   UNL     1      10.390  11.426  20.611  0.00  0.00    +0.000 A 
ATOM     12  C   UNL     1       9.344  10.733  20.009  0.00  0.00    +0.000 A 
ENDBRANCH   6   7
ENDBRANCH   4   6
ENDBRANCH   1   3
BRANCH   1  13
ATOM     13  O   UNL     1       6.872   4.984  17.804  0.00  0.00    +0.000 OA
BRANCH  13  14
ATOM     14  C   UNL     1       6.040   4.623  18.817  0.00  0.00    +0.000 C 
ATOM     15  O   UNL     1       6.166   4.992  19.974  0.00  0.00    +0.000 OA
BRANCH  14  16
ATOM     16  C   UNL     1       4.989   3.627  18.340  0.00  0.00    +0.000 C 
BRANCH  16  17
ATOM     17  C   UNL     1       3.613   4.306  18.232  0.00  0.00    +0.000 C 
ATOM     18  C   UNL     1       2.785   4.422  19.539  0.00  0.00    +0.000 C 
ATOM     19  C   UNL     1       1.375   3.929  19.122  0.00  0.00    +0.000 C 
ATOM     20  C   UNL     1       1.391   2.399  18.999  0.00  0.00    +0.000 C 
ATOM     21  C   UNL     1       2.320   2.171  17.800  0.00  0.00    +0.000 C 
ATOM     22  C   UNL     1       2.600   3.602  17.298  0.00  0.00    +0.000 C 
ATOM     23  C   UNL     1       1.304   4.334  17.654  0.00  0.00    +0.000 C 
ENDBRANCH  16  17
ENDBRANCH  14  16
ENDBRANCH  13  14
ENDBRANCH   1  13
TORSDOF 7
ENDMDL
MODEL 6
REMARK VINA RESULT:      -7.6      4.848      7.252
REMARK  Name = 
REMARK  7 active torsions:
REMARK  status: ('A' for Active; 'I' for Inactive)
REMARK    1  A    between atoms: C_2  and  C_3
REMARK    2  A    between atoms: C_3  and  O_4
REMARK    3  A    between atoms: O_4  and  C_5
REMARK    4  A    between atoms: C_5  and  C_7
REMARK    5  A    between atoms: C_7  and  C_8
REMARK    6  A    between atoms: N_15  and  C_16
REMARK    7  A    between atoms: C_16  and  C_17
REMARK                            x       y       z     vdW  Elec       q    Type
REMARK                         _______ _______ _______ _____ _____    ______ ____
ROOT
ATOM      1  C   UNL     1       7.161   4.613  17.083  0.00  0.00    +0.000 C 
ENDROOT
BRANCH   1   3
ATOM      2  O   UNL     1       5.451   5.428  15.556  0.00  0.00    +0.000 OA
ATOM      3  C   UNL     1       6.583   4.964  15.696  0.00  0.00    +0.000 C 
ATOM      4  N   UNL     1       7.423   4.662  14.648  0.00  0.00    +0.000 N 
ATOM      5  H   UNL     1       8.402   4.529  14.879  0.00  0.00    +0.000 HD
BRANCH   4   6
ATOM      6  C   UNL     1       7.152   5.059  13.287  0.00  0.00    +0.000 C 
BRANCH   6   7
ATOM      7  C   UNL     1       6.664   3.879  12.482  0.00  0.00    +0.000 A 
ATOM      8  C   UNL     1       5.287   3.635  12.373  0.00  0.00    +0.000 A 
ATOM      9  C   UNL     1       4.821   2.525  11.655  0.00  0.00    +0.000 A 
ATOM     10  C   UNL     1       5.728   1.649  11.064  0.00  0.00    +0.000 A 
ATOM     11  C   UNL     1       7.095   1.882  11.180  0.00  0.00    +0.000 A 
ATOM     12  C   UNL     1       7.560   2.984  11.891  0.00  0.00    +0.000 A 
ENDBRANCH   6   7
ENDBRANCH   4   6
ENDBRANCH   1   3
BRANCH   1  13
ATOM     13  O   UNL     1       6.296   4.136  18.116  0.00  0.00    +0.000 OA
BRANCH  13  14
ATOM     14  C   UNL     1       6.062   5.001  19.139  0.00  0.00    +0.000 C 
ATOM     15  O   UNL     1       6.934   5.492  19.837  0.00  0.00    +0.000 OA
BRANCH  14  16
ATOM     16  C   UNL     1       4.567   5.203  19.359  0.00  0.00    +0.000 C 
BRANCH  16  17
ATOM     17  C   UNL     1       3.758   4.214  18.501  0.00  0.00    +0.000 C 
ATOM     18  C   UNL     1       2.438   4.744  17.882  0.00  0.00    +0.000 C 
ATOM     19  C   UNL     1       1.409   3.630  18.210  0.00  0.00    +0.000 C 
ATOM     20  C   UNL     1       1.019   3.724  19.691  0.00  0.00    +0.000 C 
ATOM     21  C   UNL     1       2.325   3.354  20.404  0.00  0.00    +0.000 C 
ATOM     22  C   UNL     1       3.255   2.952  19.242  0.00  0.00    +0.000 C 
ATOM     23  C   UNL     1       2.274   2.375  18.221  0.00  0.00    +0.000 C 
ENDBRANCH  16  17
ENDBRANCH  14  16
ENDBRANCH  13  14
ENDBRANCH   1  13
TORSDOF 7
ENDMDL
MODEL 7
REMARK VINA RESULT:      -7.6      1.800      9.142
REMARK  Name = 
REMARK  7 active torsions:
REMARK  status: ('A' for Active; 'I' for Inactive)
REMARK    1  A    between atoms: C_2  and  C_3
REMARK    2  A    between atoms: C_3  and  O_4
REMARK    3  A    between atoms: O_4  and  C_5
REMARK    4  A    between atoms: C_5  and  C_7
REMARK    5  A    between atoms: C_7  and  C_8
REMARK    6  A    between atoms: N_15  and  C_16
REMARK    7  A    between atoms: C_16  and  C_17
REMARK                            x       y       z     vdW  Elec       q    Type
REMARK                         _______ _______ _______ _____ _____    ______ ____
ROOT
ATOM      1  C   UNL     1       6.637   6.237  17.042  0.00  0.00    +0.000 C 
ENDROOT
BRANCH   1   3
ATOM      2  O   UNL     1       5.507   5.633  19.110  0.00  0.00    +0.000 OA
ATOM      3  C   UNL     1       5.405   6.005  17.941  0.00  0.00    +0.000 C 
ATOM      4  N   UNL     1       4.203   6.201  17.301  0.00  0.00    +0.000 N 
ATOM      5  H   UNL     1       4.232   6.740  16.442  0.00  0.00    +0.000 HD
BRANCH   4   6
ATOM      6  C   UNL     1       2.936   6.201  17.994  0.00  0.00    +0.000 C 
BRANCH   6   7
ATOM      7  C   UNL     1       2.501   4.788  18.297  0.00  0.00    +0.000 A 
ATOM      8  C   UNL     1       1.947   4.485  19.550  0.00  0.00    +0.000 A 
ATOM      9  C   UNL     1       1.568   3.170  19.855  0.00  0.00    +0.000 A 
ATOM     10  C   UNL     1       1.761   2.156  18.921  0.00  0.00    +0.000 A 
ATOM     11  C   UNL     1       2.322   2.451  17.682  0.00  0.00    +0.000 A 
ATOM     12  C   UNL     1       2.697   3.756  17.375  0.00  0.00    +0.000 A 
ENDBRANCH   6   7
ENDBRANCH   4   6
ENDBRANCH   1   3
BRANCH   1  13
ATOM     13  O   UNL     1       7.166   7.556  16.884  0.00  0.00    +0.000 OA
BRANCH  13  14
ATOM     14  C   UNL     1       7.940   8.010  17.906  0.00  0.00    +0.000 C 
ATOM     15  O   UNL     1       8.441   7.295  18.759  0.00  0.00    +0.000 OA
BRANCH  14  16
ATOM     16  C   UNL     1       8.022   9.532  17.901  0.00  0.00    +0.000 C 
BRANCH  16  17
ATOM     17  C   UNL     1       9.327  10.004  18.567  0.00  0.00    +0.000 C 
ATOM     18  C   UNL     1       9.227  10.484  20.039  0.00  0.00    +0.000 C 
ATOM     19  C   UNL     1      10.009  11.824  20.038  0.00  0.00    +0.000 C 
ATOM     20  C   UNL     1       9.145  12.912  19.386  0.00  0.00    +0.000 C 
ATOM     21  C   UNL     1       9.060  12.441  17.929  0.00  0.00    +0.000 C 
ATOM     22  C   UNL     1      10.006  11.224  17.900  0.00  0.00    +0.000 C 
ATOM     23  C   UNL     1      11.053  11.597  18.951  0.00  0.00    +0.000 C 
ENDBRANCH  16  17
ENDBRANCH  14  16
ENDBRANCH  13  14
ENDBRANCH   1  13
TORSDOF 7
ENDMDL
MODEL 8
REMARK VINA RESULT:      -7.6      4.889      7.243
REMARK  Name = 
REMARK  7 active torsions:
REMARK  status: ('A' for Active; 'I' for Inactive)
REMARK    1  A    between atoms: C_2  and  C_3
REMARK    2  A    between atoms: C_3  and  O_4
REMARK    3  A    between atoms: O_4  and  C_5
REMARK    4  A    between atoms: C_5  and  C_7
REMARK    5  A    between atoms: C_7  and  C_8
REMARK    6  A    between atoms: N_15  and  C_16
REMARK    7  A    between atoms: C_16  and  C_17
REMARK                            x       y       z     vdW  Elec       q    Type
REMARK                         _______ _______ _______ _____ _____    ______ ____
ROOT
ATOM      1  C   UNL     1       7.049   4.524  17.159  0.00  0.00    +0.000 C 
ENDROOT
BRANCH   1   3
ATOM      2  O   UNL     1       5.296   5.198  15.613  0.00  0.00    +0.000 OA
ATOM      3  C   UNL     1       6.465   4.843  15.767  0.00  0.00    +0.000 C 
ATOM      4  N   UNL     1       7.348   4.643  14.732  0.00  0.00    +0.000 N 
ATOM      5  H   UNL     1       8.331   4.602  14.979  0.00  0.00    +0.000 HD
BRANCH   4   6
ATOM      6  C   UNL     1       7.064   5.037  13.372  0.00  0.00    +0.000 C 
BRANCH   6   7
ATOM      7  C   UNL     1       6.578   3.854  12.571  0.00  0.00    +0.000 A 
ATOM      8  C   UNL     1       7.508   3.005  11.951  0.00  0.00    +0.000 A 
ATOM      9  C   UNL     1       7.070   1.921  11.179  0.00  0.00    +0.000 A 
ATOM     10  C   UNL     1       5.706   1.695  11.008  0.00  0.00    +0.000 A 
ATOM     11  C   UNL     1       4.781   2.542  11.612  0.00  0.00    +0.000 A 
ATOM     12  C   UNL     1       5.214   3.618  12.381  0.00  0.00    +0.000 A 
ENDBRANCH   6   7
ENDBRANCH   4   6
ENDBRANCH   1   3
BRANCH   1  13
ATOM     13  O   UNL     1       6.183   4.119  18.221  0.00  0.00    +0.000 OA
BRANCH  13  14
ATOM     14  C   UNL     1       5.980   5.036  19.204  0.00  0.00    +0.000 C 
ATOM     15  O   UNL     1       6.872   5.538  19.870  0.00  0.00    +0.000 OA
BRANCH  14  16
ATOM     16  C   UNL     1       4.493   5.286  19.428  0.00  0.00    +0.000 C 
BRANCH  16  17
ATOM     17  C   UNL     1       3.656   4.164  18.788  0.00  0.00    +0.000 C 
ATOM     18  C   UNL     1       2.320   4.582  18.120  0.00  0.00    +0.000 C 
ATOM     19  C   UNL     1       1.298   3.556  18.675  0.00  0.00    +0.000 C 
ATOM     20  C   UNL     1       0.952   3.922  20.124  0.00  0.00    +0.000 C 
ATOM     21  C   UNL     1       2.277   3.677  20.856  0.00  0.00    +0.000 C 
ATOM     22  C   UNL     1       3.172   3.063  19.761  0.00  0.00    +0.000 C 
ATOM     23  C   UNL     1       2.159   2.316  18.891  0.00  0.00    +0.000 C 
ENDBRANCH  16  17
ENDBRANCH  14  16
ENDBRANCH  13  14
ENDBRANCH   1  13
TORSDOF 7
ENDMDL
MODEL 9
REMARK VINA RESULT:      -7.5      2.054      9.222
REMARK  Name = 
REMARK  7 active torsions:
REMARK  status: ('A' for Active; 'I' for Inactive)
REMARK    1  A    between atoms: C_2  and  C_3
REMARK    2  A    between atoms: C_3  and  O_4
REMARK    3  A    between atoms: O_4  and  C_5
REMARK    4  A    between atoms: C_5  and  C_7
REMARK    5  A    between atoms: C_7  and  C_8
REMARK    6  A    between atoms: N_15  and  C_16
REMARK    7  A    between atoms: C_16  and  C_17
REMARK                            x       y       z     vdW  Elec       q    Type
REMARK                         _______ _______ _______ _____ _____    ______ ____
ROOT
ATOM      1  C   UNL     1       6.164   6.557  17.326  0.00  0.00    +0.000 C 
ENDROOT
BRANCH   1   3
ATOM      2  O   UNL     1       4.025   7.711  17.422  0.00  0.00    +0.000 OA
ATOM      3  C   UNL     1       4.632   6.642  17.488  0.00  0.00    +0.000 C 
ATOM      4  N   UNL     1       4.031   5.435  17.759  0.00  0.00    +0.000 N 
ATOM      5  H   UNL     1       4.571   4.603  17.542  0.00  0.00    +0.000 HD
BRANCH   4   6
ATOM      6  C   UNL     1       2.598   5.259  17.782  0.00  0.00    +0.000 C 
BRANCH   6   7
ATOM      7  C   UNL     1       2.187   4.434  18.977  0.00  0.00    +0.000 A 
ATOM      8  C   UNL     1       1.363   3.313  18.797  0.00  0.00    +0.000 A 
ATOM      9  C   UNL     1       0.948   2.556  19.902  0.00  0.00    +0.000 A 
ATOM     10  C   UNL     1       1.338   2.930  21.186  0.00  0.00    +0.000 A 
ATOM     11  C   UNL     1       2.145   4.048  21.369  0.00  0.00    +0.000 A 
ATOM     12  C   UNL     1       2.560   4.800  20.273  0.00  0.00    +0.000 A 
ENDBRANCH   6   7
ENDBRANCH   4   6
ENDBRANCH   1   3
BRANCH   1  13
ATOM     13  O   UNL     1       6.911   7.726  16.980  0.00  0.00    +0.000 OA
BRANCH  13  14
ATOM     14  C   UNL     1       7.845   8.121  17.886  0.00  0.00    +0.000 C 
ATOM     15  O   UNL     1       8.404   7.370  18.669  0.00  0.00    +0.000 OA
BRANCH  14  16
ATOM     16  C   UNL     1       8.032   9.634  17.860  0.00  0.00    +0.000 C 
BRANCH  16  17
ATOM     17  C   UNL     1       9.333  10.028  18.581  0.00  0.00    +0.000 C 
ATOM     18  C   UNL     1       9.198  10.529  20.043  0.00  0.00    +0.000 C 
ATOM     19  C   UNL     1      10.063  11.816  20.069  0.00  0.00    +0.000 C 
ATOM     20  C   UNL     1       9.300  12.950  19.370  0.00  0.00    +0.000 C 
ATOM     21  C   UNL     1       9.251  12.471  17.914  0.00  0.00    +0.000 C 
ATOM     22  C   UNL     1      10.118  11.196  17.937  0.00  0.00    +0.000 C 
ATOM     23  C   UNL     1      11.138  11.513  19.032  0.00  0.00    +0.000 C 
ENDBRANCH  16  17
ENDBRANCH  14  16
ENDBRANCH  13  14
ENDBRANCH   1  13
TORSDOF 7
ENDMDL
