MODEL 1
REMARK VINA RESULT:      -8.1      0.000      0.000
REMARK  Name = 
REMARK  7 active torsions:
REMARK  status: ('A' for Active; 'I' for Inactive)
REMARK    1  A    between atoms: C_1  and  C_2
REMARK    2  A    between atoms: C_2  and  N_3
REMARK    3  A    between atoms: C_7  and  C_8
REMARK    4  A    between atoms: C_8  and  N_9
REMARK    5  A    between atoms: C_13  and  C_14
REMARK    6  A    between atoms: C_14  and  C_16
REMARK    7  A    between atoms: C_20  and  C_21
REMARK                            x       y       z     vdW  Elec       q    Type
REMARK                         _______ _______ _______ _____ _____    ______ ____
ROOT
ATOM      1  N   UNL     1       2.319   4.820  17.636  0.00  0.00    +0.000 NA
ATOM      2  C   UNL     1       2.445   5.937  18.582  0.00  0.00    +0.000 C 
ATOM      3  C   UNL     1       3.409   7.044  18.142  0.00  0.00    +0.000 C 
ATOM      4  C   UNL     1       4.748   6.477  17.686  0.00  0.00    +0.000 C 
ATOM      5  C   UNL     1       4.523   5.470  16.561  0.00  0.00    +0.000 C 
ATOM      6  C   UNL     1       3.559   4.368  17.013  0.00  0.00    +0.000 C 
ENDROOT
BRANCH   5   7
ATOM      7  C   UNL     1       5.831   4.785  16.168  0.00  0.00    +0.000 C 
ATOM      8  O   UNL     1       6.577   4.270  16.999  0.00  0.00    +0.000 OA
BRANCH   7   9
ATOM      9  C   UNL     1       6.154   4.599  14.722  0.00  0.00    +0.000 A 
ATOM     10  C   UNL     1       7.388   5.071  14.255  0.00  0.00    +0.000 A 
ATOM     11  C   UNL     1       7.746   4.900  12.917  0.00  0.00    +0.000 A 
ATOM     12  C   UNL     1       6.872   4.261  12.038  0.00  0.00    +0.000 A 
ATOM     13  C   UNL     1       5.628   3.793  12.486  0.00  0.00    +0.000 A 
ATOM     14  C   UNL     1       5.275   3.972  13.835  0.00  0.00    +0.000 A 
BRANCH  13  15
ATOM     15  C   UNL     1       4.664   3.105  11.550  0.00  0.00    +0.000 C 
ATOM     16  F   UNL     1       3.436   2.885  12.092  0.00  0.00    +0.000 F 
ATOM     17  F   UNL     1       4.449   3.828  10.415  0.00  0.00    +0.000 F 
ATOM     18  F   UNL     1       5.119   1.890  11.138  0.00  0.00    +0.000 F 
ENDBRANCH  13  15
ENDBRANCH   7   9
ENDBRANCH   5   7
BRANCH   1  19
ATOM     19  C   UNL     1       1.541   3.685  18.204  0.00  0.00    +0.000 C 
BRANCH  19  24
ATOM     20  N   UNL     1       2.899   2.705  20.187  0.00  0.00    +0.000 N 
ATOM     21  C   UNL     1       2.643   2.450  21.511  0.00  0.00    +0.000 A 
ATOM     22  C   UNL     1       1.407   2.981  21.754  0.00  0.00    +0.000 A 
ATOM     23  N   UNL     1       0.875   3.510  20.605  0.00  0.00    +0.000 NA
ATOM     24  C   UNL     1       1.785   3.329  19.655  0.00  0.00    +0.000 A 
BRANCH  20  26
ATOM     25  C   UNL     1       3.965   1.093  18.632  0.00  0.00    +0.000 C 
ATOM     26  C   UNL     1       4.133   2.314  19.531  0.00  0.00    +0.000 C 
ENDBRANCH  20  26
ENDBRANCH  19  24
ENDBRANCH   1  19
TORSDOF 6
ENDMDL
MODEL 2
REMARK VINA RESULT:      -7.8      1.117      1.672
REMARK  Name = 
REMARK  7 active torsions:
REMARK  status: ('A' for Active; 'I' for Inactive)
REMARK    1  A    between atoms: C_1  and  C_2
REMARK    2  A    between atoms: C_2  and  N_3
REMARK    3  A    between atoms: C_7  and  C_8
REMARK    4  A    between atoms: C_8  and  N_9
REMARK    5  A    between atoms: C_13  and  C_14
REMARK    6  A    between atoms: C_14  and  C_16
REMARK    7  A    between atoms: C_20  and  C_21
REMARK                            x       y       z     vdW  Elec       q    Type
REMARK                         _______ _______ _______ _____ _____    ______ ____
ROOT
ATOM      1  N   UNL     1       4.253   3.951  18.463  0.00  0.00    +0.000 NA
ATOM      2  C   UNL     1       4.209   5.226  19.191  0.00  0.00    +0.000 C 
ATOM      3  C   UNL     1       4.485   6.465  18.332  0.00  0.00    +0.000 C 
ATOM      4  C   UNL     1       5.736   6.292  17.480  0.00  0.00    +0.000 C 
ATOM      5  C   UNL     1       5.597   5.044  16.611  0.00  0.00    +0.000 C 
ATOM      6  C   UNL     1       5.323   3.813  17.480  0.00  0.00    +0.000 C 
ENDROOT
BRANCH   5   7
ATOM      7  C   UNL     1       6.887   4.767  15.840  0.00  0.00    +0.000 C 
ATOM      8  O   UNL     1       7.949   4.517  16.406  0.00  0.00    +0.000 OA
BRANCH   7   9
ATOM      9  C   UNL     1       6.839   4.648  14.352  0.00  0.00    +0.000 A 
ATOM     10  C   UNL     1       7.883   5.216  13.610  0.00  0.00    +0.000 A 
ATOM     11  C   UNL     1       7.895   5.112  12.219  0.00  0.00    +0.000 A 
ATOM     12  C   UNL     1       6.863   4.445  11.560  0.00  0.00    +0.000 A 
ATOM     13  C   UNL     1       5.804   3.880  12.287  0.00  0.00    +0.000 A 
ATOM     14  C   UNL     1       5.798   3.993  13.688  0.00  0.00    +0.000 A 
BRANCH  13  15
ATOM     15  C   UNL     1       4.672   3.160  11.594  0.00  0.00    +0.000 C 
ATOM     16  F   UNL     1       3.584   2.958  12.386  0.00  0.00    +0.000 F 
ATOM     17  F   UNL     1       4.222   3.842  10.504  0.00  0.00    +0.000 F 
ATOM     18  F   UNL     1       5.042   1.932  11.139  0.00  0.00    +0.000 F 
ENDBRANCH  13  15
ENDBRANCH   7   9
ENDBRANCH   5   7
BRANCH   1  19
ATOM     19  C   UNL     1       4.187   2.777  19.377  0.00  0.00    +0.000 C 
BRANCH  19  24
ATOM     20  N   UNL     1       1.654   2.617  19.922  0.00  0.00    +0.000 N 
ATOM     21  C   UNL     1       0.900   2.669  21.067  0.00  0.00    +0.000 A 
ATOM     22  C   UNL     1       1.798   2.695  22.098  0.00  0.00    +0.000 A 
ATOM     23  N   UNL     1       3.082   2.710  21.616  0.00  0.00    +0.000 NA
ATOM     24  C   UNL     1       2.986   2.672  20.293  0.00  0.00    +0.000 A 
BRANCH  20  26
ATOM     25  C   UNL     1       1.174   3.882  17.844  0.00  0.00    +0.000 C 
ATOM     26  C   UNL     1       1.073   2.558  18.594  0.00  0.00    +0.000 C 
ENDBRANCH  20  26
ENDBRANCH  19  24
ENDBRANCH   1  19
TORSDOF 6
ENDMDL
MODEL 3
REMARK VINA RESULT:      -7.7      5.609      8.452
REMARK  Name = 
REMARK  7 active torsions:
REMARK  status: ('A' for Active; 'I' for Inactive)
REMARK    1  A    between atoms: C_1  and  C_2
REMARK    2  A    between atoms: C_2  and  N_3
REMARK    3  A    between atoms: C_7  and  C_8
REMARK    4  A    between atoms: C_8  and  N_9
REMARK    5  A    between atoms: C_13  and  C_14
REMARK    6  A    between atoms: C_14  and  C_16
REMARK    7  A    between atoms: C_20  and  C_21
REMARK                            x       y       z     vdW  Elec       q    Type
REMARK                         _______ _______ _______ _____ _____    ______ ____
ROOT
ATOM      1  N   UNL     1       3.473   4.106  19.160  0.00  0.00    +0.000 NA
ATOM      2  C   UNL     1       2.856   3.797  20.457  0.00  0.00    +0.000 C 
ATOM      3  C   UNL     1       1.534   4.523  20.728  0.00  0.00    +0.000 C 
ATOM      4  C   UNL     1       1.644   6.016  20.445  0.00  0.00    +0.000 C 
ATOM      5  C   UNL     1       2.102   6.235  19.005  0.00  0.00    +0.000 C 
ATOM      6  C   UNL     1       3.425   5.505  18.747  0.00  0.00    +0.000 C 
ENDROOT
BRANCH   5   7
ATOM      7  C   UNL     1       2.349   7.717  18.727  0.00  0.00    +0.000 C 
ATOM      8  O   UNL     1       3.218   8.102  17.947  0.00  0.00    +0.000 OA
BRANCH   7   9
ATOM      9  C   UNL     1       1.418   8.734  19.300  0.00  0.00    +0.000 A 
ATOM     10  C   UNL     1       0.840   9.665  18.427  0.00  0.00    +0.000 A 
ATOM     11  C   UNL     1      -0.054  10.621  18.911  0.00  0.00    +0.000 A 
ATOM     12  C   UNL     1      -0.372  10.656  20.268  0.00  0.00    +0.000 A 
ATOM     13  C   UNL     1       0.207   9.738  21.157  0.00  0.00    +0.000 A 
ATOM     14  C   UNL     1       1.109   8.781  20.662  0.00  0.00    +0.000 A 
BRANCH  13  15
ATOM     15  C   UNL     1      -0.117   9.762  22.632  0.00  0.00    +0.000 C 
ATOM     16  F   UNL     1       0.951   9.500  23.432  0.00  0.00    +0.000 F 
ATOM     17  F   UNL     1      -0.597  10.972  23.031  0.00  0.00    +0.000 F 
ATOM     18  F   UNL     1      -1.073   8.852  22.966  0.00  0.00    +0.000 F 
ENDBRANCH  13  15
ENDBRANCH   7   9
ENDBRANCH   5   7
BRANCH   1  19
ATOM     19  C   UNL     1       4.846   3.541  19.040  0.00  0.00    +0.000 C 
BRANCH  19  24
ATOM     20  N   UNL     1       6.493   4.797  17.475  0.00  0.00    +0.000 N 
ATOM     21  C   UNL     1       7.585   5.607  17.661  0.00  0.00    +0.000 A 
ATOM     22  C   UNL     1       7.654   5.828  19.008  0.00  0.00    +0.000 A 
ATOM     23  N   UNL     1       6.666   5.135  19.660  0.00  0.00    +0.000 NA
ATOM     24  C   UNL     1       5.970   4.504  18.722  0.00  0.00    +0.000 A 
BRANCH  20  26
ATOM     25  C   UNL     1       5.611   5.483  15.260  0.00  0.00    +0.000 C 
ATOM     26  C   UNL     1       6.059   4.341  16.168  0.00  0.00    +0.000 C 
ENDBRANCH  20  26
ENDBRANCH  19  24
ENDBRANCH   1  19
TORSDOF 6
ENDMDL
MODEL 4
REMARK VINA RESULT:      -7.6      4.989      7.637
REMARK  Name = 
REMARK  7 active torsions:
REMARK  status: ('A' for Active; 'I' for Inactive)
REMARK    1  A    between atoms: C_1  and  C_2
REMARK    2  A    between atoms: C_2  and  N_3
REMARK    3  A    between atoms: C_7  and  C_8
REMARK    4  A    between atoms: C_8  and  N_9
REMARK    5  A    between atoms: C_13  and  C_14
REMARK    6  A    between atoms: C_14  and  C_16
REMARK    7  A    between atoms: C_20  and  C_21
REMARK                            x       y       z     vdW  Elec       q    Type
REMARK                         _______ _______ _______ _____ _____    ______ ____
ROOT
ATOM      1  N   UNL     1       3.132   4.670  18.720  0.00  0.00    +0.000 NA
ATOM      2  C   UNL     1       2.923   4.649  20.174  0.00  0.00    +0.000 C 
ATOM      3  C   UNL     1       1.801   5.566  20.674  0.00  0.00    +0.000 C 
ATOM      4  C   UNL     1       1.921   6.970  20.095  0.00  0.00    +0.000 C 
ATOM      5  C   UNL     1       1.929   6.899  18.570  0.00  0.00    +0.000 C 
ATOM      6  C   UNL     1       3.055   5.981  18.083  0.00  0.00    +0.000 C 
ENDROOT
BRANCH   5   7
ATOM      7  C   UNL     1       2.180   8.276  17.958  0.00  0.00    +0.000 C 
ATOM      8  O   UNL     1       3.147   8.506  17.234  0.00  0.00    +0.000 OA
BRANCH   7   9
ATOM      9  C   UNL     1       1.149   9.345  18.115  0.00  0.00    +0.000 A 
ATOM     10  C   UNL     1       1.510  10.516  18.794  0.00  0.00    +0.000 A 
ATOM     11  C   UNL     1       0.590  11.553  18.947  0.00  0.00    +0.000 A 
ATOM     12  C   UNL     1      -0.698  11.426  18.427  0.00  0.00    +0.000 A 
ATOM     13  C   UNL     1      -1.080  10.255  17.753  0.00  0.00    +0.000 A 
ATOM     14  C   UNL     1      -0.147   9.214  17.608  0.00  0.00    +0.000 A 
BRANCH  13  15
ATOM     15  C   UNL     1      -2.470  10.092  17.188  0.00  0.00    +0.000 C 
ATOM     16  F   UNL     1      -2.493   9.593  15.923  0.00  0.00    +0.000 F 
ATOM     17  F   UNL     1      -3.232   9.248  17.939  0.00  0.00    +0.000 F 
ATOM     18  F   UNL     1      -3.152  11.269  17.143  0.00  0.00    +0.000 F 
ENDBRANCH  13  15
ENDBRANCH   7   9
ENDBRANCH   5   7
BRANCH   1  19
ATOM     19  C   UNL     1       4.359   3.930  18.316  0.00  0.00    +0.000 C 
BRANCH  19  24
ATOM     20  N   UNL     1       6.633   4.838  17.453  0.00  0.00    +0.000 N 
ATOM     21  C   UNL     1       7.732   5.419  18.034  0.00  0.00    +0.000 A 
ATOM     22  C   UNL     1       7.392   5.624  19.342  0.00  0.00    +0.000 A 
ATOM     23  N   UNL     1       6.134   5.139  19.593  0.00  0.00    +0.000 NA
ATOM     24  C   UNL     1       5.683   4.654  18.442  0.00  0.00    +0.000 A 
BRANCH  20  26
ATOM     25  C   UNL     1       5.694   5.407  15.229  0.00  0.00    +0.000 C 
ATOM     26  C   UNL     1       6.579   4.474  16.050  0.00  0.00    +0.000 C 
ENDBRANCH  20  26
ENDBRANCH  19  24
ENDBRANCH   1  19
TORSDOF 6
ENDMDL
MODEL 5
REMARK VINA RESULT:      -7.5      5.417      8.327
REMARK  Name = 
REMARK  7 active torsions:
REMARK  status: ('A' for Active; 'I' for Inactive)
REMARK    1  A    between atoms: C_1  and  C_2
REMARK    2  A    between atoms: C_2  and  N_3
REMARK    3  A    between atoms: C_7  and  C_8
REMARK    4  A    between atoms: C_8  and  N_9
REMARK    5  A    between atoms: C_13  and  C_14
REMARK    6  A    between atoms: C_14  and  C_16
REMARK    7  A    between atoms: C_20  and  C_21
REMARK                            x       y       z     vdW  Elec       q    Type
REMARK                         _______ _______ _______ _____ _____    ______ ____
ROOT
ATOM      1  N   UNL     1       3.134   3.861  18.125  0.00  0.00    +0.000 NA
ATOM      2  C   UNL     1       3.110   3.443  19.533  0.00  0.00    +0.000 C 
ATOM      3  C   UNL     1       2.160   4.248  20.426  0.00  0.00    +0.000 C 
ATOM      4  C   UNL     1       2.348   5.748  20.239  0.00  0.00    +0.000 C 
ATOM      5  C   UNL     1       2.154   6.111  18.768  0.00  0.00    +0.000 C 
ATOM      6  C   UNL     1       3.111   5.301  17.886  0.00  0.00    +0.000 C 
ENDROOT
BRANCH   5   7
ATOM      7  C   UNL     1       2.464   7.587  18.522  0.00  0.00    +0.000 C 
ATOM      8  O   UNL     1       3.362   7.952  17.765  0.00  0.00    +0.000 OA
BRANCH   7   9
ATOM      9  C   UNL     1       1.564   8.630  19.098  0.00  0.00    +0.000 A 
ATOM     10  C   UNL     1       1.044   9.603  18.234  0.00  0.00    +0.000 A 
ATOM     11  C   UNL     1       0.179  10.585  18.720  0.00  0.00    +0.000 A 
ATOM     12  C   UNL     1      -0.167  10.603  20.071  0.00  0.00    +0.000 A 
ATOM     13  C   UNL     1       0.353   9.643  20.951  0.00  0.00    +0.000 A 
ATOM     14  C   UNL     1       1.226   8.660  20.454  0.00  0.00    +0.000 A 
BRANCH  13  15
ATOM     15  C   UNL     1      -0.003   9.648  22.418  0.00  0.00    +0.000 C 
ATOM     16  F   UNL     1       1.054   9.402  23.240  0.00  0.00    +0.000 F 
ATOM     17  F   UNL     1      -0.516  10.845  22.816  0.00  0.00    +0.000 F 
ATOM     18  F   UNL     1      -0.946   8.717  22.726  0.00  0.00    +0.000 F 
ENDBRANCH  13  15
ENDBRANCH   7   9
ENDBRANCH   5   7
BRANCH   1  19
ATOM     19  C   UNL     1       4.218   3.191  17.356  0.00  0.00    +0.000 C 
BRANCH  19  24
ATOM     20  N   UNL     1       6.220   4.843  17.314  0.00  0.00    +0.000 N 
ATOM     21  C   UNL     1       6.845   5.591  16.348  0.00  0.00    +0.000 A 
ATOM     22  C   UNL     1       6.277   5.211  15.164  0.00  0.00    +0.000 A 
ATOM     23  N   UNL     1       5.286   4.287  15.381  0.00  0.00    +0.000 NA
ATOM     24  C   UNL     1       5.252   4.076  16.691  0.00  0.00    +0.000 A 
BRANCH  20  26
ATOM     25  C   UNL     1       7.766   5.820  18.990  0.00  0.00    +0.000 C 
ATOM     26  C   UNL     1       6.552   4.936  18.724  0.00  0.00    +0.000 C 
ENDBRANCH  20  26
ENDBRANCH  19  24
ENDBRANCH   1  19
TORSDOF 6
ENDMDL
MODEL 6
REMARK VINA RESULT:      -7.5      5.412      7.283
REMARK  Name = 
REMARK  7 active torsions:
REMARK  status: ('A' for Active; 'I' for Inactive)
REMARK    1  A    between atoms: C_1  and  C_2
REMARK    2  A    between atoms: C_2  and  N_3
REMARK    3  A    between atoms: C_7  and  C_8
REMARK    4  A    between atoms: C_8  and  N_9
REMARK    5  A    between atoms: C_13  and  C_14
REMARK    6  A    between atoms: C_14  and  C_16
REMARK    7  A    between atoms: C_20  and  C_21
REMARK                            x       y       z     vdW  Elec       q    Type
REMARK                         _______ _______ _______ _____ _____    ______ ____
ROOT
ATOM      1  N   UNL     1       1.045   9.500  20.080  0.00  0.00    +0.000 NA
ATOM      2  C   UNL     1       1.523  10.106  18.829  0.00  0.00    +0.000 C 
ATOM      3  C   UNL     1       1.664   9.130  17.657  0.00  0.00    +0.000 C 
ATOM      4  C   UNL     1       2.429   7.875  18.058  0.00  0.00    +0.000 C 
ATOM      5  C   UNL     1       1.737   7.207  19.244  0.00  0.00    +0.000 C 
ATOM      6  C   UNL     1       1.603   8.193  20.410  0.00  0.00    +0.000 C 
ENDROOT
BRANCH   5   7
ATOM      7  C   UNL     1       2.549   6.019  19.756  0.00  0.00    +0.000 C 
ATOM      8  O   UNL     1       2.303   5.468  20.827  0.00  0.00    +0.000 OA
BRANCH   7   9
ATOM      9  C   UNL     1       3.582   5.403  18.871  0.00  0.00    +0.000 A 
ATOM     10  C   UNL     1       3.150   4.565  17.835  0.00  0.00    +0.000 A 
ATOM     11  C   UNL     1       4.075   3.984  16.967  0.00  0.00    +0.000 A 
ATOM     12  C   UNL     1       5.438   4.233  17.131  0.00  0.00    +0.000 A 
ATOM     13  C   UNL     1       5.889   5.062  18.170  0.00  0.00    +0.000 A 
ATOM     14  C   UNL     1       4.949   5.639  19.041  0.00  0.00    +0.000 A 
BRANCH  13  15
ATOM     15  C   UNL     1       7.359   5.340  18.370  0.00  0.00    +0.000 C 
ATOM     16  F   UNL     1       7.795   6.465  17.742  0.00  0.00    +0.000 F 
ATOM     17  F   UNL     1       7.675   5.498  19.686  0.00  0.00    +0.000 F 
ATOM     18  F   UNL     1       8.144   4.325  17.917  0.00  0.00    +0.000 F 
ENDBRANCH  13  15
ENDBRANCH   7   9
ENDBRANCH   5   7
BRANCH   1  19
ATOM     19  C   UNL     1       1.128  10.443  21.230  0.00  0.00    +0.000 C 
BRANCH  19  24
ATOM     20  N   UNL     1      -1.104  11.767  21.200  0.00  0.00    +0.000 N 
ATOM     21  C   UNL     1      -2.059  12.087  22.134  0.00  0.00    +0.000 A 
ATOM     22  C   UNL     1      -1.711  11.402  23.265  0.00  0.00    +0.000 A 
ATOM     23  N   UNL     1      -0.542  10.711  23.068  0.00  0.00    +0.000 NA
ATOM     24  C   UNL     1      -0.175  10.946  21.814  0.00  0.00    +0.000 A 
BRANCH  20  26
ATOM     25  C   UNL     1      -1.959  11.426  18.897  0.00  0.00    +0.000 C 
ATOM     26  C   UNL     1      -1.122  12.281  19.844  0.00  0.00    +0.000 C 
ENDBRANCH  20  26
ENDBRANCH  19  24
ENDBRANCH   1  19
TORSDOF 6
ENDMDL
MODEL 7
REMARK VINA RESULT:      -7.5      4.876      7.722
REMARK  Name = 
REMARK  7 active torsions:
REMARK  status: ('A' for Active; 'I' for Inactive)
REMARK    1  A    between atoms: C_1  and  C_2
REMARK    2  A    between atoms: C_2  and  N_3
REMARK    3  A    between atoms: C_7  and  C_8
REMARK    4  A    between atoms: C_8  and  N_9
REMARK    5  A    between atoms: C_13  and  C_14
REMARK    6  A    between atoms: C_14  and  C_16
REMARK    7  A    between atoms: C_20  and  C_21
REMARK                            x       y       z     vdW  Elec       q    Type
REMARK                         _______ _______ _______ _____ _____    ______ ____
ROOT
ATOM      1  N   UNL     1       3.409   4.703  18.796  0.00  0.00    +0.000 NA
ATOM      2  C   UNL     1       3.070   4.657  20.224  0.00  0.00    +0.000 C 
ATOM      3  C   UNL     1       1.851   5.497  20.622  0.00  0.00    +0.000 C 
ATOM      4  C   UNL     1       1.934   6.910  20.060  0.00  0.00    +0.000 C 
ATOM      5  C   UNL     1       2.086   6.852  18.542  0.00  0.00    +0.000 C 
ATOM      6  C   UNL     1       3.308   6.012  18.157  0.00  0.00    +0.000 C 
ENDROOT
BRANCH   5   7
ATOM      7  C   UNL     1       2.303   8.248  17.959  0.00  0.00    +0.000 C 
ATOM      8  O   UNL     1       3.258   8.513  17.230  0.00  0.00    +0.000 OA
BRANCH   7   9
ATOM      9  C   UNL     1       1.254   9.293  18.151  0.00  0.00    +0.000 A 
ATOM     10  C   UNL     1       1.584  10.430  18.900  0.00  0.00    +0.000 A 
ATOM     11  C   UNL     1       0.646  11.445  19.089  0.00  0.00    +0.000 A 
ATOM     12  C   UNL     1      -0.629  11.329  18.534  0.00  0.00    +0.000 A 
ATOM     13  C   UNL     1      -0.979  10.192  17.791  0.00  0.00    +0.000 A 
ATOM     14  C   UNL     1      -0.028   9.173  17.609  0.00  0.00    +0.000 A 
BRANCH  13  15
ATOM     15  C   UNL     1      -2.355  10.041  17.188  0.00  0.00    +0.000 C 
ATOM     16  F   UNL     1      -3.028  11.216  17.057  0.00  0.00    +0.000 F 
ATOM     17  F   UNL     1      -2.311   9.493  15.942  0.00  0.00    +0.000 F 
ATOM     18  F   UNL     1      -3.157   9.226  17.926  0.00  0.00    +0.000 F 
ENDBRANCH  13  15
ENDBRANCH   7   9
ENDBRANCH   5   7
BRANCH   1  19
ATOM     19  C   UNL     1       4.713   4.045  18.504  0.00  0.00    +0.000 C 
BRANCH  19  24
ATOM     20  N   UNL     1       6.457   5.218  16.981  0.00  0.00    +0.000 N 
ATOM     21  C   UNL     1       6.644   5.334  15.626  0.00  0.00    +0.000 A 
ATOM     22  C   UNL     1       5.714   4.512  15.055  0.00  0.00    +0.000 A 
ATOM     23  N   UNL     1       4.928   3.932  16.018  0.00  0.00    +0.000 NA
ATOM     24  C   UNL     1       5.380   4.374  17.185  0.00  0.00    +0.000 A 
BRANCH  20  26
ATOM     25  C   UNL     1       7.489   7.390  17.589  0.00  0.00    +0.000 C 
ATOM     26  C   UNL     1       7.267   5.925  17.955  0.00  0.00    +0.000 C 
ENDBRANCH  20  26
ENDBRANCH  19  24
ENDBRANCH   1  19
TORSDOF 6
ENDMDL
MODEL 8
REMARK VINA RESULT:      -7.4      5.504      8.355
REMARK  Name = 
REMARK  7 active torsions:
REMARK  status: ('A' for Active; 'I' for Inactive)
REMARK    1  A    between atoms: C_1  and  C_2
REMARK    2  A    between atoms: C_2  and  N_3
REMARK    3  A    between atoms: C_7  and  C_8
REMARK    4  A    between atoms: C_8  and  N_9
REMARK    5  A    between atoms: C_13  and  C_14
REMARK    6  A    between atoms: C_14  and  C_16
REMARK    7  A    between atoms: C_20  and  C_21
REMARK                            x       y       z     vdW  Elec       q    Type
REMARK                         _______ _______ _______ _____ _____    ______ ____
ROOT
ATOM      1  N   UNL     1       3.051   4.025  18.399  0.00  0.00    +0.000 NA
ATOM      2  C   UNL     1       2.808   3.634  19.794  0.00  0.00    +0.000 C 
ATOM      3  C   UNL     1       1.741   4.463  20.515  0.00  0.00    +0.000 C 
ATOM      4  C   UNL     1       1.970   5.958  20.332  0.00  0.00    +0.000 C 
ATOM      5  C   UNL     1       2.007   6.293  18.843  0.00  0.00    +0.000 C 
ATOM      6  C   UNL     1       3.079   5.459  18.133  0.00  0.00    +0.000 C 
ENDROOT
BRANCH   5   7
ATOM      7  C   UNL     1       2.366   7.762  18.620  0.00  0.00    +0.000 C 
ATOM      8  O   UNL     1       3.266   8.110  17.858  0.00  0.00    +0.000 OA
BRANCH   7   9
ATOM      9  C   UNL     1       1.510   8.824  19.227  0.00  0.00    +0.000 A 
ATOM     10  C   UNL     1       1.126   9.905  18.421  0.00  0.00    +0.000 A 
ATOM     11  C   UNL     1       0.308  10.911  18.936  0.00  0.00    +0.000 A 
ATOM     12  C   UNL     1      -0.128  10.847  20.259  0.00  0.00    +0.000 A 
ATOM     13  C   UNL     1       0.255   9.778  21.083  0.00  0.00    +0.000 A 
ATOM     14  C   UNL     1       1.083   8.771  20.557  0.00  0.00    +0.000 A 
BRANCH  13  15
ATOM     15  C   UNL     1      -0.199   9.692  22.520  0.00  0.00    +0.000 C 
ATOM     16  F   UNL     1      -0.904  10.778  22.938  0.00  0.00    +0.000 F 
ATOM     17  F   UNL     1      -1.004   8.615  22.739  0.00  0.00    +0.000 F 
ATOM     18  F   UNL     1       0.843   9.562  23.385  0.00  0.00    +0.000 F 
ENDBRANCH  13  15
ENDBRANCH   7   9
ENDBRANCH   5   7
BRANCH   1  19
ATOM     19  C   UNL     1       4.234   3.332  17.817  0.00  0.00    +0.000 C 
BRANCH  19  24
ATOM     20  N   UNL     1       6.406   4.277  16.754  0.00  0.00    +0.000 N 
ATOM     21  C   UNL     1       7.544   4.875  17.235  0.00  0.00    +0.000 A 
ATOM     22  C   UNL     1       7.320   5.072  18.569  0.00  0.00    +0.000 A 
ATOM     23  N   UNL     1       6.097   4.567  18.932  0.00  0.00    +0.000 NA
ATOM     24  C   UNL     1       5.552   4.076  17.825  0.00  0.00    +0.000 A 
BRANCH  20  26
ATOM     25  C   UNL     1       5.393   4.925  14.585  0.00  0.00    +0.000 C 
ATOM     26  C   UNL     1       6.232   3.914  15.361  0.00  0.00    +0.000 C 
ENDBRANCH  20  26
ENDBRANCH  19  24
ENDBRANCH   1  19
TORSDOF 6
ENDMDL
MODEL 9
REMARK VINA RESULT:      -7.4      0.963      1.292
REMARK  Name = 
REMARK  7 active torsions:
REMARK  status: ('A' for Active; 'I' for Inactive)
REMARK    1  A    between atoms: C_1  and  C_2
REMARK    2  A    between atoms: C_2  and  N_3
REMARK    3  A    between atoms: C_7  and  C_8
REMARK    4  A    between atoms: C_8  and  N_9
REMARK    5  A    between atoms: C_13  and  C_14
REMARK    6  A    between atoms: C_14  and  C_16
REMARK    7  A    between atoms: C_20  and  C_21
REMARK                            x       y       z     vdW  Elec       q    Type
REMARK                         _______ _______ _______ _____ _____    ______ ____
ROOT
ATOM      1  N   UNL     1       3.614   5.603  18.584  0.00  0.00    +0.000 NA
ATOM      2  C   UNL     1       3.434   7.047  18.380  0.00  0.00    +0.000 C 
ATOM      3  C   UNL     1       3.611   7.516  16.932  0.00  0.00    +0.000 C 
ATOM      4  C   UNL     1       4.892   6.968  16.315  0.00  0.00    +0.000 C 
ATOM      5  C   UNL     1       4.891   5.443  16.398  0.00  0.00    +0.000 C 
ATOM      6  C   UNL     1       4.714   4.986  17.850  0.00  0.00    +0.000 C 
ENDROOT
BRANCH   5   7
ATOM      7  C   UNL     1       6.218   4.866  15.907  0.00  0.00    +0.000 C 
ATOM      8  O   UNL     1       7.086   4.468  16.682  0.00  0.00    +0.000 OA
BRANCH   7   9
ATOM      9  C   UNL     1       6.420   4.636  14.446  0.00  0.00    +0.000 A 
ATOM     10  C   UNL     1       7.605   5.103  13.862  0.00  0.00    +0.000 A 
ATOM     11  C   UNL     1       7.850   4.892  12.504  0.00  0.00    +0.000 A 
ATOM     12  C   UNL     1       6.912   4.219  11.722  0.00  0.00    +0.000 A 
ATOM     13  C   UNL     1       5.716   3.755  12.289  0.00  0.00    +0.000 A 
ATOM     14  C   UNL     1       5.475   3.975  13.656  0.00  0.00    +0.000 A 
BRANCH  13  15
ATOM     15  C   UNL     1       4.684   3.030  11.459  0.00  0.00    +0.000 C 
ATOM     16  F   UNL     1       5.079   1.794  11.049  0.00  0.00    +0.000 F 
ATOM     17  F   UNL     1       3.518   2.844  12.141  0.00  0.00    +0.000 F 
ATOM     18  F   UNL     1       4.351   3.715  10.332  0.00  0.00    +0.000 F 
ENDBRANCH  13  15
ENDBRANCH   7   9
ENDBRANCH   5   7
BRANCH   1  19
ATOM     19  C   UNL     1       3.639   5.237  20.028  0.00  0.00    +0.000 C 
BRANCH  19  24
ATOM     20  N   UNL     1       2.967   2.741  20.259  0.00  0.00    +0.000 N 
ATOM     21  C   UNL     1       1.854   2.070  20.703  0.00  0.00    +0.000 A 
ATOM     22  C   UNL     1       1.030   3.028  21.224  0.00  0.00    +0.000 A 
ATOM     23  N   UNL     1       1.582   4.274  21.068  0.00  0.00    +0.000 NA
ATOM     24  C   UNL     1       2.755   4.092  20.472  0.00  0.00    +0.000 A 
BRANCH  20  26
ATOM     25  C   UNL     1       3.749   1.394  18.329  0.00  0.00    +0.000 C 
ATOM     26  C   UNL     1       4.101   2.075  19.648  0.00  0.00    +0.000 C 
ENDBRANCH  20  26
ENDBRANCH  19  24
ENDBRANCH   1  19
TORSDOF 6
ENDMDL
