MODEL 1
REMARK VINA RESULT:      -5.8      0.000      0.000
REMARK  Name = 
REMARK  2 active torsions:
REMARK  status: ('A' for Active; 'I' for Inactive)
REMARK    1  A    between atoms: C_2  and  C_3
REMARK    2  A    between atoms: C_6  and  O_7
REMARK                            x       y       z     vdW  Elec       q    Type
REMARK                         _______ _______ _______ _____ _____    ______ ____
ROOT
ATOM      1  C   UNL     1       4.233   3.767  18.503  0.00  0.00    +0.000 C 
ATOM      2  C   UNL     1       3.884   2.974  17.474  0.00  0.00    +0.000 C 
ATOM      3  C   UNL     1       2.569   2.252  17.423  0.00  0.00    +0.000 C 
ATOM      4  C   UNL     1       1.528   2.840  18.387  0.00  0.00    +0.000 C 
ATOM      5  C   UNL     1       2.143   3.055  19.781  0.00  0.00    +0.000 C 
ATOM      6  C   UNL     1       1.193   3.768  20.750  0.00  0.00    +0.000 C 
ATOM      7  C   UNL     1       1.571   5.248  20.720  0.00  0.00    +0.000 C 
ATOM      8  C   UNL     1       2.770   5.377  19.789  0.00  0.00    +0.000 C 
ATOM      9  C   UNL     1       3.377   3.974  19.722  0.00  0.00    +0.000 C 
ENDROOT
BRANCH   1  11
ATOM     10  O   UNL     1       6.252   4.639  19.421  0.00  0.00    +0.000 OA
ATOM     11  C   UNL     1       5.544   4.461  18.436  0.00  0.00    +0.000 C 
ENDBRANCH   1  11
BRANCH   4  12
ATOM     12  O   UNL     1       0.402   1.968  18.469  0.00  0.00    +0.000 OA
ATOM     13  H   UNL     1       0.104   1.769  17.564  0.00  0.00    +0.000 HD
ENDBRANCH   4  12
TORSDOF 2
ENDMDL
MODEL 2
REMARK VINA RESULT:      -5.8      2.647      5.161
REMARK  Name = 
REMARK  2 active torsions:
REMARK  status: ('A' for Active; 'I' for Inactive)
REMARK    1  A    between atoms: C_2  and  C_3
REMARK    2  A    between atoms: C_6  and  O_7
REMARK                            x       y       z     vdW  Elec       q    Type
REMARK                         _______ _______ _______ _____ _____    ______ ____
ROOT
ATOM      1  C   UNL     1       4.813   4.520  17.877  0.00  0.00    +0.000 C 
ATOM      2  C   UNL     1       4.781   3.821  16.728  0.00  0.00    +0.000 C 
ATOM      3  C   UNL     1       5.663   4.153  15.559  0.00  0.00    +0.000 C 
ATOM      4  C   UNL     1       6.864   5.027  15.947  0.00  0.00    +0.000 C 
ATOM      5  C   UNL     1       6.414   6.206  16.827  0.00  0.00    +0.000 C 
ATOM      6  C   UNL     1       7.585   7.036  17.360  0.00  0.00    +0.000 C 
ATOM      7  C   UNL     1       7.874   6.527  18.771  0.00  0.00    +0.000 C 
ATOM      8  C   UNL     1       6.834   5.454  19.072  0.00  0.00    +0.000 C 
ATOM      9  C   UNL     1       5.687   5.723  18.096  0.00  0.00    +0.000 C 
ENDROOT
BRANCH   1  11
ATOM     10  O   UNL     1       4.076   3.028  19.583  0.00  0.00    +0.000 OA
ATOM     11  C   UNL     1       3.921   4.086  18.983  0.00  0.00    +0.000 C 
ENDBRANCH   1  11
BRANCH   4  12
ATOM     12  O   UNL     1       7.513   5.503  14.769  0.00  0.00    +0.000 OA
ATOM     13  H   UNL     1       8.409   5.795  15.011  0.00  0.00    +0.000 HD
ENDBRANCH   4  12
TORSDOF 2
ENDMDL
MODEL 3
REMARK VINA RESULT:      -5.7      2.025      3.552
REMARK  Name = 
REMARK  2 active torsions:
REMARK  status: ('A' for Active; 'I' for Inactive)
REMARK    1  A    between atoms: C_2  and  C_3
REMARK    2  A    between atoms: C_6  and  O_7
REMARK                            x       y       z     vdW  Elec       q    Type
REMARK                         _______ _______ _______ _____ _____    ______ ____
ROOT
ATOM      1  C   UNL     1       1.979   5.681  19.702  0.00  0.00    +0.000 C 
ATOM      2  C   UNL     1       1.419   4.905  20.647  0.00  0.00    +0.000 C 
ATOM      3  C   UNL     1       1.186   3.435  20.449  0.00  0.00    +0.000 C 
ATOM      4  C   UNL     1       2.025   2.846  19.305  0.00  0.00    +0.000 C 
ATOM      5  C   UNL     1       1.930   3.734  18.052  0.00  0.00    +0.000 C 
ATOM      6  C   UNL     1       2.856   3.274  16.922  0.00  0.00    +0.000 C 
ATOM      7  C   UNL     1       4.122   4.124  17.021  0.00  0.00    +0.000 C 
ATOM      8  C   UNL     1       3.900   5.110  18.162  0.00  0.00    +0.000 C 
ATOM      9  C   UNL     1       2.382   5.177  18.343  0.00  0.00    +0.000 C 
ENDROOT
BRANCH   1  11
ATOM     10  O   UNL     1       1.484   7.739  20.795  0.00  0.00    +0.000 OA
ATOM     11  C   UNL     1       2.195   7.116  20.014  0.00  0.00    +0.000 C 
ENDBRANCH   1  11
BRANCH   4  12
ATOM     12  O   UNL     1       1.580   1.523  19.014  0.00  0.00    +0.000 OA
ATOM     13  H   UNL     1       1.059   1.203  19.771  0.00  0.00    +0.000 HD
ENDBRANCH   4  12
TORSDOF 2
ENDMDL
MODEL 4
REMARK VINA RESULT:      -5.7      1.715      3.158
REMARK  Name = 
REMARK  2 active torsions:
REMARK  status: ('A' for Active; 'I' for Inactive)
REMARK    1  A    between atoms: C_2  and  C_3
REMARK    2  A    between atoms: C_6  and  O_7
REMARK                            x       y       z     vdW  Elec       q    Type
REMARK                         _______ _______ _______ _____ _____    ______ ____
ROOT
ATOM      1  C   UNL     1       2.934   5.827  18.397  0.00  0.00    +0.000 C 
ATOM      2  C   UNL     1       2.600   6.280  19.619  0.00  0.00    +0.000 C 
ATOM      3  C   UNL     1       1.787   5.467  20.585  0.00  0.00    +0.000 C 
ATOM      4  C   UNL     1       1.769   3.971  20.237  0.00  0.00    +0.000 C 
ATOM      5  C   UNL     1       1.470   3.766  18.742  0.00  0.00    +0.000 C 
ATOM      6  C   UNL     1       1.575   2.301  18.307  0.00  0.00    +0.000 C 
ATOM      7  C   UNL     1       2.971   2.122  17.711  0.00  0.00    +0.000 C 
ATOM      8  C   UNL     1       3.642   3.490  17.746  0.00  0.00    +0.000 C 
ATOM      9  C   UNL     1       2.494   4.496  17.853  0.00  0.00    +0.000 C 
ENDROOT
BRANCH   1  11
ATOM     10  O   UNL     1       4.996   6.693  17.573  0.00  0.00    +0.000 OA
ATOM     11  C   UNL     1       3.770   6.700  17.534  0.00  0.00    +0.000 C 
ENDBRANCH   1  11
BRANCH   4  12
ATOM     12  O   UNL     1       0.793   3.304  21.037  0.00  0.00    +0.000 OA
ATOM     13  H   UNL     1      -0.003   3.862  21.075  0.00  0.00    +0.000 HD
ENDBRANCH   4  12
TORSDOF 2
ENDMDL
MODEL 5
REMARK VINA RESULT:      -5.7      2.865      4.592
REMARK  Name = 
REMARK  2 active torsions:
REMARK  status: ('A' for Active; 'I' for Inactive)
REMARK    1  A    between atoms: C_2  and  C_3
REMARK    2  A    between atoms: C_6  and  O_7
REMARK                            x       y       z     vdW  Elec       q    Type
REMARK                         _______ _______ _______ _____ _____    ______ ____
ROOT
ATOM      1  C   UNL     1       5.868   4.674  15.805  0.00  0.00    +0.000 C 
ATOM      2  C   UNL     1       7.134   4.522  16.235  0.00  0.00    +0.000 C 
ATOM      3  C   UNL     1       7.542   4.800  17.652  0.00  0.00    +0.000 C 
ATOM      4  C   UNL     1       6.351   4.826  18.622  0.00  0.00    +0.000 C 
ATOM      5  C   UNL     1       5.209   5.686  18.053  0.00  0.00    +0.000 C 
ATOM      6  C   UNL     1       3.941   5.639  18.910  0.00  0.00    +0.000 C 
ATOM      7  C   UNL     1       3.024   4.595  18.275  0.00  0.00    +0.000 C 
ATOM      8  C   UNL     1       3.733   4.090  17.025  0.00  0.00    +0.000 C 
ATOM      9  C   UNL     1       4.749   5.179  16.674  0.00  0.00    +0.000 C 
ENDROOT
BRANCH   1  11
ATOM     10  O   UNL     1       6.335   3.697  13.682  0.00  0.00    +0.000 OA
ATOM     11  C   UNL     1       5.567   4.339  14.390  0.00  0.00    +0.000 C 
ENDBRANCH   1  11
BRANCH   4  12
ATOM     12  O   UNL     1       6.773   5.332  19.887  0.00  0.00    +0.000 OA
ATOM     13  H   UNL     1       7.409   6.052  19.732  0.00  0.00    +0.000 HD
ENDBRANCH   4  12
TORSDOF 2
ENDMDL
MODEL 6
REMARK VINA RESULT:      -5.7      2.048      3.252
REMARK  Name = 
REMARK  2 active torsions:
REMARK  status: ('A' for Active; 'I' for Inactive)
REMARK    1  A    between atoms: C_2  and  C_3
REMARK    2  A    between atoms: C_6  and  O_7
REMARK                            x       y       z     vdW  Elec       q    Type
REMARK                         _______ _______ _______ _____ _____    ______ ____
ROOT
ATOM      1  C   UNL     1       3.233   5.780  18.680  0.00  0.00    +0.000 C 
ATOM      2  C   UNL     1       4.572   5.652  18.663  0.00  0.00    +0.000 C 
ATOM      3  C   UNL     1       5.267   4.396  19.101  0.00  0.00    +0.000 C 
ATOM      4  C   UNL     1       4.333   3.177  19.132  0.00  0.00    +0.000 C 
ATOM      5  C   UNL     1       3.016   3.522  19.849  0.00  0.00    +0.000 C 
ATOM      6  C   UNL     1       1.989   2.388  19.790  0.00  0.00    +0.000 C 
ATOM      7  C   UNL     1       1.051   2.708  18.627  0.00  0.00    +0.000 C 
ATOM      8  C   UNL     1       1.499   4.050  18.060  0.00  0.00    +0.000 C 
ATOM      9  C   UNL     1       2.301   4.712  19.182  0.00  0.00    +0.000 C 
ENDROOT
BRANCH   1  11
ATOM     10  O   UNL     1       2.134   7.878  18.943  0.00  0.00    +0.000 OA
ATOM     11  C   UNL     1       2.647   7.055  18.193  0.00  0.00    +0.000 C 
ENDBRANCH   1  11
BRANCH   4  12
ATOM     12  O   UNL     1       4.985   2.088  19.783  0.00  0.00    +0.000 OA
ATOM     13  H   UNL     1       4.490   1.877  20.593  0.00  0.00    +0.000 HD
ENDBRANCH   4  12
TORSDOF 2
ENDMDL
MODEL 7
REMARK VINA RESULT:      -5.7      2.710      4.024
REMARK  Name = 
REMARK  2 active torsions:
REMARK  status: ('A' for Active; 'I' for Inactive)
REMARK    1  A    between atoms: C_2  and  C_3
REMARK    2  A    between atoms: C_6  and  O_7
REMARK                            x       y       z     vdW  Elec       q    Type
REMARK                         _______ _______ _______ _____ _____    ______ ____
ROOT
ATOM      1  C   UNL     1       3.510   6.591  17.737  0.00  0.00    +0.000 C 
ATOM      2  C   UNL     1       4.520   6.815  16.877  0.00  0.00    +0.000 C 
ATOM      3  C   UNL     1       5.397   5.713  16.358  0.00  0.00    +0.000 C 
ATOM      4  C   UNL     1       4.772   4.321  16.536  0.00  0.00    +0.000 C 
ATOM      5  C   UNL     1       4.224   4.152  17.963  0.00  0.00    +0.000 C 
ATOM      6  C   UNL     1       3.466   2.836  18.160  0.00  0.00    +0.000 C 
ATOM      7  C   UNL     1       1.982   3.156  17.985  0.00  0.00    +0.000 C 
ATOM      8  C   UNL     1       1.882   4.659  17.752  0.00  0.00    +0.000 C 
ATOM      9  C   UNL     1       3.186   5.237  18.305  0.00  0.00    +0.000 C 
ENDROOT
BRANCH   1  11
ATOM     10  O   UNL     1       2.358   8.648  17.392  0.00  0.00    +0.000 OA
ATOM     11  C   UNL     1       2.684   7.750  18.160  0.00  0.00    +0.000 C 
ENDBRANCH   1  11
BRANCH   4  12
ATOM     12  O   UNL     1       5.746   3.318  16.254  0.00  0.00    +0.000 OA
ATOM     13  H   UNL     1       5.297   2.455  16.228  0.00  0.00    +0.000 HD
ENDBRANCH   4  12
TORSDOF 2
ENDMDL
MODEL 8
REMARK VINA RESULT:      -5.6      3.096      4.849
REMARK  Name = 
REMARK  2 active torsions:
REMARK  status: ('A' for Active; 'I' for Inactive)
REMARK    1  A    between atoms: C_2  and  C_3
REMARK    2  A    between atoms: C_6  and  O_7
REMARK                            x       y       z     vdW  Elec       q    Type
REMARK                         _______ _______ _______ _____ _____    ______ ____
ROOT
ATOM      1  C   UNL     1       6.291   4.661  15.781  0.00  0.00    +0.000 C 
ATOM      2  C   UNL     1       5.015   4.251  15.895  0.00  0.00    +0.000 C 
ATOM      3  C   UNL     1       4.308   4.176  17.217  0.00  0.00    +0.000 C 
ATOM      4  C   UNL     1       4.996   5.006  18.310  0.00  0.00    +0.000 C 
ATOM      5  C   UNL     1       6.511   4.734  18.322  0.00  0.00    +0.000 C 
ATOM      6  C   UNL     1       7.272   5.636  19.299  0.00  0.00    +0.000 C 
ATOM      7  C   UNL     1       7.824   6.801  18.477  0.00  0.00    +0.000 C 
ATOM      8  C   UNL     1       7.437   6.537  17.027  0.00  0.00    +0.000 C 
ATOM      9  C   UNL     1       7.153   5.035  16.955  0.00  0.00    +0.000 C 
ENDROOT
BRANCH   1  11
ATOM     10  O   UNL     1       7.793   5.500  14.132  0.00  0.00    +0.000 OA
ATOM     11  C   UNL     1       6.884   4.729  14.421  0.00  0.00    +0.000 C 
ENDBRANCH   1  11
BRANCH   4  12
ATOM     12  O   UNL     1       4.424   4.698  19.580  0.00  0.00    +0.000 OA
ATOM     13  H   UNL     1       3.799   3.962  19.462  0.00  0.00    +0.000 HD
ENDBRANCH   4  12
TORSDOF 2
ENDMDL
MODEL 9
REMARK VINA RESULT:      -5.6      1.951      3.376
REMARK  Name = 
REMARK  2 active torsions:
REMARK  status: ('A' for Active; 'I' for Inactive)
REMARK    1  A    between atoms: C_2  and  C_3
REMARK    2  A    between atoms: C_6  and  O_7
REMARK                            x       y       z     vdW  Elec       q    Type
REMARK                         _______ _______ _______ _____ _____    ______ ____
ROOT
ATOM      1  C   UNL     1       1.919   3.110  19.901  0.00  0.00    +0.000 C 
ATOM      2  C   UNL     1       2.699   2.191  19.303  0.00  0.00    +0.000 C 
ATOM      3  C   UNL     1       3.497   2.492  18.067  0.00  0.00    +0.000 C 
ATOM      4  C   UNL     1       3.686   3.998  17.832  0.00  0.00    +0.000 C 
ATOM      5  C   UNL     1       2.348   4.742  17.987  0.00  0.00    +0.000 C 
ATOM      6  C   UNL     1       2.497   6.264  17.900  0.00  0.00    +0.000 C 
ATOM      7  C   UNL     1       2.569   6.779  19.337  0.00  0.00    +0.000 C 
ATOM      8  C   UNL     1       2.399   5.567  20.246  0.00  0.00    +0.000 C 
ATOM      9  C   UNL     1       1.724   4.505  19.375  0.00  0.00    +0.000 C 
ENDROOT
BRANCH   1  11
ATOM     10  O   UNL     1       1.776   2.478  22.194  0.00  0.00    +0.000 OA
ATOM     11  C   UNL     1       1.199   2.716  21.138  0.00  0.00    +0.000 C 
ENDBRANCH   1  11
BRANCH   4  12
ATOM     12  O   UNL     1       4.230   4.217  16.531  0.00  0.00    +0.000 OA
ATOM     13  H   UNL     1       5.178   3.998  16.556  0.00  0.00    +0.000 HD
ENDBRANCH   4  12
TORSDOF 2
ENDMDL
