MODEL 1
REMARK VINA RESULT:      -8.5      0.000      0.000
REMARK  Name = 
REMARK  3 active torsions:
REMARK  status: ('A' for Active; 'I' for Inactive)
REMARK    1  A    between atoms: C_2  and  C_3
REMARK    2  A    between atoms: C_2  and  C_18
REMARK    3  A    between atoms: C_3  and  N_4
REMARK                            x       y       z     vdW  Elec       q    Type
REMARK                         _______ _______ _______ _____ _____    ______ ____
ROOT
ATOM      1  N   UNL     1       3.242   5.708  18.612  0.00  0.00    +0.000 N 
ATOM      2  C   UNL     1       4.162   5.600  17.584  0.00  0.00    +0.000 A 
ATOM      3  C   UNL     1       5.095   6.604  17.251  0.00  0.00    +0.000 A 
ATOM      4  C   UNL     1       5.946   6.498  16.146  0.00  0.00    +0.000 A 
ATOM      5  C   UNL     1       5.936   5.351  15.371  0.00  0.00    +0.000 A 
ATOM      6  C   UNL     1       5.084   4.308  15.709  0.00  0.00    +0.000 A 
ATOM      7  C   UNL     1       4.203   4.421  16.798  0.00  0.00    +0.000 A 
ATOM      8  C   UNL     1       3.373   3.358  17.106  0.00  0.00    +0.000 A 
ATOM      9  C   UNL     1       2.493   3.450  18.170  0.00  0.00    +0.000 A 
ATOM     10  C   UNL     1       1.687   2.340  18.475  0.00  0.00    +0.000 A 
ATOM     11  C   UNL     1       0.789   2.381  19.533  0.00  0.00    +0.000 A 
ATOM     12  C   UNL     1       0.692   3.533  20.296  0.00  0.00    +0.000 A 
ATOM     13  C   UNL     1       1.494   4.646  20.003  0.00  0.00    +0.000 A 
ATOM     14  C   UNL     1       2.418   4.645  18.937  0.00  0.00    +0.000 A 
ENDROOT
BRANCH   1  15
ATOM     15  C   UNL     1       3.168   6.984  19.385  0.00  0.00    +0.000 C 
BRANCH  15  17
ATOM     16  O   UNL     1       1.898   8.093  17.682  0.00  0.00    +0.000 OA
ATOM     17  C   UNL     1       2.124   7.956  18.882  0.00  0.00    +0.000 C 
BRANCH  17  18
ATOM     18  C   UNL     1       1.316   8.760  19.829  0.00  0.00    +0.000 A 
ATOM     19  C   UNL     1       1.242   8.312  21.160  0.00  0.00    +0.000 A 
ATOM     20  C   UNL     1       0.425   8.973  22.077  0.00  0.00    +0.000 A 
ATOM     21  C   UNL     1      -0.319  10.069  21.659  0.00  0.00    +0.000 A 
ATOM     22  F   UNL     1      -1.125  10.689  22.528  0.00  0.00    +0.000 F 
ATOM     23  C   UNL     1      -0.255  10.520  20.343  0.00  0.00    +0.000 A 
ATOM     24  C   UNL     1       0.561   9.864  19.418  0.00  0.00    +0.000 A 
ENDBRANCH  17  18
ENDBRANCH  15  17
ENDBRANCH   1  15
TORSDOF 3
ENDMDL
MODEL 2
REMARK VINA RESULT:      -8.5      3.057      6.274
REMARK  Name = 
REMARK  3 active torsions:
REMARK  status: ('A' for Active; 'I' for Inactive)
REMARK    1  A    between atoms: C_2  and  C_3
REMARK    2  A    between atoms: C_2  and  C_18
REMARK    3  A    between atoms: C_3  and  N_4
REMARK                            x       y       z     vdW  Elec       q    Type
REMARK                         _______ _______ _______ _____ _____    ______ ____
ROOT
ATOM      1  N   UNL     1       3.017   5.371  18.309  0.00  0.00    +0.000 N 
ATOM      2  C   UNL     1       2.948   4.437  19.328  0.00  0.00    +0.000 A 
ATOM      3  C   UNL     1       3.448   3.122  19.227  0.00  0.00    +0.000 A 
ATOM      4  C   UNL     1       3.277   2.177  20.245  0.00  0.00    +0.000 A 
ATOM      5  C   UNL     1       2.652   2.536  21.427  0.00  0.00    +0.000 A 
ATOM      6  C   UNL     1       2.211   3.842  21.595  0.00  0.00    +0.000 A 
ATOM      7  C   UNL     1       2.350   4.788  20.564  0.00  0.00    +0.000 A 
ATOM      8  C   UNL     1       1.903   6.080  20.771  0.00  0.00    +0.000 A 
ATOM      9  C   UNL     1       2.023   7.026  19.769  0.00  0.00    +0.000 A 
ATOM     10  C   UNL     1       1.588   8.337  20.024  0.00  0.00    +0.000 A 
ATOM     11  C   UNL     1       1.688   9.323  19.052  0.00  0.00    +0.000 A 
ATOM     12  C   UNL     1       2.228   9.004  17.816  0.00  0.00    +0.000 A 
ATOM     13  C   UNL     1       2.670   7.700  17.552  0.00  0.00    +0.000 A 
ATOM     14  C   UNL     1       2.585   6.670  18.512  0.00  0.00    +0.000 A 
ENDROOT
BRANCH   1  15
ATOM     15  C   UNL     1       3.588   4.963  16.991  0.00  0.00    +0.000 C 
BRANCH  15  17
ATOM     16  O   UNL     1       5.486   3.560  16.573  0.00  0.00    +0.000 OA
ATOM     17  C   UNL     1       5.060   4.618  17.032  0.00  0.00    +0.000 C 
BRANCH  17  18
ATOM     18  C   UNL     1       6.047   5.563  17.606  0.00  0.00    +0.000 A 
ATOM     19  C   UNL     1       6.207   6.802  16.962  0.00  0.00    +0.000 A 
ATOM     20  C   UNL     1       7.183   7.697  17.399  0.00  0.00    +0.000 A 
ATOM     21  C   UNL     1       7.998   7.348  18.468  0.00  0.00    +0.000 A 
ATOM     22  F   UNL     1       8.954   8.191  18.874  0.00  0.00    +0.000 F 
ATOM     23  C   UNL     1       7.849   6.122  19.113  0.00  0.00    +0.000 A 
ATOM     24  C   UNL     1       6.874   5.220  18.682  0.00  0.00    +0.000 A 
ENDBRANCH  17  18
ENDBRANCH  15  17
ENDBRANCH   1  15
TORSDOF 3
ENDMDL
MODEL 3
REMARK VINA RESULT:      -8.5      3.041      5.732
REMARK  Name = 
REMARK  3 active torsions:
REMARK  status: ('A' for Active; 'I' for Inactive)
REMARK    1  A    between atoms: C_2  and  C_3
REMARK    2  A    between atoms: C_2  and  C_18
REMARK    3  A    between atoms: C_3  and  N_4
REMARK                            x       y       z     vdW  Elec       q    Type
REMARK                         _______ _______ _______ _____ _____    ______ ____
ROOT
ATOM      1  N   UNL     1       2.960   5.343  18.313  0.00  0.00    +0.000 N 
ATOM      2  C   UNL     1       2.515   6.639  18.515  0.00  0.00    +0.000 A 
ATOM      3  C   UNL     1       2.510   7.635  17.516  0.00  0.00    +0.000 A 
ATOM      4  C   UNL     1       2.141   8.958  17.783  0.00  0.00    +0.000 A 
ATOM      5  C   UNL     1       1.704   9.315  19.046  0.00  0.00    +0.000 A 
ATOM      6  C   UNL     1       1.623   8.346  20.038  0.00  0.00    +0.000 A 
ATOM      7  C   UNL     1       2.024   7.023  19.787  0.00  0.00    +0.000 A 
ATOM      8  C   UNL     1       1.925   6.086  20.800  0.00  0.00    +0.000 A 
ATOM      9  C   UNL     1       2.319   4.779  20.577  0.00  0.00    +0.000 A 
ATOM     10  C   UNL     1       2.175   3.845  21.617  0.00  0.00    +0.000 A 
ATOM     11  C   UNL     1       2.554   2.521  21.444  0.00  0.00    +0.000 A 
ATOM     12  C   UNL     1       3.079   2.120  20.226  0.00  0.00    +0.000 A 
ATOM     13  C   UNL     1       3.224   3.042  19.180  0.00  0.00    +0.000 A 
ATOM     14  C   UNL     1       2.851   4.395  19.315  0.00  0.00    +0.000 A 
ENDROOT
BRANCH   1  15
ATOM     15  C   UNL     1       3.537   4.976  16.986  0.00  0.00    +0.000 C 
BRANCH  15  17
ATOM     16  O   UNL     1       5.417   3.550  16.565  0.00  0.00    +0.000 OA
ATOM     17  C   UNL     1       5.005   4.613  17.025  0.00  0.00    +0.000 C 
BRANCH  17  18
ATOM     18  C   UNL     1       6.004   5.545  17.599  0.00  0.00    +0.000 A 
ATOM     19  C   UNL     1       6.162   6.792  16.970  0.00  0.00    +0.000 A 
ATOM     20  C   UNL     1       7.148   7.676  17.406  0.00  0.00    +0.000 A 
ATOM     21  C   UNL     1       7.974   7.308  18.460  0.00  0.00    +0.000 A 
ATOM     22  F   UNL     1       8.940   8.142  18.864  0.00  0.00    +0.000 F 
ATOM     23  C   UNL     1       7.828   6.075  19.090  0.00  0.00    +0.000 A 
ATOM     24  C   UNL     1       6.842   5.184  18.659  0.00  0.00    +0.000 A 
ENDBRANCH  17  18
ENDBRANCH  15  17
ENDBRANCH   1  15
TORSDOF 3
ENDMDL
MODEL 4
REMARK VINA RESULT:      -8.4      0.174      3.709
REMARK  Name = 
REMARK  3 active torsions:
REMARK  status: ('A' for Active; 'I' for Inactive)
REMARK    1  A    between atoms: C_2  and  C_3
REMARK    2  A    between atoms: C_2  and  C_18
REMARK    3  A    between atoms: C_3  and  N_4
REMARK                            x       y       z     vdW  Elec       q    Type
REMARK                         _______ _______ _______ _____ _____    ______ ____
ROOT
ATOM      1  N   UNL     1       3.279   5.744  18.614  0.00  0.00    +0.000 N 
ATOM      2  C   UNL     1       2.490   4.677  19.010  0.00  0.00    +0.000 A 
ATOM      3  C   UNL     1       1.545   4.740  20.055  0.00  0.00    +0.000 A 
ATOM      4  C   UNL     1       0.833   3.616  20.489  0.00  0.00    +0.000 A 
ATOM      5  C   UNL     1       0.998   2.401  19.847  0.00  0.00    +0.000 A 
ATOM      6  C   UNL     1       1.865   2.314  18.765  0.00  0.00    +0.000 A 
ATOM      7  C   UNL     1       2.608   3.431  18.345  0.00  0.00    +0.000 A 
ATOM      8  C   UNL     1       3.457   3.306  17.260  0.00  0.00    +0.000 A 
ATOM      9  C   UNL     1       4.203   4.390  16.834  0.00  0.00    +0.000 A 
ATOM     10  C   UNL     1       5.031   4.237  15.709  0.00  0.00    +0.000 A 
ATOM     11  C   UNL     1       5.799   5.294  15.240  0.00  0.00    +0.000 A 
ATOM     12  C   UNL     1       5.741   6.515  15.892  0.00  0.00    +0.000 A 
ATOM     13  C   UNL     1       4.915   6.681  17.014  0.00  0.00    +0.000 A 
ATOM     14  C   UNL     1       4.120   5.632  17.521  0.00  0.00    +0.000 A 
ENDROOT
BRANCH   1  15
ATOM     15  C   UNL     1       3.190   7.028  19.370  0.00  0.00    +0.000 C 
BRANCH  15  17
ATOM     16  O   UNL     1       1.815   8.059  17.701  0.00  0.00    +0.000 OA
ATOM     17  C   UNL     1       2.096   7.956  18.893  0.00  0.00    +0.000 C 
BRANCH  17  18
ATOM     18  C   UNL     1       1.304   8.756  19.857  0.00  0.00    +0.000 A 
ATOM     19  C   UNL     1       1.264   8.311  21.189  0.00  0.00    +0.000 A 
ATOM     20  C   UNL     1       0.464   8.968  22.124  0.00  0.00    +0.000 A 
ATOM     21  C   UNL     1      -0.297  10.057  21.722  0.00  0.00    +0.000 A 
ATOM     22  F   UNL     1      -1.088  10.673  22.608  0.00  0.00    +0.000 F 
ATOM     23  C   UNL     1      -0.268  10.506  20.404  0.00  0.00    +0.000 A 
ATOM     24  C   UNL     1       0.532   9.854  19.462  0.00  0.00    +0.000 A 
ENDBRANCH  17  18
ENDBRANCH  15  17
ENDBRANCH   1  15
TORSDOF 3
ENDMDL
MODEL 5
REMARK VINA RESULT:      -8.3      0.631      1.189
REMARK  Name = 
REMARK  3 active torsions:
REMARK  status: ('A' for Active; 'I' for Inactive)
REMARK    1  A    between atoms: C_2  and  C_3
REMARK    2  A    between atoms: C_2  and  C_18
REMARK    3  A    between atoms: C_3  and  N_4
REMARK                            x       y       z     vdW  Elec       q    Type
REMARK                         _______ _______ _______ _____ _____    ______ ____
ROOT
ATOM      1  N   UNL     1       3.525   5.639  18.382  0.00  0.00    +0.000 N 
ATOM      2  C   UNL     1       4.476   5.373  17.412  0.00  0.00    +0.000 A 
ATOM      3  C   UNL     1       5.484   6.281  17.026  0.00  0.00    +0.000 A 
ATOM      4  C   UNL     1       6.369   6.014  15.976  0.00  0.00    +0.000 A 
ATOM      5  C   UNL     1       6.315   4.799  15.316  0.00  0.00    +0.000 A 
ATOM      6  C   UNL     1       5.384   3.848  15.715  0.00  0.00    +0.000 A 
ATOM      7  C   UNL     1       4.470   4.122  16.747  0.00  0.00    +0.000 A 
ATOM      8  C   UNL     1       3.562   3.147  17.118  0.00  0.00    +0.000 A 
ATOM      9  C   UNL     1       2.649   3.398  18.127  0.00  0.00    +0.000 A 
ATOM     10  C   UNL     1       1.762   2.375  18.501  0.00  0.00    +0.000 A 
ATOM     11  C   UNL     1       0.828   2.575  19.508  0.00  0.00    +0.000 A 
ATOM     12  C   UNL     1       0.776   3.801  20.151  0.00  0.00    +0.000 A 
ATOM     13  C   UNL     1       1.659   4.828  19.788  0.00  0.00    +0.000 A 
ATOM     14  C   UNL     1       2.622   4.665  18.771  0.00  0.00    +0.000 A 
ENDROOT
BRANCH   1  15
ATOM     15  C   UNL     1       3.504   6.987  19.023  0.00  0.00    +0.000 C 
BRANCH  15  17
ATOM     16  O   UNL     1       2.619   8.203  17.157  0.00  0.00    +0.000 OA
ATOM     17  C   UNL     1       2.567   7.975  18.364  0.00  0.00    +0.000 C 
BRANCH  17  18
ATOM     18  C   UNL     1       1.533   8.684  19.153  0.00  0.00    +0.000 A 
ATOM     19  C   UNL     1       0.799   9.691  18.501  0.00  0.00    +0.000 A 
ATOM     20  C   UNL     1      -0.124  10.457  19.213  0.00  0.00    +0.000 A 
ATOM     21  C   UNL     1      -0.304  10.219  20.569  0.00  0.00    +0.000 A 
ATOM     22  F   UNL     1      -1.168  10.969  21.262  0.00  0.00    +0.000 F 
ATOM     23  C   UNL     1       0.418   9.225  21.225  0.00  0.00    +0.000 A 
ATOM     24  C   UNL     1       1.345   8.454  20.520  0.00  0.00    +0.000 A 
ENDBRANCH  17  18
ENDBRANCH  15  17
ENDBRANCH   1  15
TORSDOF 3
ENDMDL
MODEL 6
REMARK VINA RESULT:      -7.7      0.867      3.920
REMARK  Name = 
REMARK  3 active torsions:
REMARK  status: ('A' for Active; 'I' for Inactive)
REMARK    1  A    between atoms: C_2  and  C_3
REMARK    2  A    between atoms: C_2  and  C_18
REMARK    3  A    between atoms: C_3  and  N_4
REMARK                            x       y       z     vdW  Elec       q    Type
REMARK                         _______ _______ _______ _____ _____    ______ ____
ROOT
ATOM      1  N   UNL     1       3.250   5.855  18.602  0.00  0.00    +0.000 N 
ATOM      2  C   UNL     1       2.573   4.765  19.123  0.00  0.00    +0.000 A 
ATOM      3  C   UNL     1       1.653   4.845  20.189  0.00  0.00    +0.000 A 
ATOM      4  C   UNL     1       1.060   3.708  20.750  0.00  0.00    +0.000 A 
ATOM      5  C   UNL     1       1.321   2.456  20.221  0.00  0.00    +0.000 A 
ATOM      6  C   UNL     1       2.165   2.343  19.124  0.00  0.00    +0.000 A 
ATOM      7  C   UNL     1       2.790   3.476  18.575  0.00  0.00    +0.000 A 
ATOM      8  C   UNL     1       3.620   3.322  17.480  0.00  0.00    +0.000 A 
ATOM      9  C   UNL     1       4.251   4.423  16.928  0.00  0.00    +0.000 A 
ATOM     10  C   UNL     1       5.062   4.236  15.796  0.00  0.00    +0.000 A 
ATOM     11  C   UNL     1       5.716   5.308  15.203  0.00  0.00    +0.000 A 
ATOM     12  C   UNL     1       5.561   6.576  15.738  0.00  0.00    +0.000 A 
ATOM     13  C   UNL     1       4.751   6.775  16.865  0.00  0.00    +0.000 A 
ATOM     14  C   UNL     1       4.071   5.713  17.496  0.00  0.00    +0.000 A 
ENDROOT
BRANCH   1  15
ATOM     15  C   UNL     1       3.061   7.193  19.235  0.00  0.00    +0.000 C 
BRANCH  15  17
ATOM     16  O   UNL     1       1.505   7.763  17.504  0.00  0.00    +0.000 OA
ATOM     17  C   UNL     1       1.960   8.025  18.615  0.00  0.00    +0.000 C 
BRANCH  17  18
ATOM     18  C   UNL     1       1.373   9.174  19.344  0.00  0.00    +0.000 A 
ATOM     19  C   UNL     1       1.402  10.427  18.709  0.00  0.00    +0.000 A 
ATOM     20  C   UNL     1       0.948  11.563  19.379  0.00  0.00    +0.000 A 
ATOM     21  C   UNL     1       0.476  11.442  20.679  0.00  0.00    +0.000 A 
ATOM     22  F   UNL     1       0.065  12.533  21.336  0.00  0.00    +0.000 F 
ATOM     23  C   UNL     1       0.444  10.206  21.319  0.00  0.00    +0.000 A 
ATOM     24  C   UNL     1       0.896   9.063  20.655  0.00  0.00    +0.000 A 
ENDBRANCH  17  18
ENDBRANCH  15  17
ENDBRANCH   1  15
TORSDOF 3
ENDMDL
MODEL 7
REMARK VINA RESULT:      -7.7      1.339      4.087
REMARK  Name = 
REMARK  3 active torsions:
REMARK  status: ('A' for Active; 'I' for Inactive)
REMARK    1  A    between atoms: C_2  and  C_3
REMARK    2  A    between atoms: C_2  and  C_18
REMARK    3  A    between atoms: C_3  and  N_4
REMARK                            x       y       z     vdW  Elec       q    Type
REMARK                         _______ _______ _______ _____ _____    ______ ____
ROOT
ATOM      1  N   UNL     1       3.088   5.531  18.292  0.00  0.00    +0.000 N 
ATOM      2  C   UNL     1       2.680   4.604  19.236  0.00  0.00    +0.000 A 
ATOM      3  C   UNL     1       1.360   4.501  19.722  0.00  0.00    +0.000 A 
ATOM      4  C   UNL     1       1.006   3.614  20.745  0.00  0.00    +0.000 A 
ATOM      5  C   UNL     1       1.952   2.753  21.274  0.00  0.00    +0.000 A 
ATOM      6  C   UNL     1       3.247   2.771  20.771  0.00  0.00    +0.000 A 
ATOM      7  C   UNL     1       3.617   3.682  19.767  0.00  0.00    +0.000 A 
ATOM      8  C   UNL     1       4.915   3.667  19.289  0.00  0.00    +0.000 A 
ATOM      9  C   UNL     1       5.304   4.559  18.305  0.00  0.00    +0.000 A 
ATOM     10  C   UNL     1       6.620   4.494  17.820  0.00  0.00    +0.000 A 
ATOM     11  C   UNL     1       7.059   5.366  16.832  0.00  0.00    +0.000 A 
ATOM     12  C   UNL     1       6.182   6.308  16.321  0.00  0.00    +0.000 A 
ATOM     13  C   UNL     1       4.864   6.379  16.796  0.00  0.00    +0.000 A 
ATOM     14  C   UNL     1       4.380   5.513  17.797  0.00  0.00    +0.000 A 
ENDROOT
BRANCH   1  15
ATOM     15  C   UNL     1       2.103   6.537  17.795  0.00  0.00    +0.000 C 
BRANCH  15  17
ATOM     16  O   UNL     1       3.126   8.704  17.800  0.00  0.00    +0.000 OA
ATOM     17  C   UNL     1       2.322   7.936  18.325  0.00  0.00    +0.000 C 
BRANCH  17  18
ATOM     18  C   UNL     1       1.550   8.440  19.486  0.00  0.00    +0.000 A 
ATOM     19  C   UNL     1       0.780   9.600  19.296  0.00  0.00    +0.000 A 
ATOM     20  C   UNL     1       0.103  10.174  20.372  0.00  0.00    +0.000 A 
ATOM     21  C   UNL     1       0.207   9.594  21.629  0.00  0.00    +0.000 A 
ATOM     22  F   UNL     1      -0.418  10.157  22.670  0.00  0.00    +0.000 F 
ATOM     23  C   UNL     1       0.969   8.446  21.829  0.00  0.00    +0.000 A 
ATOM     24  C   UNL     1       1.649   7.864  20.757  0.00  0.00    +0.000 A 
ENDBRANCH  17  18
ENDBRANCH  15  17
ENDBRANCH   1  15
TORSDOF 3
ENDMDL
MODEL 8
REMARK VINA RESULT:      -7.7      3.728      6.847
REMARK  Name = 
REMARK  3 active torsions:
REMARK  status: ('A' for Active; 'I' for Inactive)
REMARK    1  A    between atoms: C_2  and  C_3
REMARK    2  A    between atoms: C_2  and  C_18
REMARK    3  A    between atoms: C_3  and  N_4
REMARK                            x       y       z     vdW  Elec       q    Type
REMARK                         _______ _______ _______ _____ _____    ______ ____
ROOT
ATOM      1  N   UNL     1       3.924   5.296  18.728  0.00  0.00    +0.000 N 
ATOM      2  C   UNL     1       3.238   6.494  18.624  0.00  0.00    +0.000 A 
ATOM      3  C   UNL     1       3.495   7.467  17.635  0.00  0.00    +0.000 A 
ATOM      4  C   UNL     1       2.846   8.706  17.620  0.00  0.00    +0.000 A 
ATOM      5  C   UNL     1       1.870   8.990  18.559  0.00  0.00    +0.000 A 
ATOM      6  C   UNL     1       1.536   8.030  19.505  0.00  0.00    +0.000 A 
ATOM      7  C   UNL     1       2.206   6.795  19.548  0.00  0.00    +0.000 A 
ATOM      8  C   UNL     1       1.841   5.864  20.503  0.00  0.00    +0.000 A 
ATOM      9  C   UNL     1       2.493   4.645  20.567  0.00  0.00    +0.000 A 
ATOM     10  C   UNL     1       2.075   3.708  21.528  0.00  0.00    +0.000 A 
ATOM     11  C   UNL     1       2.695   2.470  21.633  0.00  0.00    +0.000 A 
ATOM     12  C   UNL     1       3.736   2.159  20.774  0.00  0.00    +0.000 A 
ATOM     13  C   UNL     1       4.159   3.084  19.809  0.00  0.00    +0.000 A 
ATOM     14  C   UNL     1       3.556   4.351  19.670  0.00  0.00    +0.000 A 
ENDROOT
BRANCH   1  15
ATOM     15  C   UNL     1       5.053   5.026  17.789  0.00  0.00    +0.000 C 
BRANCH  15  17
ATOM     16  O   UNL     1       3.620   3.654  16.444  0.00  0.00    +0.000 OA
ATOM     17  C   UNL     1       4.645   4.329  16.510  0.00  0.00    +0.000 C 
BRANCH  17  18
ATOM     18  C   UNL     1       5.460   4.462  15.279  0.00  0.00    +0.000 A 
ATOM     19  C   UNL     1       5.033   3.757  14.141  0.00  0.00    +0.000 A 
ATOM     20  C   UNL     1       5.805   3.768  12.980  0.00  0.00    +0.000 A 
ATOM     21  C   UNL     1       7.000   4.474  12.964  0.00  0.00    +0.000 A 
ATOM     22  F   UNL     1       7.758   4.465  11.862  0.00  0.00    +0.000 F 
ATOM     23  C   UNL     1       7.434   5.175  14.086  0.00  0.00    +0.000 A 
ATOM     24  C   UNL     1       6.667   5.169  15.254  0.00  0.00    +0.000 A 
ENDBRANCH  17  18
ENDBRANCH  15  17
ENDBRANCH   1  15
TORSDOF 3
ENDMDL
MODEL 9
REMARK VINA RESULT:      -7.6      1.332      3.955
REMARK  Name = 
REMARK  3 active torsions:
REMARK  status: ('A' for Active; 'I' for Inactive)
REMARK    1  A    between atoms: C_2  and  C_3
REMARK    2  A    between atoms: C_2  and  C_18
REMARK    3  A    between atoms: C_3  and  N_4
REMARK                            x       y       z     vdW  Elec       q    Type
REMARK                         _______ _______ _______ _____ _____    ______ ____
ROOT
ATOM      1  N   UNL     1       3.066   5.498  18.266  0.00  0.00    +0.000 N 
ATOM      2  C   UNL     1       2.682   4.593  19.241  0.00  0.00    +0.000 A 
ATOM      3  C   UNL     1       1.382   4.524  19.785  0.00  0.00    +0.000 A 
ATOM      4  C   UNL     1       1.056   3.659  20.836  0.00  0.00    +0.000 A 
ATOM      5  C   UNL     1       2.008   2.788  21.337  0.00  0.00    +0.000 A 
ATOM      6  C   UNL     1       3.279   2.773  20.779  0.00  0.00    +0.000 A 
ATOM      7  C   UNL     1       3.624   3.662  19.746  0.00  0.00    +0.000 A 
ATOM      8  C   UNL     1       4.899   3.614  19.214  0.00  0.00    +0.000 A 
ATOM      9  C   UNL     1       5.262   4.483  18.200  0.00  0.00    +0.000 A 
ATOM     10  C   UNL     1       6.555   4.386  17.660  0.00  0.00    +0.000 A 
ATOM     11  C   UNL     1       6.967   5.234  16.641  0.00  0.00    +0.000 A 
ATOM     12  C   UNL     1       6.087   6.185  16.153  0.00  0.00    +0.000 A 
ATOM     13  C   UNL     1       4.792   6.289  16.682  0.00  0.00    +0.000 A 
ATOM     14  C   UNL     1       4.335   5.447  17.717  0.00  0.00    +0.000 A 
ENDROOT
BRANCH   1  15
ATOM     15  C   UNL     1       2.080   6.516  17.796  0.00  0.00    +0.000 C 
BRANCH  15  17
ATOM     16  O   UNL     1       3.225   8.621  17.782  0.00  0.00    +0.000 OA
ATOM     17  C   UNL     1       2.352   7.919  18.289  0.00  0.00    +0.000 C 
BRANCH  17  18
ATOM     18  C   UNL     1       1.551   8.508  19.388  0.00  0.00    +0.000 A 
ATOM     19  C   UNL     1       1.641   7.900  20.652  0.00  0.00    +0.000 A 
ATOM     20  C   UNL     1       0.843   8.350  21.704  0.00  0.00    +0.000 A 
ATOM     21  C   UNL     1      -0.043   9.397  21.486  0.00  0.00    +0.000 A 
ATOM     22  F   UNL     1      -0.830   9.814  22.484  0.00  0.00    +0.000 F 
ATOM     23  C   UNL     1      -0.142  10.006  20.238  0.00  0.00    +0.000 A 
ATOM     24  C   UNL     1       0.654   9.561  19.179  0.00  0.00    +0.000 A 
ENDBRANCH  17  18
ENDBRANCH  15  17
ENDBRANCH   1  15
TORSDOF 3
ENDMDL
