MODEL 1
REMARK VINA RESULT:      -7.2      0.000      0.000
REMARK  Name = 
REMARK  4 active torsions:
REMARK  status: ('A' for Active; 'I' for Inactive)
REMARK    1  A    between atoms: C_2  and  C_3
REMARK    2  A    between atoms: C_8  and  C_9
REMARK    3  A    between atoms: C_9  and  N_10
REMARK    4  A    between atoms: C_16  and  N_17
REMARK                            x       y       z     vdW  Elec       q    Type
REMARK                         _______ _______ _______ _____ _____    ______ ____
ROOT
ATOM      1  N   UNL     1       2.951   6.263  19.340  0.00  0.00    +0.000 N 
ATOM      2  C   UNL     1       3.727   6.700  18.240  0.00  0.00    +0.000 A 
ATOM      3  N   UNL     1       4.714   5.859  17.744  0.00  0.00    +0.000 N 
ATOM      4  C   UNL     1       5.948   5.577  18.464  0.00  0.00    +0.000 C 
ATOM      5  C   UNL     1       7.159   5.651  17.539  0.00  0.00    +0.000 C 
ATOM      6  C   UNL     1       6.980   4.788  16.292  0.00  0.00    +0.000 C 
ATOM      7  C   UNL     1       5.678   5.143  15.560  0.00  0.00    +0.000 C 
ATOM      8  C   UNL     1       4.481   5.066  16.529  0.00  0.00    +0.000 C 
ATOM      9  N   UNL     1       3.566   7.859  17.645  0.00  0.00    +0.000 NA
ATOM     10  C   UNL     1       2.584   8.684  18.190  0.00  0.00    +0.000 A 
ATOM     11  C   UNL     1       2.232   9.992  17.825  0.00  0.00    +0.000 A 
ATOM     12  C   UNL     1       1.229  10.390  18.699  0.00  0.00    +0.000 A 
ATOM     13  N   UNL     1       0.974   9.345  19.556  0.00  0.00    +0.000 N 
ATOM     14  C   UNL     1       1.818   8.313  19.251  0.00  0.00    +0.000 A 
ATOM     15  C   UNL     1       1.949   7.064  19.906  0.00  0.00    +0.000 A 
ATOM     16  O   UNL     1       1.276   6.765  20.885  0.00  0.00    +0.000 OA
ATOM     17  H   UNL     1       0.297   9.332  20.306  0.00  0.00    +0.000 HD
ENDROOT
BRANCH   7  18
ATOM     18  N   UNL     1       5.502   4.239  14.411  0.00  0.00    +0.000 NA
ATOM     19  H   UNL     1       4.572   4.350  14.012  0.00  0.00    +0.000 HD
ATOM     20  H   UNL     1       5.559   3.272  14.731  0.00  0.00    +0.000 HD
ENDBRANCH   7  18
BRANCH   1  21
ATOM     21  C   UNL     1       3.224   5.038  20.073  0.00  0.00    +0.000 C 
BRANCH  21  27
ATOM     22  C   UNL     1       2.975   2.462  19.813  0.00  0.00    +0.000 A 
ATOM     23  C   UNL     1       2.209   1.381  19.343  0.00  0.00    +0.000 A 
ATOM     24  C   UNL     1       0.977   1.587  18.722  0.00  0.00    +0.000 A 
ATOM     25  C   UNL     1       0.488   2.880  18.575  0.00  0.00    +0.000 A 
ATOM     26  C   UNL     1       1.235   3.959  19.040  0.00  0.00    +0.000 A 
ATOM     27  C   UNL     1       2.483   3.775  19.676  0.00  0.00    +0.000 A 
BRANCH  22  29
ATOM     28  N   UNL     1       5.210   1.870  20.993  0.00  0.00    +0.000 NA
ATOM     29  C   UNL     1       4.224   2.153  20.451  0.00  0.00    +0.000 C 
ENDBRANCH  22  29
ENDBRANCH  21  27
ENDBRANCH   1  21
TORSDOF 4
ENDMDL
MODEL 2
REMARK VINA RESULT:      -7.1      1.615      4.763
REMARK  Name = 
REMARK  4 active torsions:
REMARK  status: ('A' for Active; 'I' for Inactive)
REMARK    1  A    between atoms: C_2  and  C_3
REMARK    2  A    between atoms: C_8  and  C_9
REMARK    3  A    between atoms: C_9  and  N_10
REMARK    4  A    between atoms: C_16  and  N_17
REMARK                            x       y       z     vdW  Elec       q    Type
REMARK                         _______ _______ _______ _____ _____    ______ ____
ROOT
ATOM      1  N   UNL     1       3.291   6.610  18.198  0.00  0.00    +0.000 N 
ATOM      2  C   UNL     1       2.843   5.528  18.993  0.00  0.00    +0.000 A 
ATOM      3  N   UNL     1       3.293   4.249  18.694  0.00  0.00    +0.000 N 
ATOM      4  C   UNL     1       2.865   3.517  17.510  0.00  0.00    +0.000 C 
ATOM      5  C   UNL     1       2.517   2.071  17.848  0.00  0.00    +0.000 C 
ATOM      6  C   UNL     1       3.643   1.375  18.610  0.00  0.00    +0.000 C 
ATOM      7  C   UNL     1       4.038   2.176  19.859  0.00  0.00    +0.000 C 
ATOM      8  C   UNL     1       4.372   3.632  19.478  0.00  0.00    +0.000 C 
ATOM      9  N   UNL     1       2.028   5.658  20.014  0.00  0.00    +0.000 NA
ATOM     10  C   UNL     1       1.579   6.953  20.265  0.00  0.00    +0.000 A 
ATOM     11  C   UNL     1       0.658   7.394  21.226  0.00  0.00    +0.000 A 
ATOM     12  C   UNL     1       0.517   8.763  21.040  0.00  0.00    +0.000 A 
ATOM     13  N   UNL     1       1.341   9.137  20.005  0.00  0.00    +0.000 N 
ATOM     14  C   UNL     1       1.973   8.024  19.524  0.00  0.00    +0.000 A 
ATOM     15  C   UNL     1       2.866   7.926  18.429  0.00  0.00    +0.000 A 
ATOM     16  O   UNL     1       3.177   8.897  17.750  0.00  0.00    +0.000 OA
ATOM     17  H   UNL     1       1.455  10.070  19.633  0.00  0.00    +0.000 HD
ENDROOT
BRANCH   7  18
ATOM     18  N   UNL     1       5.175   1.516  20.523  0.00  0.00    +0.000 NA
ATOM     19  H   UNL     1       5.688   2.185  21.094  0.00  0.00    +0.000 HD
ATOM     20  H   UNL     1       5.832   1.185  19.815  0.00  0.00    +0.000 HD
ENDBRANCH   7  18
BRANCH   1  21
ATOM     21  C   UNL     1       4.086   6.440  16.993  0.00  0.00    +0.000 C 
BRANCH  21  27
ATOM     22  C   UNL     1       6.076   4.957  16.219  0.00  0.00    +0.000 A 
ATOM     23  C   UNL     1       7.357   4.445  16.492  0.00  0.00    +0.000 A 
ATOM     24  C   UNL     1       8.042   4.800  17.654  0.00  0.00    +0.000 A 
ATOM     25  C   UNL     1       7.458   5.684  18.554  0.00  0.00    +0.000 A 
ATOM     26  C   UNL     1       6.193   6.201  18.293  0.00  0.00    +0.000 A 
ATOM     27  C   UNL     1       5.482   5.861  17.121  0.00  0.00    +0.000 A 
BRANCH  22  29
ATOM     28  N   UNL     1       4.987   4.184  13.993  0.00  0.00    +0.000 NA
ATOM     29  C   UNL     1       5.454   4.547  14.991  0.00  0.00    +0.000 C 
ENDBRANCH  22  29
ENDBRANCH  21  27
ENDBRANCH   1  21
TORSDOF 4
ENDMDL
MODEL 3
REMARK VINA RESULT:      -6.6      1.882      5.289
REMARK  Name = 
REMARK  4 active torsions:
REMARK  status: ('A' for Active; 'I' for Inactive)
REMARK    1  A    between atoms: C_2  and  C_3
REMARK    2  A    between atoms: C_8  and  C_9
REMARK    3  A    between atoms: C_9  and  N_10
REMARK    4  A    between atoms: C_16  and  N_17
REMARK                            x       y       z     vdW  Elec       q    Type
REMARK                         _______ _______ _______ _____ _____    ______ ____
ROOT
ATOM      1  N   UNL     1       2.740   5.735  19.763  0.00  0.00    +0.000 N 
ATOM      2  C   UNL     1       3.675   5.067  18.937  0.00  0.00    +0.000 A 
ATOM      3  N   UNL     1       4.858   5.716  18.610  0.00  0.00    +0.000 N 
ATOM      4  C   UNL     1       4.912   6.852  17.700  0.00  0.00    +0.000 C 
ATOM      5  C   UNL     1       6.057   6.712  16.704  0.00  0.00    +0.000 C 
ATOM      6  C   UNL     1       7.389   6.435  17.399  0.00  0.00    +0.000 C 
ATOM      7  C   UNL     1       7.283   5.215  18.325  0.00  0.00    +0.000 C 
ATOM      8  C   UNL     1       6.108   5.390  19.309  0.00  0.00    +0.000 C 
ATOM      9  N   UNL     1       3.498   3.856  18.462  0.00  0.00    +0.000 NA
ATOM     10  C   UNL     1       2.287   3.251  18.792  0.00  0.00    +0.000 A 
ATOM     11  C   UNL     1       1.784   2.008  18.380  0.00  0.00    +0.000 A 
ATOM     12  C   UNL     1       0.522   1.885  18.946  0.00  0.00    +0.000 A 
ATOM     13  N   UNL     1       0.278   3.017  19.688  0.00  0.00    +0.000 N 
ATOM     14  C   UNL     1       1.353   3.855  19.575  0.00  0.00    +0.000 A 
ATOM     15  C   UNL     1       1.517   5.151  20.121  0.00  0.00    +0.000 A 
ATOM     16  O   UNL     1       0.646   5.692  20.792  0.00  0.00    +0.000 OA
ATOM     17  H   UNL     1      -0.558   3.222  20.217  0.00  0.00    +0.000 HD
ENDROOT
BRANCH   7  18
ATOM     18  N   UNL     1       8.559   5.027  19.035  0.00  0.00    +0.000 NA
ATOM     19  H   UNL     1       8.804   5.869  19.552  0.00  0.00    +0.000 HD
ATOM     20  H   UNL     1       9.306   4.887  18.353  0.00  0.00    +0.000 HD
ENDBRANCH   7  18
BRANCH   1  21
ATOM     21  C   UNL     1       2.885   7.121  20.174  0.00  0.00    +0.000 C 
BRANCH  21  27
ATOM     22  C   UNL     1       1.143   9.050  20.275  0.00  0.00    +0.000 A 
ATOM     23  C   UNL     1       0.289   9.921  19.576  0.00  0.00    +0.000 A 
ATOM     24  C   UNL     1       0.226   9.905  18.183  0.00  0.00    +0.000 A 
ATOM     25  C   UNL     1       1.029   9.023  17.468  0.00  0.00    +0.000 A 
ATOM     26  C   UNL     1       1.882   8.159  18.148  0.00  0.00    +0.000 A 
ATOM     27  C   UNL     1       1.967   8.160  19.558  0.00  0.00    +0.000 A 
BRANCH  22  29
ATOM     28  N   UNL     1       1.159   9.276  22.861  0.00  0.00    +0.000 NA
ATOM     29  C   UNL     1       1.152   9.148  21.708  0.00  0.00    +0.000 C 
ENDBRANCH  22  29
ENDBRANCH  21  27
ENDBRANCH   1  21
TORSDOF 4
ENDMDL
MODEL 4
REMARK VINA RESULT:      -6.6      1.763      5.066
REMARK  Name = 
REMARK  4 active torsions:
REMARK  status: ('A' for Active; 'I' for Inactive)
REMARK    1  A    between atoms: C_2  and  C_3
REMARK    2  A    between atoms: C_8  and  C_9
REMARK    3  A    between atoms: C_9  and  N_10
REMARK    4  A    between atoms: C_16  and  N_17
REMARK                            x       y       z     vdW  Elec       q    Type
REMARK                         _______ _______ _______ _____ _____    ______ ____
ROOT
ATOM      1  N   UNL     1       3.232   6.451  17.815  0.00  0.00    +0.000 N 
ATOM      2  C   UNL     1       2.257   6.091  18.776  0.00  0.00    +0.000 A 
ATOM      3  N   UNL     1       2.143   4.756  19.141  0.00  0.00    +0.000 N 
ATOM      4  C   UNL     1       1.601   3.737  18.253  0.00  0.00    +0.000 C 
ATOM      5  C   UNL     1       0.618   2.829  18.985  0.00  0.00    +0.000 C 
ATOM      6  C   UNL     1       1.217   2.253  20.267  0.00  0.00    +0.000 C 
ATOM      7  C   UNL     1       1.749   3.371  21.175  0.00  0.00    +0.000 C 
ATOM      8  C   UNL     1       2.730   4.271  20.397  0.00  0.00    +0.000 C 
ATOM      9  N   UNL     1       1.450   6.948  19.358  0.00  0.00    +0.000 NA
ATOM     10  C   UNL     1       1.579   8.272  18.943  0.00  0.00    +0.000 A 
ATOM     11  C   UNL     1       0.821   9.390  19.323  0.00  0.00    +0.000 A 
ATOM     12  C   UNL     1       1.315  10.466  18.598  0.00  0.00    +0.000 A 
ATOM     13  N   UNL     1       2.350  10.012  17.815  0.00  0.00    +0.000 N 
ATOM     14  C   UNL     1       2.495   8.667  18.018  0.00  0.00    +0.000 A 
ATOM     15  C   UNL     1       3.394   7.775  17.384  0.00  0.00    +0.000 A 
ATOM     16  O   UNL     1       4.183   8.146  16.523  0.00  0.00    +0.000 OA
ATOM     17  H   UNL     1       2.907  10.561  17.175  0.00  0.00    +0.000 HD
ENDROOT
BRANCH   7  18
ATOM     18  N   UNL     1       2.387   2.775  22.361  0.00  0.00    +0.000 NA
ATOM     19  H   UNL     1       1.709   2.669  23.113  0.00  0.00    +0.000 HD
ATOM     20  H   UNL     1       3.103   3.410  22.714  0.00  0.00    +0.000 HD
ENDBRANCH   7  18
BRANCH   1  21
ATOM     21  C   UNL     1       4.028   5.481  17.082  0.00  0.00    +0.000 C 
BRANCH  21  27
ATOM     22  C   UNL     1       6.459   4.639  16.704  0.00  0.00    +0.000 A 
ATOM     23  C   UNL     1       7.751   4.457  17.227  0.00  0.00    +0.000 A 
ATOM     24  C   UNL     1       8.072   4.878  18.518  0.00  0.00    +0.000 A 
ATOM     25  C   UNL     1       7.104   5.500  19.299  0.00  0.00    +0.000 A 
ATOM     26  C   UNL     1       5.823   5.690  18.791  0.00  0.00    +0.000 A 
ATOM     27  C   UNL     1       5.475   5.277  17.485  0.00  0.00    +0.000 A 
BRANCH  22  29
ATOM     28  N   UNL     1       6.070   3.852  14.261  0.00  0.00    +0.000 NA
ATOM     29  C   UNL     1       6.225   4.187  15.361  0.00  0.00    +0.000 C 
ENDBRANCH  22  29
ENDBRANCH  21  27
ENDBRANCH   1  21
TORSDOF 4
ENDMDL
MODEL 5
REMARK VINA RESULT:      -6.6      1.377      1.903
REMARK  Name = 
REMARK  4 active torsions:
REMARK  status: ('A' for Active; 'I' for Inactive)
REMARK    1  A    between atoms: C_2  and  C_3
REMARK    2  A    between atoms: C_8  and  C_9
REMARK    3  A    between atoms: C_9  and  N_10
REMARK    4  A    between atoms: C_16  and  N_17
REMARK                            x       y       z     vdW  Elec       q    Type
REMARK                         _______ _______ _______ _____ _____    ______ ____
ROOT
ATOM      1  N   UNL     1       3.208   6.345  19.191  0.00  0.00    +0.000 N 
ATOM      2  C   UNL     1       3.821   6.809  18.003  0.00  0.00    +0.000 A 
ATOM      3  N   UNL     1       4.839   6.052  17.438  0.00  0.00    +0.000 N 
ATOM      4  C   UNL     1       6.161   5.933  18.038  0.00  0.00    +0.000 C 
ATOM      5  C   UNL     1       7.261   6.090  16.992  0.00  0.00    +0.000 C 
ATOM      6  C   UNL     1       7.054   5.155  15.801  0.00  0.00    +0.000 C 
ATOM      7  C   UNL     1       5.656   5.339  15.194  0.00  0.00    +0.000 C 
ATOM      8  C   UNL     1       4.575   5.184  16.283  0.00  0.00    +0.000 C 
ATOM      9  N   UNL     1       3.479   7.916  17.386  0.00  0.00    +0.000 NA
ATOM     10  C   UNL     1       2.471   8.659  18.000  0.00  0.00    +0.000 A 
ATOM     11  C   UNL     1       1.947   9.906  17.626  0.00  0.00    +0.000 A 
ATOM     12  C   UNL     1       0.997  10.237  18.583  0.00  0.00    +0.000 A 
ATOM     13  N   UNL     1       0.942   9.212  19.498  0.00  0.00    +0.000 N 
ATOM     14  C   UNL     1       1.858   8.260  19.146  0.00  0.00    +0.000 A 
ATOM     15  C   UNL     1       2.187   7.063  19.828  0.00  0.00    +0.000 A 
ATOM     16  O   UNL     1       1.649   6.743  20.881  0.00  0.00    +0.000 OA
ATOM     17  H   UNL     1       0.347   9.165  20.314  0.00  0.00    +0.000 HD
ENDROOT
BRANCH   7  18
ATOM     18  N   UNL     1       5.467   4.370  14.102  0.00  0.00    +0.000 NA
ATOM     19  H   UNL     1       5.562   3.419  14.452  0.00  0.00    +0.000 HD
ATOM     20  H   UNL     1       6.207   4.492  13.411  0.00  0.00    +0.000 HD
ENDBRANCH   7  18
BRANCH   1  21
ATOM     21  C   UNL     1       3.682   5.190  19.935  0.00  0.00    +0.000 C 
BRANCH  21  27
ATOM     22  C   UNL     1       1.670   3.605  19.487  0.00  0.00    +0.000 A 
ATOM     23  C   UNL     1       0.765   2.655  19.995  0.00  0.00    +0.000 A 
ATOM     24  C   UNL     1       0.840   2.226  21.320  0.00  0.00    +0.000 A 
ATOM     25  C   UNL     1       1.831   2.733  22.154  0.00  0.00    +0.000 A 
ATOM     26  C   UNL     1       2.734   3.670  21.661  0.00  0.00    +0.000 A 
ATOM     27  C   UNL     1       2.682   4.117  20.322  0.00  0.00    +0.000 A 
BRANCH  22  29
ATOM     28  N   UNL     1       1.365   4.257  16.993  0.00  0.00    +0.000 NA
ATOM     29  C   UNL     1       1.525   3.976  18.108  0.00  0.00    +0.000 C 
ENDBRANCH  22  29
ENDBRANCH  21  27
ENDBRANCH   1  21
TORSDOF 4
ENDMDL
MODEL 6
REMARK VINA RESULT:      -6.6      1.763      4.799
REMARK  Name = 
REMARK  4 active torsions:
REMARK  status: ('A' for Active; 'I' for Inactive)
REMARK    1  A    between atoms: C_2  and  C_3
REMARK    2  A    between atoms: C_8  and  C_9
REMARK    3  A    between atoms: C_9  and  N_10
REMARK    4  A    between atoms: C_16  and  N_17
REMARK                            x       y       z     vdW  Elec       q    Type
REMARK                         _______ _______ _______ _____ _____    ______ ____
ROOT
ATOM      1  N   UNL     1       2.447   6.914  18.574  0.00  0.00    +0.000 N 
ATOM      2  C   UNL     1       1.894   6.169  19.643  0.00  0.00    +0.000 A 
ATOM      3  N   UNL     1       2.014   4.786  19.624  0.00  0.00    +0.000 N 
ATOM      4  C   UNL     1       1.276   3.941  18.694  0.00  0.00    +0.000 C 
ATOM      5  C   UNL     1       0.678   2.730  19.401  0.00  0.00    +0.000 C 
ATOM      6  C   UNL     1       1.725   1.964  20.208  0.00  0.00    +0.000 C 
ATOM      7  C   UNL     1       2.454   2.895  21.187  0.00  0.00    +0.000 C 
ATOM      8  C   UNL     1       3.034   4.111  20.437  0.00  0.00    +0.000 C 
ATOM      9  N   UNL     1       1.278   6.708  20.669  0.00  0.00    +0.000 NA
ATOM     10  C   UNL     1       1.156   8.096  20.637  0.00  0.00    +0.000 A 
ATOM     11  C   UNL     1       0.495   8.942  21.540  0.00  0.00    +0.000 A 
ATOM     12  C   UNL     1       0.625  10.231  21.040  0.00  0.00    +0.000 A 
ATOM     13  N   UNL     1       1.356  10.164  19.878  0.00  0.00    +0.000 N 
ATOM     14  C   UNL     1       1.662   8.855  19.628  0.00  0.00    +0.000 A 
ATOM     15  C   UNL     1       2.350   8.311  18.515  0.00  0.00    +0.000 A 
ATOM     16  O   UNL     1       2.763   9.010  17.598  0.00  0.00    +0.000 OA
ATOM     17  H   UNL     1       1.614  10.940  19.283  0.00  0.00    +0.000 HD
ENDROOT
BRANCH   7  18
ATOM     18  N   UNL     1       3.505   2.140  21.889  0.00  0.00    +0.000 NA
ATOM     19  H   UNL     1       4.184   2.778  22.300  0.00  0.00    +0.000 HD
ATOM     20  H   UNL     1       4.020   1.574  21.214  0.00  0.00    +0.000 HD
ENDBRANCH   7  18
BRANCH   1  21
ATOM     21  C   UNL     1       3.009   6.303  17.382  0.00  0.00    +0.000 C 
BRANCH  21  27
ATOM     22  C   UNL     1       5.116   4.780  17.324  0.00  0.00    +0.000 A 
ATOM     23  C   UNL     1       6.520   4.687  17.345  0.00  0.00    +0.000 A 
ATOM     24  C   UNL     1       7.317   5.830  17.396  0.00  0.00    +0.000 A 
ATOM     25  C   UNL     1       6.720   7.086  17.415  0.00  0.00    +0.000 A 
ATOM     26  C   UNL     1       5.332   7.191  17.390  0.00  0.00    +0.000 A 
ATOM     27  C   UNL     1       4.504   6.048  17.333  0.00  0.00    +0.000 A 
BRANCH  22  29
ATOM     28  N   UNL     1       3.796   2.546  17.246  0.00  0.00    +0.000 NA
ATOM     29  C   UNL     1       4.378   3.550  17.256  0.00  0.00    +0.000 C 
ENDBRANCH  22  29
ENDBRANCH  21  27
ENDBRANCH   1  21
TORSDOF 4
ENDMDL
MODEL 7
REMARK VINA RESULT:      -6.4      1.266      2.023
REMARK  Name = 
REMARK  4 active torsions:
REMARK  status: ('A' for Active; 'I' for Inactive)
REMARK    1  A    between atoms: C_2  and  C_3
REMARK    2  A    between atoms: C_8  and  C_9
REMARK    3  A    between atoms: C_9  and  N_10
REMARK    4  A    between atoms: C_16  and  N_17
REMARK                            x       y       z     vdW  Elec       q    Type
REMARK                         _______ _______ _______ _____ _____    ______ ____
ROOT
ATOM      1  N   UNL     1       3.168   6.107  19.327  0.00  0.00    +0.000 N 
ATOM      2  C   UNL     1       3.939   6.551  18.227  0.00  0.00    +0.000 A 
ATOM      3  N   UNL     1       5.001   5.766  17.796  0.00  0.00    +0.000 N 
ATOM      4  C   UNL     1       6.232   5.613  18.559  0.00  0.00    +0.000 C 
ATOM      5  C   UNL     1       7.459   5.737  17.662  0.00  0.00    +0.000 C 
ATOM      6  C   UNL     1       7.381   4.805  16.454  0.00  0.00    +0.000 C 
ATOM      7  C   UNL     1       6.077   5.026  15.674  0.00  0.00    +0.000 C 
ATOM      8  C   UNL     1       4.862   4.902  16.616  0.00  0.00    +0.000 C 
ATOM      9  N   UNL     1       3.709   7.665  17.573  0.00  0.00    +0.000 NA
ATOM     10  C   UNL     1       2.652   8.437  18.054  0.00  0.00    +0.000 A 
ATOM     11  C   UNL     1       2.213   9.696  17.617  0.00  0.00    +0.000 A 
ATOM     12  C   UNL     1       1.158  10.055  18.446  0.00  0.00    +0.000 A 
ATOM     13  N   UNL     1       0.959   9.035  19.346  0.00  0.00    +0.000 N 
ATOM     14  C   UNL     1       1.887   8.058  19.112  0.00  0.00    +0.000 A 
ATOM     15  C   UNL     1       2.093   6.854  19.829  0.00  0.00    +0.000 A 
ATOM     16  O   UNL     1       1.417   6.550  20.805  0.00  0.00    +0.000 OA
ATOM     17  H   UNL     1       0.264   9.005  20.079  0.00  0.00    +0.000 HD
ENDROOT
BRANCH   7  18
ATOM     18  N   UNL     1       6.002   4.059  14.565  0.00  0.00    +0.000 NA
ATOM     19  H   UNL     1       6.793   4.180  13.936  0.00  0.00    +0.000 HD
ATOM     20  H   UNL     1       5.167   4.248  14.010  0.00  0.00    +0.000 HD
ENDBRANCH   7  18
BRANCH   1  21
ATOM     21  C   UNL     1       3.511   4.941  20.125  0.00  0.00    +0.000 C 
BRANCH  21  27
ATOM     22  C   UNL     1       2.665   3.140  18.451  0.00  0.00    +0.000 A 
ATOM     23  C   UNL     1       2.779   1.830  17.952  0.00  0.00    +0.000 A 
ATOM     24  C   UNL     1       3.749   0.955  18.441  0.00  0.00    +0.000 A 
ATOM     25  C   UNL     1       4.627   1.384  19.430  0.00  0.00    +0.000 A 
ATOM     26  C   UNL     1       4.527   2.679  19.929  0.00  0.00    +0.000 A 
ATOM     27  C   UNL     1       3.557   3.585  19.446  0.00  0.00    +0.000 A 
BRANCH  22  29
ATOM     28  N   UNL     1       0.819   4.617  17.377  0.00  0.00    +0.000 NA
ATOM     29  C   UNL     1       1.647   3.974  17.877  0.00  0.00    +0.000 C 
ENDBRANCH  22  29
ENDBRANCH  21  27
ENDBRANCH   1  21
TORSDOF 4
ENDMDL
MODEL 8
REMARK VINA RESULT:      -6.4      6.966      9.116
REMARK  Name = 
REMARK  4 active torsions:
REMARK  status: ('A' for Active; 'I' for Inactive)
REMARK    1  A    between atoms: C_2  and  C_3
REMARK    2  A    between atoms: C_8  and  C_9
REMARK    3  A    between atoms: C_9  and  N_10
REMARK    4  A    between atoms: C_16  and  N_17
REMARK                            x       y       z     vdW  Elec       q    Type
REMARK                         _______ _______ _______ _____ _____    ______ ____
ROOT
ATOM      1  N   UNL     1       1.271  13.285  20.576  0.00  0.00    +0.000 N 
ATOM      2  C   UNL     1       0.927  13.040  19.225  0.00  0.00    +0.000 A 
ATOM      3  N   UNL     1       0.005  12.041  18.943  0.00  0.00    +0.000 N 
ATOM      4  C   UNL     1       0.304  10.623  19.092  0.00  0.00    +0.000 C 
ATOM      5  C   UNL     1      -0.186   9.823  17.890  0.00  0.00    +0.000 C 
ATOM      6  C   UNL     1      -1.657  10.097  17.582  0.00  0.00    +0.000 C 
ATOM      7  C   UNL     1      -1.912  11.602  17.411  0.00  0.00    +0.000 C 
ATOM      8  C   UNL     1      -1.393  12.375  18.640  0.00  0.00    +0.000 C 
ATOM      9  N   UNL     1       1.420  13.710  18.210  0.00  0.00    +0.000 NA
ATOM     10  C   UNL     1       2.362  14.686  18.535  0.00  0.00    +0.000 A 
ATOM     11  C   UNL     1       3.110  15.506  17.676  0.00  0.00    +0.000 A 
ATOM     12  C   UNL     1       3.936  16.274  18.485  0.00  0.00    +0.000 A 
ATOM     13  N   UNL     1       3.681  15.937  19.794  0.00  0.00    +0.000 N 
ATOM     14  C   UNL     1       2.732  14.953  19.816  0.00  0.00    +0.000 A 
ATOM     15  C   UNL     1       2.206  14.265  20.937  0.00  0.00    +0.000 A 
ATOM     16  O   UNL     1       2.583  14.494  22.079  0.00  0.00    +0.000 OA
ATOM     17  H   UNL     1       4.128  16.324  20.613  0.00  0.00    +0.000 HD
ENDROOT
BRANCH   7  18
ATOM     18  N   UNL     1      -3.349  11.832  17.194  0.00  0.00    +0.000 NA
ATOM     19  H   UNL     1      -3.588  11.685  16.215  0.00  0.00    +0.000 HD
ATOM     20  H   UNL     1      -3.568  12.808  17.395  0.00  0.00    +0.000 HD
ENDBRANCH   7  18
BRANCH   1  21
ATOM     21  C   UNL     1       0.820  12.452  21.679  0.00  0.00    +0.000 C 
BRANCH  21  27
ATOM     22  C   UNL     1      -1.378  11.707  22.852  0.00  0.00    +0.000 A 
ATOM     23  C   UNL     1      -2.675  12.045  23.276  0.00  0.00    +0.000 A 
ATOM     24  C   UNL     1      -3.184  13.330  23.086  0.00  0.00    +0.000 A 
ATOM     25  C   UNL     1      -2.394  14.300  22.478  0.00  0.00    +0.000 A 
ATOM     26  C   UNL     1      -1.106  13.979  22.058  0.00  0.00    +0.000 A 
ATOM     27  C   UNL     1      -0.567  12.687  22.245  0.00  0.00    +0.000 A 
BRANCH  22  29
ATOM     28  N   UNL     1      -0.536   9.298  23.327  0.00  0.00    +0.000 NA
ATOM     29  C   UNL     1      -0.934  10.365  23.103  0.00  0.00    +0.000 C 
ENDBRANCH  22  29
ENDBRANCH  21  27
ENDBRANCH   1  21
TORSDOF 4
ENDMDL
MODEL 9
REMARK VINA RESULT:      -6.3      2.200      5.775
REMARK  Name = 
REMARK  4 active torsions:
REMARK  status: ('A' for Active; 'I' for Inactive)
REMARK    1  A    between atoms: C_2  and  C_3
REMARK    2  A    between atoms: C_8  and  C_9
REMARK    3  A    between atoms: C_9  and  N_10
REMARK    4  A    between atoms: C_16  and  N_17
REMARK                            x       y       z     vdW  Elec       q    Type
REMARK                         _______ _______ _______ _____ _____    ______ ____
ROOT
ATOM      1  N   UNL     1       4.965   5.466  17.264  0.00  0.00    +0.000 N 
ATOM      2  C   UNL     1       4.530   4.129  17.096  0.00  0.00    +0.000 A 
ATOM      3  N   UNL     1       3.739   3.557  18.083  0.00  0.00    +0.000 N 
ATOM      4  C   UNL     1       4.253   3.192  19.396  0.00  0.00    +0.000 C 
ATOM      5  C   UNL     1       3.769   1.809  19.817  0.00  0.00    +0.000 C 
ATOM      6  C   UNL     1       2.251   1.676  19.708  0.00  0.00    +0.000 C 
ATOM      7  C   UNL     1       1.767   2.048  18.299  0.00  0.00    +0.000 C 
ATOM      8  C   UNL     1       2.285   3.447  17.907  0.00  0.00    +0.000 C 
ATOM      9  N   UNL     1       4.822   3.390  16.051  0.00  0.00    +0.000 NA
ATOM     10  C   UNL     1       5.639   3.993  15.096  0.00  0.00    +0.000 A 
ATOM     11  C   UNL     1       6.175   3.442  13.923  0.00  0.00    +0.000 A 
ATOM     12  C   UNL     1       6.956   4.433  13.342  0.00  0.00    +0.000 A 
ATOM     13  N   UNL     1       6.881   5.553  14.137  0.00  0.00    +0.000 N 
ATOM     14  C   UNL     1       6.089   5.271  15.217  0.00  0.00    +0.000 A 
ATOM     15  C   UNL     1       5.780   6.105  16.319  0.00  0.00    +0.000 A 
ATOM     16  O   UNL     1       6.228   7.240  16.426  0.00  0.00    +0.000 OA
ATOM     17  H   UNL     1       7.344   6.436  13.978  0.00  0.00    +0.000 HD
ENDROOT
BRANCH   7  18
ATOM     18  N   UNL     1       0.297   1.984  18.255  0.00  0.00    +0.000 NA
ATOM     19  H   UNL     1      -0.062   2.588  17.519  0.00  0.00    +0.000 HD
ATOM     20  H   UNL     1      -0.083   2.347  19.130  0.00  0.00    +0.000 HD
ENDBRANCH   7  18
BRANCH   1  21
ATOM     21  C   UNL     1       4.748   6.229  18.481  0.00  0.00    +0.000 C 
BRANCH  21  27
ATOM     22  C   UNL     1       2.434   6.940  19.432  0.00  0.00    +0.000 A 
ATOM     23  C   UNL     1       1.335   7.814  19.362  0.00  0.00    +0.000 A 
ATOM     24  C   UNL     1       1.300   8.854  18.433  0.00  0.00    +0.000 A 
ATOM     25  C   UNL     1       2.372   9.041  17.568  0.00  0.00    +0.000 A 
ATOM     26  C   UNL     1       3.468   8.185  17.631  0.00  0.00    +0.000 A 
ATOM     27  C   UNL     1       3.529   7.128  18.566  0.00  0.00    +0.000 A 
BRANCH  22  29
ATOM     28  N   UNL     1       2.316   5.053  21.211  0.00  0.00    +0.000 NA
ATOM     29  C   UNL     1       2.389   5.908  20.429  0.00  0.00    +0.000 C 
ENDBRANCH  22  29
ENDBRANCH  21  27
ENDBRANCH   1  21
TORSDOF 4
ENDMDL
