MODEL 1
REMARK VINA RESULT:      -7.3      0.000      0.000
REMARK  Name = 
REMARK  4 active torsions:
REMARK  status: ('A' for Active; 'I' for Inactive)
REMARK    1  A    between atoms: C_1  and  C_2
REMARK    2  A    between atoms: C_2  and  O_3
REMARK    3  A    between atoms: O_3  and  C_4
REMARK    4  A    between atoms: C_13  and  C_15
REMARK                            x       y       z     vdW  Elec       q    Type
REMARK                         _______ _______ _______ _____ _____    ______ ____
ROOT
ATOM      1  C   UNL     1       5.344   5.537  16.541  0.00  0.00    +0.000 A 
ATOM      2  C   UNL     1       5.652   4.376  17.197  0.00  0.00    +0.000 A 
ATOM      3  C   UNL     1       4.947   4.165  18.349  0.00  0.00    +0.000 A 
ATOM      4  N   UNL     1       4.046   5.038  18.836  0.00  0.00    +0.000 NA
ATOM      5  C   UNL     1       3.830   6.168  18.144  0.00  0.00    +0.000 A 
ATOM      6  N   UNL     1       2.995   7.134  18.671  0.00  0.00    +0.000 N 
ATOM      7  C   UNL     1       2.243   6.804  19.889  0.00  0.00    +0.000 C 
ATOM      8  C   UNL     1       1.727   8.098  20.552  0.00  0.00    +0.000 C 
ATOM      9  N   UNL     1       1.038   8.970  19.589  0.00  0.00    +0.000 N 
ATOM     10  C   UNL     1      -0.027   9.745  20.044  0.00  0.00    +0.000 C 
ATOM     11  O   UNL     1      -0.363   9.725  21.224  0.00  0.00    +0.000 OA
ATOM     12  C   UNL     1       1.852   9.273  18.402  0.00  0.00    +0.000 C 
ATOM     13  C   UNL     1       2.286   7.977  17.705  0.00  0.00    +0.000 C 
ATOM     14  N   UNL     1       4.451   6.436  16.985  0.00  0.00    +0.000 NA
ENDROOT
BRANCH  10  15
ATOM     15  C   UNL     1      -0.757  10.545  19.081  0.00  0.00    +0.000 A 
ATOM     16  C   UNL     1      -1.652  10.101  18.118  0.00  0.00    +0.000 A 
ATOM     17  C   UNL     1      -2.152  11.227  17.430  0.00  0.00    +0.000 A 
ATOM     18 CL   UNL     1      -3.325  11.189  16.207  0.00  0.00    +0.000 Cl
ATOM     19  C   UNL     1      -1.520  12.334  17.940  0.00  0.00    +0.000 A 
ATOM     20  N   UNL     1      -0.611  11.900  18.868  0.00  0.00    +0.000 N 
ATOM     21  H   UNL     1       0.042  12.491  19.364  0.00  0.00    +0.000 HD
ENDBRANCH  10  15
BRANCH   1  22
ATOM     22  O   UNL     1       6.032   5.775  15.370  0.00  0.00    +0.000 OA
BRANCH  22  24
ATOM     23  C   UNL     1       6.283   4.099  13.707  0.00  0.00    +0.000 C 
ATOM     24  C   UNL     1       6.872   4.688  14.977  0.00  0.00    +0.000 C 
ENDBRANCH  22  24
ENDBRANCH   1  22
TORSDOF 3
ENDMDL
MODEL 2
REMARK VINA RESULT:      -7.1      3.166      8.037
REMARK  Name = 
REMARK  4 active torsions:
REMARK  status: ('A' for Active; 'I' for Inactive)
REMARK    1  A    between atoms: C_1  and  C_2
REMARK    2  A    between atoms: C_2  and  O_3
REMARK    3  A    between atoms: O_3  and  C_4
REMARK    4  A    between atoms: C_13  and  C_15
REMARK                            x       y       z     vdW  Elec       q    Type
REMARK                         _______ _______ _______ _____ _____    ______ ____
ROOT
ATOM      1  C   UNL     1       0.460  10.360  19.894  0.00  0.00    +0.000 A 
ATOM      2  C   UNL     1       0.021  10.500  21.182  0.00  0.00    +0.000 A 
ATOM      3  C   UNL     1       0.341   9.462  22.011  0.00  0.00    +0.000 A 
ATOM      4  N   UNL     1       0.998   8.362  21.602  0.00  0.00    +0.000 NA
ATOM      5  C   UNL     1       1.363   8.294  20.311  0.00  0.00    +0.000 A 
ATOM      6  N   UNL     1       1.942   7.134  19.833  0.00  0.00    +0.000 N 
ATOM      7  C   UNL     1       2.292   6.089  20.803  0.00  0.00    +0.000 C 
ATOM      8  C   UNL     1       2.509   4.748  20.071  0.00  0.00    +0.000 C 
ATOM      9  N   UNL     1       3.420   4.890  18.926  0.00  0.00    +0.000 N 
ATOM     10  C   UNL     1       4.250   3.818  18.604  0.00  0.00    +0.000 C 
ATOM     11  O   UNL     1       4.201   2.769  19.240  0.00  0.00    +0.000 OA
ATOM     12  C   UNL     1       3.003   5.943  17.987  0.00  0.00    +0.000 C 
ATOM     13  C   UNL     1       2.875   7.289  18.714  0.00  0.00    +0.000 C 
ATOM     14  N   UNL     1       1.123   9.285  19.439  0.00  0.00    +0.000 NA
ENDROOT
BRANCH  10  15
ATOM     15  C   UNL     1       5.202   3.984  17.525  0.00  0.00    +0.000 A 
ATOM     16  C   UNL     1       5.005   3.717  16.177  0.00  0.00    +0.000 A 
ATOM     17  C   UNL     1       6.187   4.061  15.484  0.00  0.00    +0.000 A 
ATOM     18 CL   UNL     1       6.402   3.971  13.806  0.00  0.00    +0.000 Cl
ATOM     19  C   UNL     1       7.103   4.478  16.418  0.00  0.00    +0.000 A 
ATOM     20  N   UNL     1       6.530   4.335  17.653  0.00  0.00    +0.000 N 
ATOM     21  H   UNL     1       6.993   4.509  18.534  0.00  0.00    +0.000 HD
ENDBRANCH  10  15
BRANCH   1  22
ATOM     22  O   UNL     1       0.161  11.396  19.033  0.00  0.00    +0.000 OA
BRANCH  22  24
ATOM     23  C   UNL     1      -1.760  10.689  17.833  0.00  0.00    +0.000 C 
ATOM     24  C   UNL     1      -1.241  11.635  18.901  0.00  0.00    +0.000 C 
ENDBRANCH  22  24
ENDBRANCH   1  22
TORSDOF 3
ENDMDL
MODEL 3
REMARK VINA RESULT:      -7.1      3.430      7.977
REMARK  Name = 
REMARK  4 active torsions:
REMARK  status: ('A' for Active; 'I' for Inactive)
REMARK    1  A    between atoms: C_1  and  C_2
REMARK    2  A    between atoms: C_2  and  O_3
REMARK    3  A    between atoms: O_3  and  C_4
REMARK    4  A    between atoms: C_13  and  C_15
REMARK                            x       y       z     vdW  Elec       q    Type
REMARK                         _______ _______ _______ _____ _____    ______ ____
ROOT
ATOM      1  C   UNL     1       0.589  10.550  20.083  0.00  0.00    +0.000 A 
ATOM      2  C   UNL     1      -0.044  10.587  21.296  0.00  0.00    +0.000 A 
ATOM      3  C   UNL     1       0.053   9.436  22.027  0.00  0.00    +0.000 A 
ATOM      4  N   UNL     1       0.682   8.330  21.587  0.00  0.00    +0.000 NA
ATOM      5  C   UNL     1       1.248   8.373  20.370  0.00  0.00    +0.000 A 
ATOM      6  N   UNL     1       1.805   7.224  19.844  0.00  0.00    +0.000 N 
ATOM      7  C   UNL     1       1.908   6.046  20.716  0.00  0.00    +0.000 C 
ATOM      8  C   UNL     1       2.137   4.782  19.862  0.00  0.00    +0.000 C 
ATOM      9  N   UNL     1       3.232   4.963  18.897  0.00  0.00    +0.000 N 
ATOM     10  C   UNL     1       4.017   3.858  18.574  0.00  0.00    +0.000 C 
ATOM     11  O   UNL     1       3.783   2.755  19.057  0.00  0.00    +0.000 OA
ATOM     12  C   UNL     1       3.059   6.151  18.046  0.00  0.00    +0.000 C 
ATOM     13  C   UNL     1       2.918   7.412  18.909  0.00  0.00    +0.000 C 
ATOM     14  N   UNL     1       1.231   9.474  19.604  0.00  0.00    +0.000 NA
ENDROOT
BRANCH  10  15
ATOM     15  C   UNL     1       5.144   4.051  17.683  0.00  0.00    +0.000 A 
ATOM     16  C   UNL     1       5.142   4.005  16.296  0.00  0.00    +0.000 A 
ATOM     17  C   UNL     1       6.449   4.288  15.844  0.00  0.00    +0.000 A 
ATOM     18 CL   UNL     1       6.922   4.409  14.222  0.00  0.00    +0.000 Cl
ATOM     19  C   UNL     1       7.241   4.449  16.955  0.00  0.00    +0.000 A 
ATOM     20  N   UNL     1       6.463   4.208  18.055  0.00  0.00    +0.000 N 
ATOM     21  H   UNL     1       6.793   4.195  19.011  0.00  0.00    +0.000 HD
ENDBRANCH  10  15
BRANCH   1  22
ATOM     22  O   UNL     1       0.517  11.701  19.326  0.00  0.00    +0.000 OA
BRANCH  22  24
ATOM     23  C   UNL     1       2.181  12.974  18.210  0.00  0.00    +0.000 C 
ATOM     24  C   UNL     1       1.599  12.603  19.563  0.00  0.00    +0.000 C 
ENDBRANCH  22  24
ENDBRANCH   1  22
TORSDOF 3
ENDMDL
MODEL 4
REMARK VINA RESULT:      -6.8      4.762      8.655
REMARK  Name = 
REMARK  4 active torsions:
REMARK  status: ('A' for Active; 'I' for Inactive)
REMARK    1  A    between atoms: C_1  and  C_2
REMARK    2  A    between atoms: C_2  and  O_3
REMARK    3  A    between atoms: O_3  and  C_4
REMARK    4  A    between atoms: C_13  and  C_15
REMARK                            x       y       z     vdW  Elec       q    Type
REMARK                         _______ _______ _______ _____ _____    ______ ____
ROOT
ATOM      1  C   UNL     1       1.545   4.785  20.036  0.00  0.00    +0.000 A 
ATOM      2  C   UNL     1       1.485   5.959  20.736  0.00  0.00    +0.000 A 
ATOM      3  C   UNL     1       2.326   6.937  20.285  0.00  0.00    +0.000 A 
ATOM      4  N   UNL     1       3.182   6.765  19.261  0.00  0.00    +0.000 NA
ATOM      5  C   UNL     1       3.196   5.569  18.652  0.00  0.00    +0.000 A 
ATOM      6  N   UNL     1       4.137   5.322  17.670  0.00  0.00    +0.000 N 
ATOM      7  C   UNL     1       4.968   6.444  17.216  0.00  0.00    +0.000 C 
ATOM      8  C   UNL     1       6.208   5.908  16.469  0.00  0.00    +0.000 C 
ATOM      9  N   UNL     1       5.843   4.922  15.441  0.00  0.00    +0.000 N 
ATOM     10  C   UNL     1       6.614   4.862  14.281  0.00  0.00    +0.000 C 
ATOM     11  O   UNL     1       7.591   5.590  14.134  0.00  0.00    +0.000 OA
ATOM     12  C   UNL     1       5.024   3.819  15.965  0.00  0.00    +0.000 C 
ATOM     13  C   UNL     1       3.753   4.365  16.630  0.00  0.00    +0.000 C 
ATOM     14  N   UNL     1       2.377   4.567  19.006  0.00  0.00    +0.000 NA
ENDROOT
BRANCH  10  15
ATOM     15  C   UNL     1       6.211   3.946  13.233  0.00  0.00    +0.000 A 
ATOM     16  C   UNL     1       7.001   3.010  12.579  0.00  0.00    +0.000 A 
ATOM     17  C   UNL     1       6.187   2.312  11.662  0.00  0.00    +0.000 A 
ATOM     18 CL   UNL     1       6.693   1.028  10.680  0.00  0.00    +0.000 Cl
ATOM     19  C   UNL     1       4.930   2.862  11.727  0.00  0.00    +0.000 A 
ATOM     20  N   UNL     1       4.982   3.909  12.607  0.00  0.00    +0.000 N 
ATOM     21  H   UNL     1       4.218   4.538  12.810  0.00  0.00    +0.000 HD
ENDBRANCH  10  15
BRANCH   1  22
ATOM     22  O   UNL     1       0.701   3.781  20.460  0.00  0.00    +0.000 OA
BRANCH  22  24
ATOM     23  C   UNL     1       2.068   2.522  21.937  0.00  0.00    +0.000 C 
ATOM     24  C   UNL     1       1.351   2.516  20.598  0.00  0.00    +0.000 C 
ENDBRANCH  22  24
ENDBRANCH   1  22
TORSDOF 3
ENDMDL
MODEL 5
REMARK VINA RESULT:      -6.7      4.587      8.499
REMARK  Name = 
REMARK  4 active torsions:
REMARK  status: ('A' for Active; 'I' for Inactive)
REMARK    1  A    between atoms: C_1  and  C_2
REMARK    2  A    between atoms: C_2  and  O_3
REMARK    3  A    between atoms: O_3  and  C_4
REMARK    4  A    between atoms: C_13  and  C_15
REMARK                            x       y       z     vdW  Elec       q    Type
REMARK                         _______ _______ _______ _____ _____    ______ ____
ROOT
ATOM      1  C   UNL     1       1.667   4.449  20.079  0.00  0.00    +0.000 A 
ATOM      2  C   UNL     1       1.624   5.587  20.838  0.00  0.00    +0.000 A 
ATOM      3  C   UNL     1       2.463   6.584  20.422  0.00  0.00    +0.000 A 
ATOM      4  N   UNL     1       3.300   6.459  19.377  0.00  0.00    +0.000 NA
ATOM      5  C   UNL     1       3.299   5.294  18.708  0.00  0.00    +0.000 A 
ATOM      6  N   UNL     1       4.223   5.093  17.701  0.00  0.00    +0.000 N 
ATOM      7  C   UNL     1       5.052   6.233  17.289  0.00  0.00    +0.000 C 
ATOM      8  C   UNL     1       6.277   5.729  16.496  0.00  0.00    +0.000 C 
ATOM      9  N   UNL     1       5.891   4.797  15.426  0.00  0.00    +0.000 N 
ATOM     10  C   UNL     1       6.642   4.792  14.253  0.00  0.00    +0.000 C 
ATOM     11  O   UNL     1       7.620   5.522  14.126  0.00  0.00    +0.000 OA
ATOM     12  C   UNL     1       5.075   3.673  15.909  0.00  0.00    +0.000 C 
ATOM     13  C   UNL     1       3.818   4.189  16.621  0.00  0.00    +0.000 C 
ATOM     14  N   UNL     1       2.481   4.279  19.026  0.00  0.00    +0.000 NA
ENDROOT
BRANCH  10  15
ATOM     15  C   UNL     1       6.218   3.930  13.168  0.00  0.00    +0.000 A 
ATOM     16  C   UNL     1       4.956   3.852  12.595  0.00  0.00    +0.000 A 
ATOM     17  C   UNL     1       5.006   2.908  11.547  0.00  0.00    +0.000 A 
ATOM     18 CL   UNL     1       3.722   2.520  10.513  0.00  0.00    +0.000 Cl
ATOM     19  C   UNL     1       6.276   2.384  11.528  0.00  0.00    +0.000 A 
ATOM     20  N   UNL     1       6.967   2.937  12.571  0.00  0.00    +0.000 N 
ATOM     21  H   UNL     1       7.911   2.693  12.840  0.00  0.00    +0.000 HD
ENDBRANCH  10  15
BRANCH   1  22
ATOM     22  O   UNL     1       0.825   3.428  20.467  0.00  0.00    +0.000 OA
BRANCH  22  24
ATOM     23  C   UNL     1       2.673   2.364  21.510  0.00  0.00    +0.000 C 
ATOM     24  C   UNL     1       1.227   2.795  21.684  0.00  0.00    +0.000 C 
ENDBRANCH  22  24
ENDBRANCH   1  22
TORSDOF 3
ENDMDL
MODEL 6
REMARK VINA RESULT:      -6.6      1.347      1.525
REMARK  Name = 
REMARK  4 active torsions:
REMARK  status: ('A' for Active; 'I' for Inactive)
REMARK    1  A    between atoms: C_1  and  C_2
REMARK    2  A    between atoms: C_2  and  O_3
REMARK    3  A    between atoms: O_3  and  C_4
REMARK    4  A    between atoms: C_13  and  C_15
REMARK                            x       y       z     vdW  Elec       q    Type
REMARK                         _______ _______ _______ _____ _____    ______ ____
ROOT
ATOM      1  C   UNL     1       4.784   5.098  16.588  0.00  0.00    +0.000 A 
ATOM      2  C   UNL     1       4.803   3.807  17.042  0.00  0.00    +0.000 A 
ATOM      3  C   UNL     1       4.007   3.572  18.128  0.00  0.00    +0.000 A 
ATOM      4  N   UNL     1       3.288   4.529  18.741  0.00  0.00    +0.000 NA
ATOM      5  C   UNL     1       3.354   5.776  18.247  0.00  0.00    +0.000 A 
ATOM      6  N   UNL     1       2.715   6.802  18.916  0.00  0.00    +0.000 N 
ATOM      7  C   UNL     1       1.845   6.451  20.046  0.00  0.00    +0.000 C 
ATOM      8  C   UNL     1       1.581   7.702  20.911  0.00  0.00    +0.000 C 
ATOM      9  N   UNL     1       1.146   8.847  20.098  0.00  0.00    +0.000 N 
ATOM     10  C   UNL     1       0.245   9.751  20.659  0.00  0.00    +0.000 C 
ATOM     11  O   UNL     1      -0.151   9.614  21.812  0.00  0.00    +0.000 OA
ATOM     12  C   UNL     1       2.069   9.154  18.994  0.00  0.00    +0.000 C 
ATOM     13  C   UNL     1       2.255   7.924  18.094  0.00  0.00    +0.000 C 
ATOM     14  N   UNL     1       4.079   6.086  17.162  0.00  0.00    +0.000 NA
ENDROOT
BRANCH  10  15
ATOM     15  C   UNL     1      -0.244  10.837  19.833  0.00  0.00    +0.000 A 
ATOM     16  C   UNL     1       0.098  12.181  19.915  0.00  0.00    +0.000 A 
ATOM     17  C   UNL     1      -0.588  12.871  18.893  0.00  0.00    +0.000 A 
ATOM     18 CL   UNL     1      -0.439  14.525  18.555  0.00  0.00    +0.000 Cl
ATOM     19  C   UNL     1      -1.377  11.958  18.238  0.00  0.00    +0.000 A 
ATOM     20  N   UNL     1      -1.234  10.755  18.876  0.00  0.00    +0.000 N 
ATOM     21  H   UNL     1      -1.742   9.911  18.650  0.00  0.00    +0.000 HD
ENDBRANCH  10  15
BRANCH   1  22
ATOM     22  O   UNL     1       5.569   5.367  15.486  0.00  0.00    +0.000 OA
BRANCH  22  24
ATOM     23  C   UNL     1       6.178   3.944  13.686  0.00  0.00    +0.000 C 
ATOM     24  C   UNL     1       6.445   4.292  15.140  0.00  0.00    +0.000 C 
ENDBRANCH  22  24
ENDBRANCH   1  22
TORSDOF 3
ENDMDL
MODEL 7
REMARK VINA RESULT:      -6.5      3.021      7.943
REMARK  Name = 
REMARK  4 active torsions:
REMARK  status: ('A' for Active; 'I' for Inactive)
REMARK    1  A    between atoms: C_1  and  C_2
REMARK    2  A    between atoms: C_2  and  O_3
REMARK    3  A    between atoms: O_3  and  C_4
REMARK    4  A    between atoms: C_13  and  C_15
REMARK                            x       y       z     vdW  Elec       q    Type
REMARK                         _______ _______ _______ _____ _____    ______ ____
ROOT
ATOM      1  C   UNL     1      -0.986  11.543  18.929  0.00  0.00    +0.000 A 
ATOM      2  C   UNL     1      -1.357  11.971  20.175  0.00  0.00    +0.000 A 
ATOM      3  C   UNL     1      -0.797  11.275  21.209  0.00  0.00    +0.000 A 
ATOM      4  N   UNL     1       0.024  10.224  21.036  0.00  0.00    +0.000 NA
ATOM      5  C   UNL     1       0.310   9.852  19.778  0.00  0.00    +0.000 A 
ATOM      6  N   UNL     1       1.061   8.712  19.565  0.00  0.00    +0.000 N 
ATOM      7  C   UNL     1       1.661   8.054  20.733  0.00  0.00    +0.000 C 
ATOM      8  C   UNL     1       2.073   6.613  20.366  0.00  0.00    +0.000 C 
ATOM      9  N   UNL     1       2.865   6.568  19.128  0.00  0.00    +0.000 N 
ATOM     10  C   UNL     1       3.856   5.595  19.012  0.00  0.00    +0.000 C 
ATOM     11  O   UNL     1       4.044   4.776  19.906  0.00  0.00    +0.000 OA
ATOM     12  C   UNL     1       2.200   7.231  17.996  0.00  0.00    +0.000 C 
ATOM     13  C   UNL     1       1.873   8.689  18.345  0.00  0.00    +0.000 C 
ATOM     14  N   UNL     1      -0.167  10.503  18.706  0.00  0.00    +0.000 NA
ENDROOT
BRANCH  10  15
ATOM     15  C   UNL     1       4.688   5.598  17.826  0.00  0.00    +0.000 A 
ATOM     16  C   UNL     1       4.647   4.705  16.763  0.00  0.00    +0.000 A 
ATOM     17  C   UNL     1       5.609   5.110  15.812  0.00  0.00    +0.000 A 
ATOM     18 CL   UNL     1       5.882   4.365  14.315  0.00  0.00    +0.000 Cl
ATOM     19  C   UNL     1       6.259   6.205  16.326  0.00  0.00    +0.000 A 
ATOM     20  N   UNL     1       5.761   6.430  17.581  0.00  0.00    +0.000 N 
ATOM     21  H   UNL     1       6.095   7.136  18.223  0.00  0.00    +0.000 HD
ENDBRANCH  10  15
BRANCH   1  22
ATOM     22  O   UNL     1      -1.526  12.231  17.864  0.00  0.00    +0.000 OA
BRANCH  22  24
ATOM     23  C   UNL     1      -3.708  11.433  17.376  0.00  0.00    +0.000 C 
ATOM     24  C   UNL     1      -2.249  11.394  16.958  0.00  0.00    +0.000 C 
ENDBRANCH  22  24
ENDBRANCH   1  22
TORSDOF 3
ENDMDL
MODEL 8
REMARK VINA RESULT:      -6.5      3.154      4.469
REMARK  Name = 
REMARK  4 active torsions:
REMARK  status: ('A' for Active; 'I' for Inactive)
REMARK    1  A    between atoms: C_1  and  C_2
REMARK    2  A    between atoms: C_2  and  O_3
REMARK    3  A    between atoms: O_3  and  C_4
REMARK    4  A    between atoms: C_13  and  C_15
REMARK                            x       y       z     vdW  Elec       q    Type
REMARK                         _______ _______ _______ _____ _____    ______ ____
ROOT
ATOM      1  C   UNL     1       3.241   5.605  19.494  0.00  0.00    +0.000 A 
ATOM      2  C   UNL     1       4.111   5.542  18.440  0.00  0.00    +0.000 A 
ATOM      3  C   UNL     1       4.094   6.635  17.619  0.00  0.00    +0.000 A 
ATOM      4  N   UNL     1       3.267   7.681  17.796  0.00  0.00    +0.000 NA
ATOM      5  C   UNL     1       2.424   7.645  18.839  0.00  0.00    +0.000 A 
ATOM      6  N   UNL     1       1.487   8.649  18.986  0.00  0.00    +0.000 N 
ATOM      7  C   UNL     1       1.573   9.808  18.088  0.00  0.00    +0.000 C 
ATOM      8  C   UNL     1       0.238  10.582  18.104  0.00  0.00    +0.000 C 
ATOM      9  N   UNL     1      -0.213  10.866  19.475  0.00  0.00    +0.000 N 
ATOM     10  C   UNL     1      -0.913  12.049  19.708  0.00  0.00    +0.000 C 
ATOM     11  O   UNL     1      -1.174  12.819  18.790  0.00  0.00    +0.000 OA
ATOM     12  C   UNL     1      -0.291   9.662  20.316  0.00  0.00    +0.000 C 
ATOM     13  C   UNL     1       1.067   8.949  20.358  0.00  0.00    +0.000 C 
ATOM     14  N   UNL     1       2.401   6.628  19.714  0.00  0.00    +0.000 NA
ENDROOT
BRANCH  10  15
ATOM     15  C   UNL     1      -1.291  12.367  21.070  0.00  0.00    +0.000 A 
ATOM     16  C   UNL     1      -2.561  12.309  21.630  0.00  0.00    +0.000 A 
ATOM     17  C   UNL     1      -2.457  12.668  22.992  0.00  0.00    +0.000 A 
ATOM     18 CL   UNL     1      -3.736  12.679  24.103  0.00  0.00    +0.000 Cl
ATOM     19  C   UNL     1      -1.144  12.991  23.232  0.00  0.00    +0.000 A 
ATOM     20  N   UNL     1      -0.471  12.899  22.044  0.00  0.00    +0.000 N 
ATOM     21  H   UNL     1       0.501  13.139  21.904  0.00  0.00    +0.000 HD
ENDBRANCH  10  15
BRANCH   1  22
ATOM     22  O   UNL     1       3.240   4.521  20.347  0.00  0.00    +0.000 OA
BRANCH  22  24
ATOM     23  C   UNL     1       1.209   3.306  20.524  0.00  0.00    +0.000 C 
ATOM     24  C   UNL     1       2.049   4.417  21.129  0.00  0.00    +0.000 C 
ENDBRANCH  22  24
ENDBRANCH   1  22
TORSDOF 3
ENDMDL
MODEL 9
REMARK VINA RESULT:      -6.5      3.228      8.095
REMARK  Name = 
REMARK  4 active torsions:
REMARK  status: ('A' for Active; 'I' for Inactive)
REMARK    1  A    between atoms: C_1  and  C_2
REMARK    2  A    between atoms: C_2  and  O_3
REMARK    3  A    between atoms: O_3  and  C_4
REMARK    4  A    between atoms: C_13  and  C_15
REMARK                            x       y       z     vdW  Elec       q    Type
REMARK                         _______ _______ _______ _____ _____    ______ ____
ROOT
ATOM      1  C   UNL     1      -0.026  10.912  19.718  0.00  0.00    +0.000 A 
ATOM      2  C   UNL     1      -0.446  11.128  21.003  0.00  0.00    +0.000 A 
ATOM      3  C   UNL     1      -0.072  10.163  21.896  0.00  0.00    +0.000 A 
ATOM      4  N   UNL     1       0.620   9.061  21.550  0.00  0.00    +0.000 NA
ATOM      5  C   UNL     1       0.963   8.916  20.261  0.00  0.00    +0.000 A 
ATOM      6  N   UNL     1       1.576   7.747  19.853  0.00  0.00    +0.000 N 
ATOM      7  C   UNL     1       1.983   6.786  20.886  0.00  0.00    +0.000 C 
ATOM      8  C   UNL     1       2.237   5.405  20.245  0.00  0.00    +0.000 C 
ATOM      9  N   UNL     1       3.120   5.499  19.074  0.00  0.00    +0.000 N 
ATOM     10  C   UNL     1       3.984   4.437  18.811  0.00  0.00    +0.000 C 
ATOM     11  O   UNL     1       3.986   3.436  19.519  0.00  0.00    +0.000 OA
ATOM     12  C   UNL     1       2.646   6.467  18.072  0.00  0.00    +0.000 C 
ATOM     13  C   UNL     1       2.481   7.855  18.705  0.00  0.00    +0.000 C 
ATOM     14  N   UNL     1       0.669   9.833  19.326  0.00  0.00    +0.000 NA
ENDROOT
BRANCH  10  15
ATOM     15  C   UNL     1       4.909   4.561  17.702  0.00  0.00    +0.000 A 
ATOM     16  C   UNL     1       4.862   3.896  16.484  0.00  0.00    +0.000 A 
ATOM     17  C   UNL     1       5.939   4.351  15.693  0.00  0.00    +0.000 A 
ATOM     18 CL   UNL     1       6.255   3.873  14.099  0.00  0.00    +0.000 Cl
ATOM     19  C   UNL     1       6.657   5.242  16.452  0.00  0.00    +0.000 A 
ATOM     20  N   UNL     1       6.082   5.286  17.693  0.00  0.00    +0.000 N 
ATOM     21  H   UNL     1       6.435   5.813  18.480  0.00  0.00    +0.000 HD
ENDBRANCH  10  15
BRANCH   1  22
ATOM     22  O   UNL     1      -0.379  11.873  18.794  0.00  0.00    +0.000 OA
BRANCH  22  24
ATOM     23  C   UNL     1      -0.065  14.224  18.717  0.00  0.00    +0.000 C 
ATOM     24  C   UNL     1      -0.824  13.094  19.389  0.00  0.00    +0.000 C 
ENDBRANCH  22  24
ENDBRANCH   1  22
TORSDOF 3
ENDMDL
