MODEL 1
REMARK VINA RESULT:      -9.1      0.000      0.000
REMARK  Name = 
REMARK  10 active torsions:
REMARK  status: ('A' for Active; 'I' for Inactive)
REMARK    1  A    between atoms: C_1  and  C_2
REMARK    2  A    between atoms: C_2  and  C_3
REMARK    3  A    between atoms: C_6  and  N_7
REMARK    4  A    between atoms: C_8  and  C_10
REMARK    5  A    between atoms: C_10  and  C_11
REMARK    6  A    between atoms: C_11  and  C_12
REMARK    7  A    between atoms: N_20  and  C_21
REMARK    8  A    between atoms: C_21  and  C_22
REMARK    9  A    between atoms: C_25  and  O_26
REMARK   10  A    between atoms: O_26  and  C_27
REMARK                            x       y       z     vdW  Elec       q    Type
REMARK                         _______ _______ _______ _____ _____    ______ ____
ROOT
ATOM      1  C   UNL     1       5.610   5.120  18.847  0.00  0.00    +0.000 A 
ATOM      2  N   UNL     1       5.585   3.852  19.219  0.00  0.00    +0.000 NA
ATOM      3  C   UNL     1       4.361   3.376  18.830  0.00  0.00    +0.000 A 
ATOM      4  C   UNL     1       3.782   2.110  18.973  0.00  0.00    +0.000 A 
ATOM      5  C   UNL     1       2.509   1.921  18.437  0.00  0.00    +0.000 A 
ATOM      6  C   UNL     1       1.887   2.985  17.791  0.00  0.00    +0.000 A 
ATOM      7  N   UNL     1       2.399   4.235  17.634  0.00  0.00    +0.000 NA
ATOM      8  C   UNL     1       3.625   4.362  18.185  0.00  0.00    +0.000 A 
ATOM      9  N   UNL     1       4.413   5.487  18.255  0.00  0.00    +0.000 N 
ENDROOT
BRANCH   1  10
ATOM     10  C   UNL     1       6.762   6.036  19.080  0.00  0.00    +0.000 C 
BRANCH  10  11
ATOM     11  C   UNL     1       7.341   6.604  17.791  0.00  0.00    +0.000 C 
BRANCH  11  13
ATOM     12  N   UNL     1       6.556   5.810  15.632  0.00  0.00    +0.000 N 
ATOM     13  C   UNL     1       7.320   5.512  16.747  0.00  0.00    +0.000 C 
ATOM     14  O   UNL     1       7.902   4.456  16.989  0.00  0.00    +0.000 OA
ATOM     15  H   UNL     1       6.143   6.735  15.572  0.00  0.00    +0.000 HD
BRANCH  12  19
ATOM     16  C   UNL     1       5.960   3.218  12.318  0.00  0.00    +0.000 A 
ATOM     17  C   UNL     1       4.934   3.423  13.238  0.00  0.00    +0.000 A 
ATOM     18  C   UNL     1       5.117   4.284  14.325  0.00  0.00    +0.000 A 
ATOM     19  C   UNL     1       6.324   4.955  14.522  0.00  0.00    +0.000 A 
ATOM     20  C   UNL     1       7.345   4.774  13.581  0.00  0.00    +0.000 A 
ATOM     21  C   UNL     1       7.160   3.916  12.486  0.00  0.00    +0.000 A 
BRANCH  16  23
ATOM     22  C   UNL     1       6.983   1.372  10.948  0.00  0.00    +0.000 C 
ATOM     23  C   UNL     1       5.774   2.268  11.161  0.00  0.00    +0.000 C 
ENDBRANCH  16  23
ENDBRANCH  12  19
ENDBRANCH  11  13
ENDBRANCH  10  11
ENDBRANCH   1  10
BRANCH   9  24
ATOM     24  C   UNL     1       4.080   6.790  17.703  0.00  0.00    +0.000 C 
BRANCH  24  25
ATOM     25  C   UNL     1       2.947   7.493  18.418  0.00  0.00    +0.000 A 
ATOM     26  C   UNL     1       2.589   7.127  19.726  0.00  0.00    +0.000 A 
ATOM     27  C   UNL     1       1.651   7.877  20.445  0.00  0.00    +0.000 A 
ATOM     28  C   UNL     1       1.081   9.016  19.880  0.00  0.00    +0.000 A 
ATOM     29  C   UNL     1       1.386   9.357  18.565  0.00  0.00    +0.000 A 
ATOM     30  C   UNL     1       2.311   8.599  17.838  0.00  0.00    +0.000 A 
BRANCH  28  31
ATOM     31  O   UNL     1       0.224   9.715  20.690  0.00  0.00    +0.000 OA
ATOM     32  C   UNL     1      -0.340   8.959  21.758  0.00  0.00    +0.000 C 
ENDBRANCH  28  31
ENDBRANCH  24  25
ENDBRANCH   9  24
TORSDOF 8
ENDMDL
MODEL 2
REMARK VINA RESULT:      -8.8      0.757      1.444
REMARK  Name = 
REMARK  10 active torsions:
REMARK  status: ('A' for Active; 'I' for Inactive)
REMARK    1  A    between atoms: C_1  and  C_2
REMARK    2  A    between atoms: C_2  and  C_3
REMARK    3  A    between atoms: C_6  and  N_7
REMARK    4  A    between atoms: C_8  and  C_10
REMARK    5  A    between atoms: C_10  and  C_11
REMARK    6  A    between atoms: C_11  and  C_12
REMARK    7  A    between atoms: N_20  and  C_21
REMARK    8  A    between atoms: C_21  and  C_22
REMARK    9  A    between atoms: C_25  and  O_26
REMARK   10  A    between atoms: O_26  and  C_27
REMARK                            x       y       z     vdW  Elec       q    Type
REMARK                         _______ _______ _______ _____ _____    ______ ____
ROOT
ATOM      1  C   UNL     1       5.248   5.493  18.665  0.00  0.00    +0.000 A 
ATOM      2  N   UNL     1       5.519   4.359  19.288  0.00  0.00    +0.000 NA
ATOM      3  C   UNL     1       4.375   3.609  19.206  0.00  0.00    +0.000 A 
ATOM      4  C   UNL     1       4.081   2.333  19.696  0.00  0.00    +0.000 A 
ATOM      5  C   UNL     1       2.814   1.815  19.421  0.00  0.00    +0.000 A 
ATOM      6  C   UNL     1       1.922   2.583  18.679  0.00  0.00    +0.000 A 
ATOM      7  N   UNL     1       2.154   3.830  18.190  0.00  0.00    +0.000 NA
ATOM      8  C   UNL     1       3.387   4.283  18.499  0.00  0.00    +0.000 A 
ATOM      9  N   UNL     1       3.940   5.509  18.210  0.00  0.00    +0.000 N 
ENDROOT
BRANCH   1  10
ATOM     10  C   UNL     1       6.215   6.617  18.517  0.00  0.00    +0.000 C 
BRANCH  10  11
ATOM     11  C   UNL     1       7.644   6.147  18.283  0.00  0.00    +0.000 C 
BRANCH  11  13
ATOM     12  N   UNL     1       6.935   5.636  16.015  0.00  0.00    +0.000 N 
ATOM     13  C   UNL     1       7.635   5.183  17.120  0.00  0.00    +0.000 C 
ATOM     14  O   UNL     1       8.169   4.084  17.262  0.00  0.00    +0.000 OA
ATOM     15  H   UNL     1       6.557   6.577  16.045  0.00  0.00    +0.000 HD
BRANCH  12  19
ATOM     16  C   UNL     1       6.209   3.513  12.406  0.00  0.00    +0.000 A 
ATOM     17  C   UNL     1       7.290   4.389  12.496  0.00  0.00    +0.000 A 
ATOM     18  C   UNL     1       7.544   5.082  13.685  0.00  0.00    +0.000 A 
ATOM     19  C   UNL     1       6.727   4.923  14.804  0.00  0.00    +0.000 A 
ATOM     20  C   UNL     1       5.660   4.020  14.725  0.00  0.00    +0.000 A 
ATOM     21  C   UNL     1       5.408   3.319  13.536  0.00  0.00    +0.000 A 
BRANCH  16  23
ATOM     22  C   UNL     1       6.417   1.351  11.136  0.00  0.00    +0.000 C 
ATOM     23  C   UNL     1       5.918   2.787  11.117  0.00  0.00    +0.000 C 
ENDBRANCH  16  23
ENDBRANCH  12  19
ENDBRANCH  11  13
ENDBRANCH  10  11
ENDBRANCH   1  10
BRANCH   9  24
ATOM     24  C   UNL     1       3.292   6.575  17.464  0.00  0.00    +0.000 C 
BRANCH  24  25
ATOM     25  C   UNL     1       2.569   7.585  18.329  0.00  0.00    +0.000 A 
ATOM     26  C   UNL     1       2.040   8.759  17.768  0.00  0.00    +0.000 A 
ATOM     27  C   UNL     1       1.237   9.614  18.531  0.00  0.00    +0.000 A 
ATOM     28  C   UNL     1       0.928   9.296  19.851  0.00  0.00    +0.000 A 
ATOM     29  C   UNL     1       1.491   8.163  20.435  0.00  0.00    +0.000 A 
ATOM     30  C   UNL     1       2.308   7.315  19.679  0.00  0.00    +0.000 A 
BRANCH  28  31
ATOM     31  O   UNL     1       0.083  10.165  20.490  0.00  0.00    +0.000 OA
ATOM     32  C   UNL     1      -0.723  10.961  19.626  0.00  0.00    +0.000 C 
ENDBRANCH  28  31
ENDBRANCH  24  25
ENDBRANCH   9  24
TORSDOF 8
ENDMDL
MODEL 3
REMARK VINA RESULT:      -8.7      0.744      1.149
REMARK  Name = 
REMARK  10 active torsions:
REMARK  status: ('A' for Active; 'I' for Inactive)
REMARK    1  A    between atoms: C_1  and  C_2
REMARK    2  A    between atoms: C_2  and  C_3
REMARK    3  A    between atoms: C_6  and  N_7
REMARK    4  A    between atoms: C_8  and  C_10
REMARK    5  A    between atoms: C_10  and  C_11
REMARK    6  A    between atoms: C_11  and  C_12
REMARK    7  A    between atoms: N_20  and  C_21
REMARK    8  A    between atoms: C_21  and  C_22
REMARK    9  A    between atoms: C_25  and  O_26
REMARK   10  A    between atoms: O_26  and  C_27
REMARK                            x       y       z     vdW  Elec       q    Type
REMARK                         _______ _______ _______ _____ _____    ______ ____
ROOT
ATOM      1  C   UNL     1       5.178   5.531  18.610  0.00  0.00    +0.000 A 
ATOM      2  N   UNL     1       5.505   4.420  19.248  0.00  0.00    +0.000 NA
ATOM      3  C   UNL     1       4.366   3.660  19.275  0.00  0.00    +0.000 A 
ATOM      4  C   UNL     1       4.120   2.399  19.827  0.00  0.00    +0.000 A 
ATOM      5  C   UNL     1       2.842   1.863  19.662  0.00  0.00    +0.000 A 
ATOM      6  C   UNL     1       1.891   2.599  18.962  0.00  0.00    +0.000 A 
ATOM      7  N   UNL     1       2.075   3.830  18.415  0.00  0.00    +0.000 NA
ATOM      8  C   UNL     1       3.323   4.303  18.619  0.00  0.00    +0.000 A 
ATOM      9  N   UNL     1       3.841   5.522  18.251  0.00  0.00    +0.000 N 
ENDROOT
BRANCH   1  10
ATOM     10  C   UNL     1       6.121   6.656  18.355  0.00  0.00    +0.000 C 
BRANCH  10  11
ATOM     11  C   UNL     1       7.565   6.199  18.194  0.00  0.00    +0.000 C 
BRANCH  11  13
ATOM     12  N   UNL     1       6.976   5.667  15.897  0.00  0.00    +0.000 N 
ATOM     13  C   UNL     1       7.622   5.228  17.038  0.00  0.00    +0.000 C 
ATOM     14  O   UNL     1       8.157   4.135  17.215  0.00  0.00    +0.000 OA
ATOM     15  H   UNL     1       6.589   6.606  15.900  0.00  0.00    +0.000 HD
BRANCH  12  19
ATOM     16  C   UNL     1       6.658   3.509  12.250  0.00  0.00    +0.000 A 
ATOM     17  C   UNL     1       5.816   3.204  13.318  0.00  0.00    +0.000 A 
ATOM     18  C   UNL     1       5.905   3.918  14.518  0.00  0.00    +0.000 A 
ATOM     19  C   UNL     1       6.835   4.945  14.682  0.00  0.00    +0.000 A 
ATOM     20  C   UNL     1       7.660   5.273  13.599  0.00  0.00    +0.000 A 
ATOM     21  C   UNL     1       7.567   4.562  12.393  0.00  0.00    +0.000 A 
BRANCH  16  23
ATOM     22  C   UNL     1       6.107   1.295  11.188  0.00  0.00    +0.000 C 
ATOM     23  C   UNL     1       6.582   2.722  10.966  0.00  0.00    +0.000 C 
ENDBRANCH  16  23
ENDBRANCH  12  19
ENDBRANCH  11  13
ENDBRANCH  10  11
ENDBRANCH   1  10
BRANCH   9  24
ATOM     24  C   UNL     1       3.131   6.557  17.518  0.00  0.00    +0.000 C 
BRANCH  24  25
ATOM     25  C   UNL     1       2.474   7.598  18.400  0.00  0.00    +0.000 A 
ATOM     26  C   UNL     1       2.020   8.812  17.857  0.00  0.00    +0.000 A 
ATOM     27  C   UNL     1       1.274   9.705  18.634  0.00  0.00    +0.000 A 
ATOM     28  C   UNL     1       0.947   9.387  19.951  0.00  0.00    +0.000 A 
ATOM     29  C   UNL     1       1.438   8.213  20.516  0.00  0.00    +0.000 A 
ATOM     30  C   UNL     1       2.199   7.326  19.746  0.00  0.00    +0.000 A 
BRANCH  28  31
ATOM     31  O   UNL     1       0.160  10.299  20.604  0.00  0.00    +0.000 OA
ATOM     32  C   UNL     1      -0.074  10.011  21.980  0.00  0.00    +0.000 C 
ENDBRANCH  28  31
ENDBRANCH  24  25
ENDBRANCH   9  24
TORSDOF 8
ENDMDL
MODEL 4
REMARK VINA RESULT:      -8.6      0.926      1.084
REMARK  Name = 
REMARK  10 active torsions:
REMARK  status: ('A' for Active; 'I' for Inactive)
REMARK    1  A    between atoms: C_1  and  C_2
REMARK    2  A    between atoms: C_2  and  C_3
REMARK    3  A    between atoms: C_6  and  N_7
REMARK    4  A    between atoms: C_8  and  C_10
REMARK    5  A    between atoms: C_10  and  C_11
REMARK    6  A    between atoms: C_11  and  C_12
REMARK    7  A    between atoms: N_20  and  C_21
REMARK    8  A    between atoms: C_21  and  C_22
REMARK    9  A    between atoms: C_25  and  O_26
REMARK   10  A    between atoms: O_26  and  C_27
REMARK                            x       y       z     vdW  Elec       q    Type
REMARK                         _______ _______ _______ _____ _____    ______ ____
ROOT
ATOM      1  C   UNL     1       5.297   5.044  18.951  0.00  0.00    +0.000 A 
ATOM      2  N   UNL     1       5.266   3.803  19.405  0.00  0.00    +0.000 NA
ATOM      3  C   UNL     1       4.007   3.340  19.129  0.00  0.00    +0.000 A 
ATOM      4  C   UNL     1       3.409   2.103  19.391  0.00  0.00    +0.000 A 
ATOM      5  C   UNL     1       2.097   1.918  18.953  0.00  0.00    +0.000 A 
ATOM      6  C   UNL     1       1.460   2.957  18.282  0.00  0.00    +0.000 A 
ATOM      7  N   UNL     1       1.991   4.179  18.011  0.00  0.00    +0.000 NA
ATOM      8  C   UNL     1       3.254   4.305  18.471  0.00  0.00    +0.000 A 
ATOM      9  N   UNL     1       4.073   5.409  18.417  0.00  0.00    +0.000 N 
ENDROOT
BRANCH   1  10
ATOM     10  C   UNL     1       6.484   5.940  19.048  0.00  0.00    +0.000 C 
BRANCH  10  11
ATOM     11  C   UNL     1       7.565   5.610  18.026  0.00  0.00    +0.000 C 
BRANCH  11  13
ATOM     12  N   UNL     1       6.844   4.385  16.055  0.00  0.00    +0.000 N 
ATOM     13  C   UNL     1       6.932   5.629  16.654  0.00  0.00    +0.000 C 
ATOM     14  O   UNL     1       6.621   6.713  16.165  0.00  0.00    +0.000 OA
ATOM     15  H   UNL     1       7.134   3.575  16.594  0.00  0.00    +0.000 HD
BRANCH  12  19
ATOM     16  C   UNL     1       5.414   3.521  12.147  0.00  0.00    +0.000 A 
ATOM     17  C   UNL     1       4.533   3.536  13.226  0.00  0.00    +0.000 A 
ATOM     18  C   UNL     1       4.992   3.832  14.514  0.00  0.00    +0.000 A 
ATOM     19  C   UNL     1       6.337   4.114  14.756  0.00  0.00    +0.000 A 
ATOM     20  C   UNL     1       7.218   4.130  13.668  0.00  0.00    +0.000 A 
ATOM     21  C   UNL     1       6.757   3.841  12.374  0.00  0.00    +0.000 A 
BRANCH  16  23
ATOM     22  C   UNL     1       3.480   3.590  10.539  0.00  0.00    +0.000 C 
ATOM     23  C   UNL     1       4.925   3.175  10.763  0.00  0.00    +0.000 C 
ENDBRANCH  16  23
ENDBRANCH  12  19
ENDBRANCH  11  13
ENDBRANCH  10  11
ENDBRANCH   1  10
BRANCH   9  24
ATOM     24  C   UNL     1       3.736   6.683  17.805  0.00  0.00    +0.000 C 
BRANCH  24  25
ATOM     25  C   UNL     1       2.685   7.472  18.557  0.00  0.00    +0.000 A 
ATOM     26  C   UNL     1       2.372   7.157  19.890  0.00  0.00    +0.000 A 
ATOM     27  C   UNL     1       1.520   7.980  20.635  0.00  0.00    +0.000 A 
ATOM     28  C   UNL     1       0.993   9.140  20.072  0.00  0.00    +0.000 A 
ATOM     29  C   UNL     1       1.252   9.432  18.735  0.00  0.00    +0.000 A 
ATOM     30  C   UNL     1       2.091   8.602  17.982  0.00  0.00    +0.000 A 
BRANCH  28  31
ATOM     31  O   UNL     1       0.222   9.908  20.904  0.00  0.00    +0.000 OA
ATOM     32  C   UNL     1       0.319   9.574  22.286  0.00  0.00    +0.000 C 
ENDBRANCH  28  31
ENDBRANCH  24  25
ENDBRANCH   9  24
TORSDOF 8
ENDMDL
MODEL 5
REMARK VINA RESULT:      -8.5      3.374      6.000
REMARK  Name = 
REMARK  10 active torsions:
REMARK  status: ('A' for Active; 'I' for Inactive)
REMARK    1  A    between atoms: C_1  and  C_2
REMARK    2  A    between atoms: C_2  and  C_3
REMARK    3  A    between atoms: C_6  and  N_7
REMARK    4  A    between atoms: C_8  and  C_10
REMARK    5  A    between atoms: C_10  and  C_11
REMARK    6  A    between atoms: C_11  and  C_12
REMARK    7  A    between atoms: N_20  and  C_21
REMARK    8  A    between atoms: C_21  and  C_22
REMARK    9  A    between atoms: C_25  and  O_26
REMARK   10  A    between atoms: O_26  and  C_27
REMARK                            x       y       z     vdW  Elec       q    Type
REMARK                         _______ _______ _______ _____ _____    ______ ____
ROOT
ATOM      1  C   UNL     1       5.679   5.098  18.944  0.00  0.00    +0.000 A 
ATOM      2  N   UNL     1       5.689   3.850  19.379  0.00  0.00    +0.000 NA
ATOM      3  C   UNL     1       4.528   3.288  18.915  0.00  0.00    +0.000 A 
ATOM      4  C   UNL     1       4.007   2.000  19.075  0.00  0.00    +0.000 A 
ATOM      5  C   UNL     1       2.795   1.715  18.446  0.00  0.00    +0.000 A 
ATOM      6  C   UNL     1       2.177   2.711  17.696  0.00  0.00    +0.000 A 
ATOM      7  N   UNL     1       2.635   3.978  17.517  0.00  0.00    +0.000 NA
ATOM      8  C   UNL     1       3.801   4.200  18.160  0.00  0.00    +0.000 A 
ATOM      9  N   UNL     1       4.520   5.370  18.237  0.00  0.00    +0.000 N 
ENDROOT
BRANCH   1  10
ATOM     10  C   UNL     1       6.758   6.088  19.223  0.00  0.00    +0.000 C 
BRANCH  10  11
ATOM     11  C   UNL     1       7.639   6.367  18.013  0.00  0.00    +0.000 C 
BRANCH  11  13
ATOM     12  N   UNL     1       8.742   8.381  18.809  0.00  0.00    +0.000 N 
ATOM     13  C   UNL     1       7.829   7.862  17.907  0.00  0.00    +0.000 C 
ATOM     14  O   UNL     1       7.135   8.488  17.109  0.00  0.00    +0.000 OA
ATOM     15  H   UNL     1       9.249   7.731  19.401  0.00  0.00    +0.000 HD
BRANCH  12  19
ATOM     16  C   UNL     1       9.704  12.504  19.181  0.00  0.00    +0.000 A 
ATOM     17  C   UNL     1       9.493  11.730  20.320  0.00  0.00    +0.000 A 
ATOM     18  C   UNL     1       9.189  10.369  20.208  0.00  0.00    +0.000 A 
ATOM     19  C   UNL     1       9.083   9.751  18.961  0.00  0.00    +0.000 A 
ATOM     20  C   UNL     1       9.324  10.521  17.817  0.00  0.00    +0.000 A 
ATOM     21  C   UNL     1       9.637  11.885  17.928  0.00  0.00    +0.000 A 
BRANCH  16  23
ATOM     22  C   UNL     1       8.797  14.779  19.759  0.00  0.00    +0.000 C 
ATOM     23  C   UNL     1      10.004  13.977  19.300  0.00  0.00    +0.000 C 
ENDBRANCH  16  23
ENDBRANCH  12  19
ENDBRANCH  11  13
ENDBRANCH  10  11
ENDBRANCH   1  10
BRANCH   9  24
ATOM     24  C   UNL     1       4.169   6.624  17.592  0.00  0.00    +0.000 C 
BRANCH  24  25
ATOM     25  C   UNL     1       3.045   7.376  18.273  0.00  0.00    +0.000 A 
ATOM     26  C   UNL     1       2.641   7.034  19.574  0.00  0.00    +0.000 A 
ATOM     27  C   UNL     1       1.715   7.825  20.263  0.00  0.00    +0.000 A 
ATOM     28  C   UNL     1       1.202   8.980  19.677  0.00  0.00    +0.000 A 
ATOM     29  C   UNL     1       1.553   9.298  18.367  0.00  0.00    +0.000 A 
ATOM     30  C   UNL     1       2.467   8.500  17.669  0.00  0.00    +0.000 A 
BRANCH  28  31
ATOM     31  O   UNL     1       0.352   9.717  20.459  0.00  0.00    +0.000 OA
ATOM     32  C   UNL     1      -0.184  10.878  19.831  0.00  0.00    +0.000 C 
ENDBRANCH  28  31
ENDBRANCH  24  25
ENDBRANCH   9  24
TORSDOF 8
ENDMDL
MODEL 6
REMARK VINA RESULT:      -8.5      2.301      8.930
REMARK  Name = 
REMARK  10 active torsions:
REMARK  status: ('A' for Active; 'I' for Inactive)
REMARK    1  A    between atoms: C_1  and  C_2
REMARK    2  A    between atoms: C_2  and  C_3
REMARK    3  A    between atoms: C_6  and  N_7
REMARK    4  A    between atoms: C_8  and  C_10
REMARK    5  A    between atoms: C_10  and  C_11
REMARK    6  A    between atoms: C_11  and  C_12
REMARK    7  A    between atoms: N_20  and  C_21
REMARK    8  A    between atoms: C_21  and  C_22
REMARK    9  A    between atoms: C_25  and  O_26
REMARK   10  A    between atoms: O_26  and  C_27
REMARK                            x       y       z     vdW  Elec       q    Type
REMARK                         _______ _______ _______ _____ _____    ______ ____
ROOT
ATOM      1  C   UNL     1       3.403   6.401  18.674  0.00  0.00    +0.000 A 
ATOM      2  N   UNL     1       2.312   5.965  19.280  0.00  0.00    +0.000 NA
ATOM      3  C   UNL     1       2.626   4.718  19.753  0.00  0.00    +0.000 A 
ATOM      4  C   UNL     1       1.858   3.788  20.461  0.00  0.00    +0.000 A 
ATOM      5  C   UNL     1       2.478   2.595  20.836  0.00  0.00    +0.000 A 
ATOM      6  C   UNL     1       3.812   2.396  20.495  0.00  0.00    +0.000 A 
ATOM      7  N   UNL     1       4.599   3.261  19.801  0.00  0.00    +0.000 NA
ATOM      8  C   UNL     1       3.942   4.388  19.453  0.00  0.00    +0.000 A 
ATOM      9  N   UNL     1       4.408   5.450  18.712  0.00  0.00    +0.000 N 
ENDROOT
BRANCH   1  10
ATOM     10  C   UNL     1       3.511   7.727  18.001  0.00  0.00    +0.000 C 
BRANCH  10  11
ATOM     11  C   UNL     1       2.181   8.228  17.454  0.00  0.00    +0.000 C 
BRANCH  11  13
ATOM     12  N   UNL     1       0.822   8.937  19.340  0.00  0.00    +0.000 N 
ATOM     13  C   UNL     1       1.698   9.345  18.349  0.00  0.00    +0.000 C 
ATOM     14  O   UNL     1       2.050  10.495  18.096  0.00  0.00    +0.000 OA
ATOM     15  H   UNL     1       0.635   7.943  19.431  0.00  0.00    +0.000 HD
BRANCH  12  19
ATOM     16  C   UNL     1      -1.012  11.438  22.246  0.00  0.00    +0.000 A 
ATOM     17  C   UNL     1      -1.182  11.703  20.889  0.00  0.00    +0.000 A 
ATOM     18  C   UNL     1      -0.593  10.877  19.925  0.00  0.00    +0.000 A 
ATOM     19  C   UNL     1       0.181   9.776  20.290  0.00  0.00    +0.000 A 
ATOM     20  C   UNL     1       0.328   9.491  21.653  0.00  0.00    +0.000 A 
ATOM     21  C   UNL     1      -0.269  10.313  22.621  0.00  0.00    +0.000 A 
BRANCH  16  23
ATOM     22  C   UNL     1      -1.135  13.777  23.164  0.00  0.00    +0.000 C 
ATOM     23  C   UNL     1      -1.623  12.343  23.286  0.00  0.00    +0.000 C 
ENDBRANCH  16  23
ENDBRANCH  12  19
ENDBRANCH  11  13
ENDBRANCH  10  11
ENDBRANCH   1  10
BRANCH   9  24
ATOM     24  C   UNL     1       5.750   5.580  18.172  0.00  0.00    +0.000 C 
BRANCH  24  25
ATOM     25  C   UNL     1       5.875   5.169  16.720  0.00  0.00    +0.000 A 
ATOM     26  C   UNL     1       7.047   5.447  15.996  0.00  0.00    +0.000 A 
ATOM     27  C   UNL     1       7.227   4.931  14.708  0.00  0.00    +0.000 A 
ATOM     28  C   UNL     1       6.257   4.111  14.137  0.00  0.00    +0.000 A 
ATOM     29  C   UNL     1       5.068   3.874  14.823  0.00  0.00    +0.000 A 
ATOM     30  C   UNL     1       4.877   4.402  16.105  0.00  0.00    +0.000 A 
BRANCH  28  31
ATOM     31  O   UNL     1       6.558   3.607  12.899  0.00  0.00    +0.000 OA
ATOM     32  C   UNL     1       5.429   3.242  12.110  0.00  0.00    +0.000 C 
ENDBRANCH  28  31
ENDBRANCH  24  25
ENDBRANCH   9  24
TORSDOF 8
ENDMDL
MODEL 7
REMARK VINA RESULT:      -8.5      2.453      8.824
REMARK  Name = 
REMARK  10 active torsions:
REMARK  status: ('A' for Active; 'I' for Inactive)
REMARK    1  A    between atoms: C_1  and  C_2
REMARK    2  A    between atoms: C_2  and  C_3
REMARK    3  A    between atoms: C_6  and  N_7
REMARK    4  A    between atoms: C_8  and  C_10
REMARK    5  A    between atoms: C_10  and  C_11
REMARK    6  A    between atoms: C_11  and  C_12
REMARK    7  A    between atoms: N_20  and  C_21
REMARK    8  A    between atoms: C_21  and  C_22
REMARK    9  A    between atoms: C_25  and  O_26
REMARK   10  A    between atoms: O_26  and  C_27
REMARK                            x       y       z     vdW  Elec       q    Type
REMARK                         _______ _______ _______ _____ _____    ______ ____
ROOT
ATOM      1  C   UNL     1       3.069   6.364  18.901  0.00  0.00    +0.000 A 
ATOM      2  N   UNL     1       1.832   6.056  19.251  0.00  0.00    +0.000 NA
ATOM      3  C   UNL     1       1.915   4.834  19.866  0.00  0.00    +0.000 A 
ATOM      4  C   UNL     1       0.923   4.022  20.425  0.00  0.00    +0.000 A 
ATOM      5  C   UNL     1       1.331   2.825  21.016  0.00  0.00    +0.000 A 
ATOM      6  C   UNL     1       2.685   2.507  21.023  0.00  0.00    +0.000 A 
ATOM      7  N   UNL     1       3.685   3.254  20.486  0.00  0.00    +0.000 NA
ATOM      8  C   UNL     1       3.231   4.391  19.916  0.00  0.00    +0.000 A 
ATOM      9  N   UNL     1       3.949   5.351  19.243  0.00  0.00    +0.000 N 
ENDROOT
BRANCH   1  10
ATOM     10  C   UNL     1       3.448   7.617  18.189  0.00  0.00    +0.000 C 
BRANCH  10  11
ATOM     11  C   UNL     1       2.286   8.250  17.435  0.00  0.00    +0.000 C 
BRANCH  11  13
ATOM     12  N   UNL     1       0.768   9.073  19.145  0.00  0.00    +0.000 N 
ATOM     13  C   UNL     1       1.773   9.410  18.255  0.00  0.00    +0.000 C 
ATOM     14  O   UNL     1       2.219  10.533  18.029  0.00  0.00    +0.000 OA
ATOM     15  H   UNL     1       0.513   8.094  19.227  0.00  0.00    +0.000 HD
BRANCH  12  19
ATOM     16  C   UNL     1      -1.216  11.759  21.774  0.00  0.00    +0.000 A 
ATOM     17  C   UNL     1      -1.514  11.765  20.413  0.00  0.00    +0.000 A 
ATOM     18  C   UNL     1      -0.875  10.876  19.542  0.00  0.00    +0.000 A 
ATOM     19  C   UNL     1       0.075   9.966  20.005  0.00  0.00    +0.000 A 
ATOM     20  C   UNL     1       0.353   9.937  21.377  0.00  0.00    +0.000 A 
ATOM     21  C   UNL     1      -0.292  10.824  22.253  0.00  0.00    +0.000 A 
BRANCH  16  23
ATOM     22  C   UNL     1      -0.949  13.854  23.141  0.00  0.00    +0.000 C 
ATOM     23  C   UNL     1      -1.883  12.735  22.710  0.00  0.00    +0.000 C 
ENDBRANCH  16  23
ENDBRANCH  12  19
ENDBRANCH  11  13
ENDBRANCH  10  11
ENDBRANCH   1  10
BRANCH   9  24
ATOM     24  C   UNL     1       5.388   5.343  19.037  0.00  0.00    +0.000 C 
BRANCH  24  25
ATOM     25  C   UNL     1       5.812   4.902  17.653  0.00  0.00    +0.000 A 
ATOM     26  C   UNL     1       4.945   4.145  16.846  0.00  0.00    +0.000 A 
ATOM     27  C   UNL     1       5.270   3.872  15.513  0.00  0.00    +0.000 A 
ATOM     28  C   UNL     1       6.446   4.372  14.959  0.00  0.00    +0.000 A 
ATOM     29  C   UNL     1       7.339   5.076  15.764  0.00  0.00    +0.000 A 
ATOM     30  C   UNL     1       7.024   5.337  17.103  0.00  0.00    +0.000 A 
BRANCH  28  31
ATOM     31  O   UNL     1       6.639   4.102  13.630  0.00  0.00    +0.000 OA
ATOM     32  C   UNL     1       5.480   3.649  12.936  0.00  0.00    +0.000 C 
ENDBRANCH  28  31
ENDBRANCH  24  25
ENDBRANCH   9  24
TORSDOF 8
ENDMDL
MODEL 8
REMARK VINA RESULT:      -8.5      2.537      9.088
REMARK  Name = 
REMARK  10 active torsions:
REMARK  status: ('A' for Active; 'I' for Inactive)
REMARK    1  A    between atoms: C_1  and  C_2
REMARK    2  A    between atoms: C_2  and  C_3
REMARK    3  A    between atoms: C_6  and  N_7
REMARK    4  A    between atoms: C_8  and  C_10
REMARK    5  A    between atoms: C_10  and  C_11
REMARK    6  A    between atoms: C_11  and  C_12
REMARK    7  A    between atoms: N_20  and  C_21
REMARK    8  A    between atoms: C_21  and  C_22
REMARK    9  A    between atoms: C_25  and  O_26
REMARK   10  A    between atoms: O_26  and  C_27
REMARK                            x       y       z     vdW  Elec       q    Type
REMARK                         _______ _______ _______ _____ _____    ______ ____
ROOT
ATOM      1  C   UNL     1       2.892   6.550  19.035  0.00  0.00    +0.000 A 
ATOM      2  N   UNL     1       1.701   6.122  19.416  0.00  0.00    +0.000 NA
ATOM      3  C   UNL     1       1.897   4.849  19.882  0.00  0.00    +0.000 A 
ATOM      4  C   UNL     1       0.994   3.914  20.399  0.00  0.00    +0.000 A 
ATOM      5  C   UNL     1       1.510   2.690  20.826  0.00  0.00    +0.000 A 
ATOM      6  C   UNL     1       2.879   2.466  20.723  0.00  0.00    +0.000 A 
ATOM      7  N   UNL     1       3.797   3.334  20.221  0.00  0.00    +0.000 NA
ATOM      8  C   UNL     1       3.238   4.493  19.810  0.00  0.00    +0.000 A 
ATOM      9  N   UNL     1       3.853   5.569  19.212  0.00  0.00    +0.000 N 
ENDROOT
BRANCH   1  10
ATOM     10  C   UNL     1       3.148   7.897  18.452  0.00  0.00    +0.000 C 
BRANCH  10  11
ATOM     11  C   UNL     1       1.938   8.474  17.730  0.00  0.00    +0.000 C 
BRANCH  11  13
ATOM     12  N   UNL     1       0.451   9.342  19.446  0.00  0.00    +0.000 N 
ATOM     13  C   UNL     1       1.437   9.656  18.527  0.00  0.00    +0.000 C 
ATOM     14  O   UNL     1       1.877  10.773  18.261  0.00  0.00    +0.000 OA
ATOM     15  H   UNL     1       0.201   8.365  19.560  0.00  0.00    +0.000 HD
BRANCH  12  19
ATOM     16  C   UNL     1      -1.661  12.075  21.922  0.00  0.00    +0.000 A 
ATOM     17  C   UNL     1      -0.808  11.132  22.491  0.00  0.00    +0.000 A 
ATOM     18  C   UNL     1      -0.098  10.236  21.683  0.00  0.00    +0.000 A 
ATOM     19  C   UNL     1      -0.227  10.257  20.294  0.00  0.00    +0.000 A 
ATOM     20  C   UNL     1      -1.060  11.224  19.719  0.00  0.00    +0.000 A 
ATOM     21  C   UNL     1      -1.766  12.128  20.528  0.00  0.00    +0.000 A 
BRANCH  16  23
ATOM     22  C   UNL     1      -3.329  12.292  23.793  0.00  0.00    +0.000 C 
ATOM     23  C   UNL     1      -2.447  13.022  22.793  0.00  0.00    +0.000 C 
ENDBRANCH  16  23
ENDBRANCH  12  19
ENDBRANCH  11  13
ENDBRANCH  10  11
ENDBRANCH   1  10
BRANCH   9  24
ATOM     24  C   UNL     1       5.274   5.682  18.928  0.00  0.00    +0.000 C 
BRANCH  24  25
ATOM     25  C   UNL     1       5.666   5.218  17.542  0.00  0.00    +0.000 A 
ATOM     26  C   UNL     1       4.835   5.475  16.439  0.00  0.00    +0.000 A 
ATOM     27  C   UNL     1       5.267   5.189  15.139  0.00  0.00    +0.000 A 
ATOM     28  C   UNL     1       6.541   4.670  14.920  0.00  0.00    +0.000 A 
ATOM     29  C   UNL     1       7.352   4.360  16.009  0.00  0.00    +0.000 A 
ATOM     30  C   UNL     1       6.916   4.629  17.311  0.00  0.00    +0.000 A 
BRANCH  28  31
ATOM     31  O   UNL     1       6.890   4.486  13.608  0.00  0.00    +0.000 OA
ATOM     32  C   UNL     1       6.035   3.610  12.878  0.00  0.00    +0.000 C 
ENDBRANCH  28  31
ENDBRANCH  24  25
ENDBRANCH   9  24
TORSDOF 8
ENDMDL
MODEL 9
REMARK VINA RESULT:      -8.5      1.328      1.965
REMARK  Name = 
REMARK  10 active torsions:
REMARK  status: ('A' for Active; 'I' for Inactive)
REMARK    1  A    between atoms: C_1  and  C_2
REMARK    2  A    between atoms: C_2  and  C_3
REMARK    3  A    between atoms: C_6  and  N_7
REMARK    4  A    between atoms: C_8  and  C_10
REMARK    5  A    between atoms: C_10  and  C_11
REMARK    6  A    between atoms: C_11  and  C_12
REMARK    7  A    between atoms: N_20  and  C_21
REMARK    8  A    between atoms: C_21  and  C_22
REMARK    9  A    between atoms: C_25  and  O_26
REMARK   10  A    between atoms: O_26  and  C_27
REMARK                            x       y       z     vdW  Elec       q    Type
REMARK                         _______ _______ _______ _____ _____    ______ ____
ROOT
ATOM      1  C   UNL     1       3.783   5.841  17.757  0.00  0.00    +0.000 A 
ATOM      2  N   UNL     1       3.593   4.683  17.148  0.00  0.00    +0.000 NA
ATOM      3  C   UNL     1       2.696   4.000  17.927  0.00  0.00    +0.000 A 
ATOM      4  C   UNL     1       2.141   2.725  17.779  0.00  0.00    +0.000 A 
ATOM      5  C   UNL     1       1.216   2.311  18.738  0.00  0.00    +0.000 A 
ATOM      6  C   UNL     1       0.892   3.179  19.776  0.00  0.00    +0.000 A 
ATOM      7  N   UNL     1       1.409   4.421  19.972  0.00  0.00    +0.000 NA
ATOM      8  C   UNL     1       2.308   4.760  19.023  0.00  0.00    +0.000 A 
ATOM      9  N   UNL     1       3.055   5.911  18.932  0.00  0.00    +0.000 N 
ENDROOT
BRANCH   1  10
ATOM     10  C   UNL     1       4.698   6.907  17.258  0.00  0.00    +0.000 C 
BRANCH  10  11
ATOM     11  C   UNL     1       6.159   6.647  17.602  0.00  0.00    +0.000 C 
BRANCH  11  13
ATOM     12  N   UNL     1       6.138   5.751  15.342  0.00  0.00    +0.000 N 
ATOM     13  C   UNL     1       6.707   5.658  16.601  0.00  0.00    +0.000 C 
ATOM     14  O   UNL     1       7.533   4.831  16.983  0.00  0.00    +0.000 OA
ATOM     15  H   UNL     1       5.472   6.499  15.176  0.00  0.00    +0.000 HD
BRANCH  12  19
ATOM     16  C   UNL     1       6.906   3.257  11.989  0.00  0.00    +0.000 A 
ATOM     17  C   UNL     1       7.707   4.372  12.228  0.00  0.00    +0.000 A 
ATOM     18  C   UNL     1       7.469   5.192  13.337  0.00  0.00    +0.000 A 
ATOM     19  C   UNL     1       6.429   4.923  14.227  0.00  0.00    +0.000 A 
ATOM     20  C   UNL     1       5.643   3.785  14.004  0.00  0.00    +0.000 A 
ATOM     21  C   UNL     1       5.885   2.958  12.897  0.00  0.00    +0.000 A 
BRANCH  16  23
ATOM     22  C   UNL     1       6.484   1.025  10.907  0.00  0.00    +0.000 C 
ATOM     23  C   UNL     1       7.143   2.389  10.779  0.00  0.00    +0.000 C 
ENDBRANCH  16  23
ENDBRANCH  12  19
ENDBRANCH  11  13
ENDBRANCH  10  11
ENDBRANCH   1  10
BRANCH   9  24
ATOM     24  C   UNL     1       2.995   7.034  19.853  0.00  0.00    +0.000 C 
BRANCH  24  25
ATOM     25  C   UNL     1       1.898   8.030  19.542  0.00  0.00    +0.000 A 
ATOM     26  C   UNL     1       1.051   8.501  20.559  0.00  0.00    +0.000 A 
ATOM     27  C   UNL     1       0.143   9.536  20.306  0.00  0.00    +0.000 A 
ATOM     28  C   UNL     1       0.088  10.132  19.049  0.00  0.00    +0.000 A 
ATOM     29  C   UNL     1       0.884   9.637  18.019  0.00  0.00    +0.000 A 
ATOM     30  C   UNL     1       1.782   8.591  18.264  0.00  0.00    +0.000 A 
BRANCH  28  31
ATOM     31  O   UNL     1      -0.789  11.178  18.924  0.00  0.00    +0.000 OA
ATOM     32  C   UNL     1      -0.963  11.957  20.105  0.00  0.00    +0.000 C 
ENDBRANCH  28  31
ENDBRANCH  24  25
ENDBRANCH   9  24
TORSDOF 8
ENDMDL
