MODEL 1
REMARK VINA RESULT:      -8.5      0.000      0.000
REMARK  Name = 
REMARK  7 active torsions:
REMARK  status: ('A' for Active; 'I' for Inactive)
REMARK    1  A    between atoms: C_1  and  C_2
REMARK    2  A    between atoms: C_2  and  C_3
REMARK    3  A    between atoms: C_3  and  C_5
REMARK    4  A    between atoms: C_7  and  C_8
REMARK    5  A    between atoms: C_11  and  S_12
REMARK    6  A    between atoms: S_12  and  N_13
REMARK    7  A    between atoms: N_18  and  C_19
REMARK                            x       y       z     vdW  Elec       q    Type
REMARK                         _______ _______ _______ _____ _____    ______ ____
ROOT
ATOM      1  C   UNL     1       5.364   5.202  16.149  0.00  0.00    +0.000 A 
ATOM      2  C   UNL     1       4.682   6.413  16.400  0.00  0.00    +0.000 A 
ATOM      3  C   UNL     1       3.843   6.179  17.477  0.00  0.00    +0.000 A 
ATOM      4  N   UNL     1       3.994   4.815  17.753  0.00  0.00    +0.000 N 
ATOM      5  N   UNL     1       5.005   4.263  17.034  0.00  0.00    +0.000 NA
ENDROOT
BRANCH   4   6
ATOM      6  C   UNL     1       3.292   4.004  18.691  0.00  0.00    +0.000 A 
ATOM      7  C   UNL     1       1.899   3.855  18.618  0.00  0.00    +0.000 A 
ATOM      8  C   UNL     1       1.204   3.267  19.677  0.00  0.00    +0.000 A 
ATOM      9  C   UNL     1       1.905   2.775  20.775  0.00  0.00    +0.000 A 
ATOM     10 CL   UNL     1       1.042   2.113  22.107  0.00  0.00    +0.000 Cl
ATOM     11  C   UNL     1       3.299   2.833  20.809  0.00  0.00    +0.000 A 
ATOM     12  C   UNL     1       3.999   3.434  19.759  0.00  0.00    +0.000 A 
ENDBRANCH   4   6
BRANCH   3  13
ATOM     13  C   UNL     1       3.027   7.152  18.228  0.00  0.00    +0.000 A 
ATOM     14  C   UNL     1       2.570   8.325  17.606  0.00  0.00    +0.000 A 
ATOM     15  C   UNL     1       1.760   9.233  18.298  0.00  0.00    +0.000 A 
ATOM     16  C   UNL     1       1.367   8.952  19.608  0.00  0.00    +0.000 A 
ATOM     17  C   UNL     1       1.830   7.810  20.252  0.00  0.00    +0.000 A 
ATOM     18  C   UNL     1       2.698   6.951  19.579  0.00  0.00    +0.000 A 
BRANCH  16  19
ATOM     19  S   UNL     1       0.346  10.088  20.496  0.00  0.00    +0.000 S 
ATOM     20  O   UNL     1       1.181  11.027  21.199  0.00  0.00    +0.000 OA
ATOM     21  O   UNL     1      -0.747  10.505  19.647  0.00  0.00    +0.000 OA
BRANCH  19  22
ATOM     22  N   UNL     1      -0.327   9.099  21.672  0.00  0.00    +0.000 NA
ATOM     23  H   UNL     1       0.308   9.035  22.469  0.00  0.00    +0.000 HD
ATOM     24  H   UNL     1      -1.256   9.441  21.916  0.00  0.00    +0.000 HD
ENDBRANCH  19  22
ENDBRANCH  16  19
ENDBRANCH   3  13
BRANCH   1  25
ATOM     25  C   UNL     1       6.362   4.955  15.098  0.00  0.00    +0.000 C 
ATOM     26  O   UNL     1       7.423   5.580  15.074  0.00  0.00    +0.000 OA
BRANCH  25  28
ATOM     27  C   UNL     1       6.792   4.103  12.750  0.00  0.00    +0.000 C 
ATOM     28  C   UNL     1       6.014   3.915  14.041  0.00  0.00    +0.000 C 
ENDBRANCH  25  28
ENDBRANCH   1  25
TORSDOF 6
ENDMDL
MODEL 2
REMARK VINA RESULT:      -8.3      0.736      1.388
REMARK  Name = 
REMARK  7 active torsions:
REMARK  status: ('A' for Active; 'I' for Inactive)
REMARK    1  A    between atoms: C_1  and  C_2
REMARK    2  A    between atoms: C_2  and  C_3
REMARK    3  A    between atoms: C_3  and  C_5
REMARK    4  A    between atoms: C_7  and  C_8
REMARK    5  A    between atoms: C_11  and  S_12
REMARK    6  A    between atoms: S_12  and  N_13
REMARK    7  A    between atoms: N_18  and  C_19
REMARK                            x       y       z     vdW  Elec       q    Type
REMARK                         _______ _______ _______ _____ _____    ______ ____
ROOT
ATOM      1  C   UNL     1       5.389   5.165  16.116  0.00  0.00    +0.000 A 
ATOM      2  C   UNL     1       4.694   6.375  16.333  0.00  0.00    +0.000 A 
ATOM      3  C   UNL     1       3.841   6.156  17.402  0.00  0.00    +0.000 A 
ATOM      4  N   UNL     1       4.000   4.800  17.709  0.00  0.00    +0.000 N 
ATOM      5  N   UNL     1       5.025   4.241  17.015  0.00  0.00    +0.000 NA
ENDROOT
BRANCH   4   6
ATOM      6  C   UNL     1       3.291   4.002  18.653  0.00  0.00    +0.000 A 
ATOM      7  C   UNL     1       1.898   3.855  18.575  0.00  0.00    +0.000 A 
ATOM      8  C   UNL     1       1.197   3.282  19.638  0.00  0.00    +0.000 A 
ATOM      9  C   UNL     1       1.891   2.803  20.746  0.00  0.00    +0.000 A 
ATOM     10 CL   UNL     1       1.019   2.161  22.082  0.00  0.00    +0.000 Cl
ATOM     11  C   UNL     1       3.284   2.859  20.787  0.00  0.00    +0.000 A 
ATOM     12  C   UNL     1       3.991   3.445  19.732  0.00  0.00    +0.000 A 
ENDBRANCH   4   6
BRANCH   3  13
ATOM     13  C   UNL     1       3.007   7.137  18.121  0.00  0.00    +0.000 A 
ATOM     14  C   UNL     1       2.657   6.924  19.463  0.00  0.00    +0.000 A 
ATOM     15  C   UNL     1       1.901   7.870  20.166  0.00  0.00    +0.000 A 
ATOM     16  C   UNL     1       1.526   9.059  19.540  0.00  0.00    +0.000 A 
ATOM     17  C   UNL     1       1.840   9.281  18.203  0.00  0.00    +0.000 A 
ATOM     18  C   UNL     1       2.525   8.297  17.491  0.00  0.00    +0.000 A 
BRANCH  16  19
ATOM     19  S   UNL     1       0.573  10.265  20.411  0.00  0.00    +0.000 S 
ATOM     20  O   UNL     1      -0.825  10.062  20.125  0.00  0.00    +0.000 OA
ATOM     21  O   UNL     1       1.080  10.384  21.760  0.00  0.00    +0.000 OA
BRANCH  19  22
ATOM     22  N   UNL     1       1.003  11.681  19.623  0.00  0.00    +0.000 NA
ATOM     23  H   UNL     1       1.957  11.940  19.880  0.00  0.00    +0.000 HD
ATOM     24  H   UNL     1       0.867  11.569  18.619  0.00  0.00    +0.000 HD
ENDBRANCH  19  22
ENDBRANCH  16  19
ENDBRANCH   3  13
BRANCH   1  25
ATOM     25  C   UNL     1       6.403   4.905  15.085  0.00  0.00    +0.000 C 
ATOM     26  O   UNL     1       7.488   5.488  15.102  0.00  0.00    +0.000 OA
BRANCH  25  28
ATOM     27  C   UNL     1       6.847   4.105  12.721  0.00  0.00    +0.000 C 
ATOM     28  C   UNL     1       6.044   3.903  13.994  0.00  0.00    +0.000 C 
ENDBRANCH  25  28
ENDBRANCH   1  25
TORSDOF 6
ENDMDL
MODEL 3
REMARK VINA RESULT:      -8.2      3.898      5.442
REMARK  Name = 
REMARK  7 active torsions:
REMARK  status: ('A' for Active; 'I' for Inactive)
REMARK    1  A    between atoms: C_1  and  C_2
REMARK    2  A    between atoms: C_2  and  C_3
REMARK    3  A    between atoms: C_3  and  C_5
REMARK    4  A    between atoms: C_7  and  C_8
REMARK    5  A    between atoms: C_11  and  S_12
REMARK    6  A    between atoms: S_12  and  N_13
REMARK    7  A    between atoms: N_18  and  C_19
REMARK                            x       y       z     vdW  Elec       q    Type
REMARK                         _______ _______ _______ _____ _____    ______ ____
ROOT
ATOM      1  C   UNL     1       6.225   4.290  14.022  0.00  0.00    +0.000 A 
ATOM      2  C   UNL     1       5.268   3.690  14.869  0.00  0.00    +0.000 A 
ATOM      3  C   UNL     1       5.268   4.421  16.046  0.00  0.00    +0.000 A 
ATOM      4  N   UNL     1       6.291   5.360  15.879  0.00  0.00    +0.000 N 
ATOM      5  N   UNL     1       6.777   5.359  14.611  0.00  0.00    +0.000 NA
ENDROOT
BRANCH   4   6
ATOM      6  C   UNL     1       6.808   6.303  16.814  0.00  0.00    +0.000 A 
ATOM      7  C   UNL     1       6.660   7.683  16.609  0.00  0.00    +0.000 A 
ATOM      8  C   UNL     1       7.378   8.586  17.394  0.00  0.00    +0.000 A 
ATOM      9  C   UNL     1       8.194   8.115  18.419  0.00  0.00    +0.000 A 
ATOM     10 CL   UNL     1       9.130   9.226  19.339  0.00  0.00    +0.000 Cl
ATOM     11  C   UNL     1       8.271   6.748  18.691  0.00  0.00    +0.000 A 
ATOM     12  C   UNL     1       7.565   5.838  17.898  0.00  0.00    +0.000 A 
ENDBRANCH   4   6
BRANCH   3  13
ATOM     13  C   UNL     1       4.349   4.303  17.194  0.00  0.00    +0.000 A 
ATOM     14  C   UNL     1       4.317   3.127  17.960  0.00  0.00    +0.000 A 
ATOM     15  C   UNL     1       3.479   3.022  19.077  0.00  0.00    +0.000 A 
ATOM     16  C   UNL     1       2.696   4.112  19.460  0.00  0.00    +0.000 A 
ATOM     17  C   UNL     1       2.692   5.278  18.701  0.00  0.00    +0.000 A 
ATOM     18  C   UNL     1       3.472   5.343  17.547  0.00  0.00    +0.000 A 
BRANCH  16  19
ATOM     19  S   UNL     1       1.633   3.997  20.866  0.00  0.00    +0.000 S 
ATOM     20  O   UNL     1       2.307   3.273  21.913  0.00  0.00    +0.000 OA
ATOM     21  O   UNL     1       1.005   5.280  21.090  0.00  0.00    +0.000 OA
BRANCH  19  22
ATOM     22  N   UNL     1       0.426   2.977  20.304  0.00  0.00    +0.000 NA
ATOM     23  H   UNL     1       0.737   2.007  20.375  0.00  0.00    +0.000 HD
ATOM     24  H   UNL     1      -0.442   3.166  20.803  0.00  0.00    +0.000 HD
ENDBRANCH  19  22
ENDBRANCH  16  19
ENDBRANCH   3  13
BRANCH   1  25
ATOM     25  C   UNL     1       6.586   3.864  12.662  0.00  0.00    +0.000 C 
ATOM     26  O   UNL     1       7.513   4.403  12.056  0.00  0.00    +0.000 OA
BRANCH  25  28
ATOM     27  C   UNL     1       4.467   3.254  11.413  0.00  0.00    +0.000 C 
ATOM     28  C   UNL     1       5.755   2.749  12.039  0.00  0.00    +0.000 C 
ENDBRANCH  25  28
ENDBRANCH   1  25
TORSDOF 6
ENDMDL
MODEL 4
REMARK VINA RESULT:      -8.0      0.925      1.008
REMARK  Name = 
REMARK  7 active torsions:
REMARK  status: ('A' for Active; 'I' for Inactive)
REMARK    1  A    between atoms: C_1  and  C_2
REMARK    2  A    between atoms: C_2  and  C_3
REMARK    3  A    between atoms: C_3  and  C_5
REMARK    4  A    between atoms: C_7  and  C_8
REMARK    5  A    between atoms: C_11  and  S_12
REMARK    6  A    between atoms: S_12  and  N_13
REMARK    7  A    between atoms: N_18  and  C_19
REMARK                            x       y       z     vdW  Elec       q    Type
REMARK                         _______ _______ _______ _____ _____    ______ ____
ROOT
ATOM      1  C   UNL     1       5.624   5.124  16.597  0.00  0.00    +0.000 A 
ATOM      2  C   UNL     1       4.914   6.340  16.705  0.00  0.00    +0.000 A 
ATOM      3  C   UNL     1       3.957   6.153  17.689  0.00  0.00    +0.000 A 
ATOM      4  N   UNL     1       4.081   4.808  18.052  0.00  0.00    +0.000 N 
ATOM      5  N   UNL     1       5.169   4.228  17.483  0.00  0.00    +0.000 NA
ENDROOT
BRANCH   4   6
ATOM      6  C   UNL     1       3.278   4.039  18.944  0.00  0.00    +0.000 A 
ATOM      7  C   UNL     1       1.878   4.132  18.920  0.00  0.00    +0.000 A 
ATOM      8  C   UNL     1       1.125   3.569  19.952  0.00  0.00    +0.000 A 
ATOM      9  C   UNL     1       1.763   2.866  20.971  0.00  0.00    +0.000 A 
ATOM     10 CL   UNL     1       0.838   2.234  22.275  0.00  0.00    +0.000 Cl
ATOM     11  C   UNL     1       3.147   2.688  20.948  0.00  0.00    +0.000 A 
ATOM     12  C   UNL     1       3.908   3.261  19.925  0.00  0.00    +0.000 A 
ENDBRANCH   4   6
BRANCH   3  13
ATOM     13  C   UNL     1       3.058   7.156  18.290  0.00  0.00    +0.000 A 
ATOM     14  C   UNL     1       2.550   8.210  17.514  0.00  0.00    +0.000 A 
ATOM     15  C   UNL     1       1.662   9.143  18.064  0.00  0.00    +0.000 A 
ATOM     16  C   UNL     1       1.243   9.001  19.389  0.00  0.00    +0.000 A 
ATOM     17  C   UNL     1       1.753   7.980  20.183  0.00  0.00    +0.000 A 
ATOM     18  C   UNL     1       2.696   7.104  19.647  0.00  0.00    +0.000 A 
BRANCH  16  19
ATOM     19  S   UNL     1       0.123  10.168  20.100  0.00  0.00    +0.000 S 
ATOM     20  O   UNL     1      -0.482   9.591  21.273  0.00  0.00    +0.000 OA
ATOM     21  O   UNL     1       0.744  11.474  20.109  0.00  0.00    +0.000 OA
BRANCH  19  22
ATOM     22  N   UNL     1      -1.088  10.234  18.942  0.00  0.00    +0.000 NA
ATOM     23  H   UNL     1      -1.875  10.777  19.300  0.00  0.00    +0.000 HD
ATOM     24  H   UNL     1      -0.707  10.594  18.068  0.00  0.00    +0.000 HD
ENDBRANCH  19  22
ENDBRANCH  16  19
ENDBRANCH   3  13
BRANCH   1  25
ATOM     25  C   UNL     1       6.736   4.833  15.681  0.00  0.00    +0.000 C 
ATOM     26  O   UNL     1       7.861   4.578  16.113  0.00  0.00    +0.000 OA
BRANCH  25  28
ATOM     27  C   UNL     1       5.386   3.867  13.766  0.00  0.00    +0.000 C 
ATOM     28  C   UNL     1       6.437   4.879  14.188  0.00  0.00    +0.000 C 
ENDBRANCH  25  28
ENDBRANCH   1  25
TORSDOF 6
ENDMDL
MODEL 5
REMARK VINA RESULT:      -7.9      4.267      5.678
REMARK  Name = 
REMARK  7 active torsions:
REMARK  status: ('A' for Active; 'I' for Inactive)
REMARK    1  A    between atoms: C_1  and  C_2
REMARK    2  A    between atoms: C_2  and  C_3
REMARK    3  A    between atoms: C_3  and  C_5
REMARK    4  A    between atoms: C_7  and  C_8
REMARK    5  A    between atoms: C_11  and  S_12
REMARK    6  A    between atoms: S_12  and  N_13
REMARK    7  A    between atoms: N_18  and  C_19
REMARK                            x       y       z     vdW  Elec       q    Type
REMARK                         _______ _______ _______ _____ _____    ______ ____
ROOT
ATOM      1  C   UNL     1       6.320   4.330  14.091  0.00  0.00    +0.000 A 
ATOM      2  C   UNL     1       5.491   3.624  14.990  0.00  0.00    +0.000 A 
ATOM      3  C   UNL     1       5.504   4.334  16.180  0.00  0.00    +0.000 A 
ATOM      4  N   UNL     1       6.414   5.374  15.962  0.00  0.00    +0.000 N 
ATOM      5  N   UNL     1       6.805   5.440  14.663  0.00  0.00    +0.000 NA
ENDROOT
BRANCH   4   6
ATOM      6  C   UNL     1       6.901   6.350  16.879  0.00  0.00    +0.000 A 
ATOM      7  C   UNL     1       6.723   7.720  16.641  0.00  0.00    +0.000 A 
ATOM      8  C   UNL     1       7.413   8.658  17.410  0.00  0.00    +0.000 A 
ATOM      9  C   UNL     1       8.231   8.230  18.452  0.00  0.00    +0.000 A 
ATOM     10 CL   UNL     1       9.134   9.383  19.354  0.00  0.00    +0.000 Cl
ATOM     11  C   UNL     1       8.337   6.872  18.756  0.00  0.00    +0.000 A 
ATOM     12  C   UNL     1       7.660   5.927  17.980  0.00  0.00    +0.000 A 
ENDBRANCH   4   6
BRANCH   3  13
ATOM     13  C   UNL     1       4.687   4.107  17.387  0.00  0.00    +0.000 A 
ATOM     14  C   UNL     1       3.319   4.425  17.389  0.00  0.00    +0.000 A 
ATOM     15  C   UNL     1       2.527   4.173  18.516  0.00  0.00    +0.000 A 
ATOM     16  C   UNL     1       3.091   3.561  19.636  0.00  0.00    +0.000 A 
ATOM     17  C   UNL     1       4.449   3.261  19.666  0.00  0.00    +0.000 A 
ATOM     18  C   UNL     1       5.244   3.587  18.568  0.00  0.00    +0.000 A 
BRANCH  16  19
ATOM     19  S   UNL     1       2.106   3.237  21.066  0.00  0.00    +0.000 S 
ATOM     20  O   UNL     1       0.755   2.951  20.657  0.00  0.00    +0.000 OA
ATOM     21  O   UNL     1       2.844   2.376  21.963  0.00  0.00    +0.000 OA
BRANCH  19  22
ATOM     22  N   UNL     1       2.056   4.744  21.800  0.00  0.00    +0.000 NA
ATOM     23  H   UNL     1       2.625   5.403  21.267  0.00  0.00    +0.000 HD
ATOM     24  H   UNL     1       1.086   5.038  21.912  0.00  0.00    +0.000 HD
ENDBRANCH  19  22
ENDBRANCH  16  19
ENDBRANCH   3  13
BRANCH   1  25
ATOM     25  C   UNL     1       6.623   3.963  12.700  0.00  0.00    +0.000 C 
ATOM     26  O   UNL     1       7.485   4.567  12.060  0.00  0.00    +0.000 OA
BRANCH  25  28
ATOM     27  C   UNL     1       4.513   3.297  11.463  0.00  0.00    +0.000 C 
ATOM     28  C   UNL     1       5.814   2.826  12.090  0.00  0.00    +0.000 C 
ENDBRANCH  25  28
ENDBRANCH   1  25
TORSDOF 6
ENDMDL
MODEL 6
REMARK VINA RESULT:      -7.6      1.166      1.465
REMARK  Name = 
REMARK  7 active torsions:
REMARK  status: ('A' for Active; 'I' for Inactive)
REMARK    1  A    between atoms: C_1  and  C_2
REMARK    2  A    between atoms: C_2  and  C_3
REMARK    3  A    between atoms: C_3  and  C_5
REMARK    4  A    between atoms: C_7  and  C_8
REMARK    5  A    between atoms: C_11  and  S_12
REMARK    6  A    between atoms: S_12  and  N_13
REMARK    7  A    between atoms: N_18  and  C_19
REMARK                            x       y       z     vdW  Elec       q    Type
REMARK                         _______ _______ _______ _____ _____    ______ ____
ROOT
ATOM      1  C   UNL     1       4.853   4.971  16.404  0.00  0.00    +0.000 A 
ATOM      2  C   UNL     1       4.239   6.213  16.675  0.00  0.00    +0.000 A 
ATOM      3  C   UNL     1       3.448   6.027  17.797  0.00  0.00    +0.000 A 
ATOM      4  N   UNL     1       3.554   4.661  18.082  0.00  0.00    +0.000 N 
ATOM      5  N   UNL     1       4.501   4.057  17.318  0.00  0.00    +0.000 NA
ENDROOT
BRANCH   4   6
ATOM      6  C   UNL     1       2.867   3.891  19.064  0.00  0.00    +0.000 A 
ATOM      7  C   UNL     1       1.466   3.818  19.078  0.00  0.00    +0.000 A 
ATOM      8  C   UNL     1       0.807   3.271  20.180  0.00  0.00    +0.000 A 
ATOM      9  C   UNL     1       1.545   2.743  21.236  0.00  0.00    +0.000 A 
ATOM     10 CL   UNL     1       0.730   2.132  22.621  0.00  0.00    +0.000 Cl
ATOM     11  C   UNL     1       2.940   2.725  21.184  0.00  0.00    +0.000 A 
ATOM     12  C   UNL     1       3.606   3.285  20.090  0.00  0.00    +0.000 A 
ENDBRANCH   4   6
BRANCH   3  13
ATOM     13  C   UNL     1       2.716   7.042  18.577  0.00  0.00    +0.000 A 
ATOM     14  C   UNL     1       2.265   8.222  17.962  0.00  0.00    +0.000 A 
ATOM     15  C   UNL     1       1.533   9.172  18.684  0.00  0.00    +0.000 A 
ATOM     16  C   UNL     1       1.210   8.927  20.020  0.00  0.00    +0.000 A 
ATOM     17  C   UNL     1       1.668   7.778  20.656  0.00  0.00    +0.000 A 
ATOM     18  C   UNL     1       2.462   6.877  19.949  0.00  0.00    +0.000 A 
BRANCH  16  19
ATOM     19  S   UNL     1       0.287  10.115  20.946  0.00  0.00    +0.000 S 
ATOM     20  O   UNL     1      -0.491   9.434  21.949  0.00  0.00    +0.000 OA
ATOM     21  O   UNL     1       1.141  11.240  21.258  0.00  0.00    +0.000 OA
BRANCH  19  22
ATOM     22  N   UNL     1      -0.812  10.664  19.805  0.00  0.00    +0.000 NA
ATOM     23  H   UNL     1      -0.318  10.917  18.948  0.00  0.00    +0.000 HD
ATOM     24  H   UNL     1      -1.540   9.964  19.666  0.00  0.00    +0.000 HD
ENDBRANCH  19  22
ENDBRANCH  16  19
ENDBRANCH   3  13
BRANCH   1  25
ATOM     25  C   UNL     1       5.783   4.670  15.306  0.00  0.00    +0.000 C 
ATOM     26  O   UNL     1       5.364   4.366  14.188  0.00  0.00    +0.000 OA
BRANCH  25  28
ATOM     27  C   UNL     1       7.567   4.615  17.105  0.00  0.00    +0.000 C 
ATOM     28  C   UNL     1       7.272   4.732  15.619  0.00  0.00    +0.000 C 
ENDBRANCH  25  28
ENDBRANCH   1  25
TORSDOF 6
ENDMDL
MODEL 7
REMARK VINA RESULT:      -7.6      3.932      5.529
REMARK  Name = 
REMARK  7 active torsions:
REMARK  status: ('A' for Active; 'I' for Inactive)
REMARK    1  A    between atoms: C_1  and  C_2
REMARK    2  A    between atoms: C_2  and  C_3
REMARK    3  A    between atoms: C_3  and  C_5
REMARK    4  A    between atoms: C_7  and  C_8
REMARK    5  A    between atoms: C_11  and  S_12
REMARK    6  A    between atoms: S_12  and  N_13
REMARK    7  A    between atoms: N_18  and  C_19
REMARK                            x       y       z     vdW  Elec       q    Type
REMARK                         _______ _______ _______ _____ _____    ______ ____
ROOT
ATOM      1  C   UNL     1       6.172   4.191  13.863  0.00  0.00    +0.000 A 
ATOM      2  C   UNL     1       5.227   3.552  14.694  0.00  0.00    +0.000 A 
ATOM      3  C   UNL     1       5.222   4.245  15.894  0.00  0.00    +0.000 A 
ATOM      4  N   UNL     1       6.232   5.203  15.753  0.00  0.00    +0.000 N 
ATOM      5  N   UNL     1       6.713   5.248  14.484  0.00  0.00    +0.000 NA
ENDROOT
BRANCH   4   6
ATOM      6  C   UNL     1       6.741   6.121  16.716  0.00  0.00    +0.000 A 
ATOM      7  C   UNL     1       6.594   7.506  16.544  0.00  0.00    +0.000 A 
ATOM      8  C   UNL     1       7.306   8.389  17.358  0.00  0.00    +0.000 A 
ATOM      9  C   UNL     1       8.112   7.892  18.379  0.00  0.00    +0.000 A 
ATOM     10 CL   UNL     1       9.039   8.979  19.335  0.00  0.00    +0.000 Cl
ATOM     11  C   UNL     1       8.185   6.519  18.617  0.00  0.00    +0.000 A 
ATOM     12  C   UNL     1       7.487   5.629  17.796  0.00  0.00    +0.000 A 
ENDBRANCH   4   6
BRANCH   3  13
ATOM     13  C   UNL     1       4.309   4.078  17.040  0.00  0.00    +0.000 A 
ATOM     14  C   UNL     1       4.130   2.816  17.628  0.00  0.00    +0.000 A 
ATOM     15  C   UNL     1       3.299   2.655  18.743  0.00  0.00    +0.000 A 
ATOM     16  C   UNL     1       2.672   3.769  19.305  0.00  0.00    +0.000 A 
ATOM     17  C   UNL     1       2.815   5.025  18.724  0.00  0.00    +0.000 A 
ATOM     18  C   UNL     1       3.583   5.159  17.568  0.00  0.00    +0.000 A 
BRANCH  16  19
ATOM     19  S   UNL     1       1.620   3.586  20.712  0.00  0.00    +0.000 S 
ATOM     20  O   UNL     1       1.300   4.888  21.238  0.00  0.00    +0.000 OA
ATOM     21  O   UNL     1       0.607   2.597  20.420  0.00  0.00    +0.000 OA
BRANCH  19  22
ATOM     22  N   UNL     1       2.655   2.881  21.827  0.00  0.00    +0.000 NA
ATOM     23  H   UNL     1       3.603   3.232  21.684  0.00  0.00    +0.000 HD
ATOM     24  H   UNL     1       2.300   3.037  22.770  0.00  0.00    +0.000 HD
ENDBRANCH  19  22
ENDBRANCH  16  19
ENDBRANCH   3  13
BRANCH   1  25
ATOM     25  C   UNL     1       6.534   3.814  12.489  0.00  0.00    +0.000 C 
ATOM     26  O   UNL     1       7.494   4.336  11.922  0.00  0.00    +0.000 OA
BRANCH  25  28
ATOM     27  C   UNL     1       6.457   1.589  11.278  0.00  0.00    +0.000 C 
ATOM     28  C   UNL     1       5.661   2.772  11.802  0.00  0.00    +0.000 C 
ENDBRANCH  25  28
ENDBRANCH   1  25
TORSDOF 6
ENDMDL
MODEL 8
REMARK VINA RESULT:      -7.6      0.959      1.304
REMARK  Name = 
REMARK  7 active torsions:
REMARK  status: ('A' for Active; 'I' for Inactive)
REMARK    1  A    between atoms: C_1  and  C_2
REMARK    2  A    between atoms: C_2  and  C_3
REMARK    3  A    between atoms: C_3  and  C_5
REMARK    4  A    between atoms: C_7  and  C_8
REMARK    5  A    between atoms: C_11  and  S_12
REMARK    6  A    between atoms: S_12  and  N_13
REMARK    7  A    between atoms: N_18  and  C_19
REMARK                            x       y       z     vdW  Elec       q    Type
REMARK                         _______ _______ _______ _____ _____    ______ ____
ROOT
ATOM      1  C   UNL     1       5.093   5.517  16.843  0.00  0.00    +0.000 A 
ATOM      2  C   UNL     1       4.405   6.749  16.858  0.00  0.00    +0.000 A 
ATOM      3  C   UNL     1       3.469   6.668  17.876  0.00  0.00    +0.000 A 
ATOM      4  N   UNL     1       3.580   5.357  18.354  0.00  0.00    +0.000 N 
ATOM      5  N   UNL     1       4.646   4.711  17.814  0.00  0.00    +0.000 NA
ENDROOT
BRANCH   4   6
ATOM      6  C   UNL     1       2.787   4.685  19.328  0.00  0.00    +0.000 A 
ATOM      7  C   UNL     1       3.056   4.820  20.698  0.00  0.00    +0.000 A 
ATOM      8  C   UNL     1       2.436   3.972  21.618  0.00  0.00    +0.000 A 
ATOM      9  C   UNL     1       1.507   3.033  21.175  0.00  0.00    +0.000 A 
ATOM     10 CL   UNL     1       0.798   1.944  22.301  0.00  0.00    +0.000 Cl
ATOM     11  C   UNL     1       1.164   2.960  19.825  0.00  0.00    +0.000 A 
ATOM     12  C   UNL     1       1.792   3.797  18.898  0.00  0.00    +0.000 A 
ENDBRANCH   4   6
BRANCH   3  13
ATOM     13  C   UNL     1       2.600   7.735  18.404  0.00  0.00    +0.000 A 
ATOM     14  C   UNL     1       2.204   8.802  17.582  0.00  0.00    +0.000 A 
ATOM     15  C   UNL     1       1.345   9.798  18.062  0.00  0.00    +0.000 A 
ATOM     16  C   UNL     1       0.842   9.709  19.361  0.00  0.00    +0.000 A 
ATOM     17  C   UNL     1       1.240   8.675  20.202  0.00  0.00    +0.000 A 
ATOM     18  C   UNL     1       2.156   7.733  19.738  0.00  0.00    +0.000 A 
BRANCH  16  19
ATOM     19  S   UNL     1      -0.244  10.956  19.984  0.00  0.00    +0.000 S 
ATOM     20  O   UNL     1       0.480  12.196  20.108  0.00  0.00    +0.000 OA
ATOM     21  O   UNL     1      -1.513  10.863  19.300  0.00  0.00    +0.000 OA
BRANCH  19  22
ATOM     22  N   UNL     1      -0.516  10.425  21.552  0.00  0.00    +0.000 NA
ATOM     23  H   UNL     1       0.375  10.337  22.043  0.00  0.00    +0.000 HD
ATOM     24  H   UNL     1      -1.179  11.047  22.013  0.00  0.00    +0.000 HD
ENDBRANCH  19  22
ENDBRANCH  16  19
ENDBRANCH   3  13
BRANCH   1  25
ATOM     25  C   UNL     1       6.179   5.126  15.932  0.00  0.00    +0.000 C 
ATOM     26  O   UNL     1       7.158   5.854  15.765  0.00  0.00    +0.000 OA
BRANCH  25  28
ATOM     27  C   UNL     1       6.097   3.949  13.688  0.00  0.00    +0.000 C 
ATOM     28  C   UNL     1       6.026   3.799  15.198  0.00  0.00    +0.000 C 
ENDBRANCH  25  28
ENDBRANCH   1  25
TORSDOF 6
ENDMDL
MODEL 9
REMARK VINA RESULT:      -7.5      1.203      1.897
REMARK  Name = 
REMARK  7 active torsions:
REMARK  status: ('A' for Active; 'I' for Inactive)
REMARK    1  A    between atoms: C_1  and  C_2
REMARK    2  A    between atoms: C_2  and  C_3
REMARK    3  A    between atoms: C_3  and  C_5
REMARK    4  A    between atoms: C_7  and  C_8
REMARK    5  A    between atoms: C_11  and  S_12
REMARK    6  A    between atoms: S_12  and  N_13
REMARK    7  A    between atoms: N_18  and  C_19
REMARK                            x       y       z     vdW  Elec       q    Type
REMARK                         _______ _______ _______ _____ _____    ______ ____
ROOT
ATOM      1  C   UNL     1       5.123   5.525  16.823  0.00  0.00    +0.000 A 
ATOM      2  C   UNL     1       4.434   6.758  16.834  0.00  0.00    +0.000 A 
ATOM      3  C   UNL     1       3.498   6.680  17.852  0.00  0.00    +0.000 A 
ATOM      4  N   UNL     1       3.610   5.372  18.336  0.00  0.00    +0.000 N 
ATOM      5  N   UNL     1       4.676   4.723  17.799  0.00  0.00    +0.000 NA
ENDROOT
BRANCH   4   6
ATOM      6  C   UNL     1       2.817   4.704  19.313  0.00  0.00    +0.000 A 
ATOM      7  C   UNL     1       3.095   4.833  20.682  0.00  0.00    +0.000 A 
ATOM      8  C   UNL     1       2.474   3.987  21.603  0.00  0.00    +0.000 A 
ATOM      9  C   UNL     1       1.535   3.057  21.164  0.00  0.00    +0.000 A 
ATOM     10 CL   UNL     1       0.824   1.971  22.291  0.00  0.00    +0.000 Cl
ATOM     11  C   UNL     1       1.184   2.990  19.815  0.00  0.00    +0.000 A 
ATOM     12  C   UNL     1       1.813   3.824  18.887  0.00  0.00    +0.000 A 
ENDBRANCH   4   6
BRANCH   3  13
ATOM     13  C   UNL     1       2.629   7.750  18.377  0.00  0.00    +0.000 A 
ATOM     14  C   UNL     1       2.123   7.677  19.684  0.00  0.00    +0.000 A 
ATOM     15  C   UNL     1       1.332   8.708  20.206  0.00  0.00    +0.000 A 
ATOM     16  C   UNL     1       1.077   9.842  19.433  0.00  0.00    +0.000 A 
ATOM     17  C   UNL     1       1.546   9.924  18.126  0.00  0.00    +0.000 A 
ATOM     18  C   UNL     1       2.267   8.857  17.592  0.00  0.00    +0.000 A 
BRANCH  16  19
ATOM     19  S   UNL     1       0.081  11.153  20.074  0.00  0.00    +0.000 S 
ATOM     20  O   UNL     1      -1.305  10.876  19.795  0.00  0.00    +0.000 OA
ATOM     21  O   UNL     1       0.552  11.501  21.396  0.00  0.00    +0.000 OA
BRANCH  19  22
ATOM     22  N   UNL     1       0.506  12.430  19.074  0.00  0.00    +0.000 NA
ATOM     23  H   UNL     1       1.206  13.010  19.538  0.00  0.00    +0.000 HD
ATOM     24  H   UNL     1       0.807  12.071  18.169  0.00  0.00    +0.000 HD
ENDBRANCH  19  22
ENDBRANCH  16  19
ENDBRANCH   3  13
BRANCH   1  25
ATOM     25  C   UNL     1       6.208   5.130  15.914  0.00  0.00    +0.000 C 
ATOM     26  O   UNL     1       7.192   5.854  15.752  0.00  0.00    +0.000 OA
BRANCH  25  28
ATOM     27  C   UNL     1       6.065   3.969  13.666  0.00  0.00    +0.000 C 
ATOM     28  C   UNL     1       6.050   3.807  15.176  0.00  0.00    +0.000 C 
ENDBRANCH  25  28
ENDBRANCH   1  25
TORSDOF 6
ENDMDL
