MODEL 1
REMARK VINA RESULT:      -8.6      0.000      0.000
REMARK  Name = 
REMARK  6 active torsions:
REMARK  status: ('A' for Active; 'I' for Inactive)
REMARK    1  A    between atoms: C_1  and  C_2
REMARK    2  A    between atoms: C_4  and  O_5
REMARK    3  A    between atoms: O_5  and  C_6
REMARK    4  A    between atoms: C_16  and  O_17
REMARK    5  A    between atoms: O_17  and  C_18
REMARK    6  A    between atoms: C_21  and  N_22
REMARK                            x       y       z     vdW  Elec       q    Type
REMARK                         _______ _______ _______ _____ _____    ______ ____
ROOT
ATOM      1  C   UNL     1       1.266   3.363  21.278  0.00  0.00    +0.000 C 
ATOM      2  C   UNL     1       2.070   4.420  20.584  0.00  0.00    +0.000 A 
ATOM      3  C   UNL     1       1.507   5.628  20.222  0.00  0.00    +0.000 A 
ATOM      4  C   UNL     1       2.360   6.531  19.635  0.00  0.00    +0.000 A 
ATOM      5  N   UNL     1       3.645   6.263  19.359  0.00  0.00    +0.000 NA
ATOM      6  C   UNL     1       4.088   5.048  19.705  0.00  0.00    +0.000 A 
ATOM      7  N   UNL     1       3.363   4.115  20.334  0.00  0.00    +0.000 NA
ENDROOT
BRANCH   4   8
ATOM      8  O   UNL     1       1.841   7.769  19.275  0.00  0.00    +0.000 OA
BRANCH   8   9
ATOM      9  C   UNL     1       1.331   8.566  20.284  0.00  0.00    +0.000 A 
ATOM     10  C   UNL     1       1.594   8.327  21.651  0.00  0.00    +0.000 A 
ATOM     11  C   UNL     1       1.051   9.145  22.641  0.00  0.00    +0.000 A 
ATOM     12  C   UNL     1       0.208  10.154  22.240  0.00  0.00    +0.000 A 
ATOM     13  C   UNL     1      -0.083  10.371  20.912  0.00  0.00    +0.000 A 
ATOM     14  C   UNL     1       0.464   9.597  19.907  0.00  0.00    +0.000 A 
ATOM     15  O   UNL     1      -0.952  11.405  20.742  0.00  0.00    +0.000 OA
ATOM     16  C   UNL     1      -1.208  11.777  22.113  0.00  0.00    +0.000 C 
ATOM     17  O   UNL     1      -0.431  11.024  23.065  0.00  0.00    +0.000 OA
ENDBRANCH   8   9
ENDBRANCH   4   8
BRANCH   6  18
ATOM     18  O   UNL     1       5.384   4.687  19.357  0.00  0.00    +0.000 OA
BRANCH  18  19
ATOM     19  C   UNL     1       5.660   4.575  18.012  0.00  0.00    +0.000 A 
ATOM     20  C   UNL     1       4.715   4.167  17.067  0.00  0.00    +0.000 A 
ATOM     21  C   UNL     1       5.043   4.106  15.713  0.00  0.00    +0.000 A 
ATOM     22  C   UNL     1       6.348   4.390  15.284  0.00  0.00    +0.000 A 
ATOM     23  C   UNL     1       7.313   4.739  16.237  0.00  0.00    +0.000 A 
ATOM     24  C   UNL     1       6.960   4.835  17.585  0.00  0.00    +0.000 A 
ATOM     25  F   UNL     1       7.903   5.184  18.473  0.00  0.00    +0.000 F 
BRANCH  22  26
ATOM     26  N   UNL     1       6.665   4.315  13.899  0.00  0.00    +0.000 N 
ATOM     27  C   UNL     1       7.572   5.084  13.202  0.00  0.00    +0.000 A 
ATOM     28  C   UNL     1       7.542   4.630  11.904  0.00  0.00    +0.000 A 
ATOM     29  N   UNL     1       6.641   3.618  11.763  0.00  0.00    +0.000 NA
ATOM     30  C   UNL     1       6.130   3.450  12.962  0.00  0.00    +0.000 A 
ENDBRANCH  22  26
ENDBRANCH  18  19
ENDBRANCH   6  18
TORSDOF 5
ENDMDL
MODEL 2
REMARK VINA RESULT:      -8.5      4.756     10.194
REMARK  Name = 
REMARK  6 active torsions:
REMARK  status: ('A' for Active; 'I' for Inactive)
REMARK    1  A    between atoms: C_1  and  C_2
REMARK    2  A    between atoms: C_4  and  O_5
REMARK    3  A    between atoms: O_5  and  C_6
REMARK    4  A    between atoms: C_16  and  O_17
REMARK    5  A    between atoms: O_17  and  C_18
REMARK    6  A    between atoms: C_21  and  N_22
REMARK                            x       y       z     vdW  Elec       q    Type
REMARK                         _______ _______ _______ _____ _____    ______ ____
ROOT
ATOM      1  C   UNL     1       0.831   8.563  22.008  0.00  0.00    +0.000 C 
ATOM      2  C   UNL     1       1.139   8.720  20.550  0.00  0.00    +0.000 A 
ATOM      3  C   UNL     1       2.044   7.892  19.915  0.00  0.00    +0.000 A 
ATOM      4  C   UNL     1       2.203   8.107  18.567  0.00  0.00    +0.000 A 
ATOM      5  N   UNL     1       1.585   9.090  17.896  0.00  0.00    +0.000 NA
ATOM      6  C   UNL     1       0.762   9.871  18.607  0.00  0.00    +0.000 A 
ATOM      7  N   UNL     1       0.487   9.715  19.908  0.00  0.00    +0.000 NA
ENDROOT
BRANCH   4   8
ATOM      8  O   UNL     1       3.088   7.281  17.883  0.00  0.00    +0.000 OA
BRANCH   8   9
ATOM      9  C   UNL     1       3.027   5.924  18.144  0.00  0.00    +0.000 A 
ATOM     10  C   UNL     1       1.871   5.152  17.895  0.00  0.00    +0.000 A 
ATOM     11  C   UNL     1       1.842   3.787  18.185  0.00  0.00    +0.000 A 
ATOM     12  C   UNL     1       2.959   3.239  18.770  0.00  0.00    +0.000 A 
ATOM     13  C   UNL     1       4.077   3.993  19.049  0.00  0.00    +0.000 A 
ATOM     14  C   UNL     1       4.145   5.339  18.746  0.00  0.00    +0.000 A 
ATOM     15  O   UNL     1       5.054   3.256  19.645  0.00  0.00    +0.000 OA
ATOM     16  C   UNL     1       4.404   1.971  19.750  0.00  0.00    +0.000 C 
ATOM     17  O   UNL     1       3.096   1.940  19.146  0.00  0.00    +0.000 OA
ENDBRANCH   8   9
ENDBRANCH   4   8
BRANCH   6  18
ATOM     18  O   UNL     1       0.169  10.960  17.980  0.00  0.00    +0.000 OA
BRANCH  18  19
ATOM     19  C   UNL     1      -1.163  11.184  18.251  0.00  0.00    +0.000 A 
ATOM     20  C   UNL     1      -1.606  12.058  19.247  0.00  0.00    +0.000 A 
ATOM     21  C   UNL     1      -2.969  12.271  19.453  0.00  0.00    +0.000 A 
ATOM     22  C   UNL     1      -3.920  11.561  18.706  0.00  0.00    +0.000 A 
ATOM     23  C   UNL     1      -3.479  10.638  17.750  0.00  0.00    +0.000 A 
ATOM     24  C   UNL     1      -2.110  10.464  17.528  0.00  0.00    +0.000 A 
ATOM     25  F   UNL     1      -1.718   9.583  16.595  0.00  0.00    +0.000 F 
BRANCH  22  26
ATOM     26  N   UNL     1      -5.306  11.787  18.936  0.00  0.00    +0.000 N 
ATOM     27  C   UNL     1      -5.910  12.175  20.113  0.00  0.00    +0.000 A 
ATOM     28  C   UNL     1      -7.253  12.281  19.836  0.00  0.00    +0.000 A 
ATOM     29  N   UNL     1      -7.511  11.962  18.537  0.00  0.00    +0.000 NA
ATOM     30  C   UNL     1      -6.337  11.668  18.023  0.00  0.00    +0.000 A 
ENDBRANCH  22  26
ENDBRANCH  18  19
ENDBRANCH   6  18
TORSDOF 5
ENDMDL
MODEL 3
REMARK VINA RESULT:      -8.4      4.456      6.930
REMARK  Name = 
REMARK  6 active torsions:
REMARK  status: ('A' for Active; 'I' for Inactive)
REMARK    1  A    between atoms: C_1  and  C_2
REMARK    2  A    between atoms: C_4  and  O_5
REMARK    3  A    between atoms: O_5  and  C_6
REMARK    4  A    between atoms: C_16  and  O_17
REMARK    5  A    between atoms: O_17  and  C_18
REMARK    6  A    between atoms: C_21  and  N_22
REMARK                            x       y       z     vdW  Elec       q    Type
REMARK                         _______ _______ _______ _____ _____    ______ ____
ROOT
ATOM      1  C   UNL     1      -3.023   9.649  17.003  0.00  0.00    +0.000 C 
ATOM      2  C   UNL     1      -2.086  10.438  17.866  0.00  0.00    +0.000 A 
ATOM      3  C   UNL     1      -2.524  11.529  18.590  0.00  0.00    +0.000 A 
ATOM      4  C   UNL     1      -1.578  12.139  19.380  0.00  0.00    +0.000 A 
ATOM      5  N   UNL     1      -0.291  11.764  19.416  0.00  0.00    +0.000 NA
ATOM      6  C   UNL     1       0.048  10.725  18.643  0.00  0.00    +0.000 A 
ATOM      7  N   UNL     1      -0.800  10.021  17.884  0.00  0.00    +0.000 NA
ENDROOT
BRANCH   4   8
ATOM      8  O   UNL     1      -1.982  13.228  20.144  0.00  0.00    +0.000 OA
BRANCH   8   9
ATOM      9  C   UNL     1      -2.663  12.967  21.319  0.00  0.00    +0.000 A 
ATOM     10  C   UNL     1      -2.072  12.290  22.408  0.00  0.00    +0.000 A 
ATOM     11  C   UNL     1      -2.796  12.032  23.572  0.00  0.00    +0.000 A 
ATOM     12  C   UNL     1      -4.117  12.412  23.596  0.00  0.00    +0.000 A 
ATOM     13  C   UNL     1      -4.711  13.039  22.523  0.00  0.00    +0.000 A 
ATOM     14  C   UNL     1      -4.011  13.335  21.370  0.00  0.00    +0.000 A 
ATOM     15  O   UNL     1      -6.026  13.307  22.752  0.00  0.00    +0.000 OA
ATOM     16  C   UNL     1      -6.198  12.734  24.066  0.00  0.00    +0.000 C 
ATOM     17  O   UNL     1      -4.977  12.214  24.629  0.00  0.00    +0.000 OA
ENDBRANCH   8   9
ENDBRANCH   4   8
BRANCH   6  18
ATOM     18  O   UNL     1       1.386  10.355  18.573  0.00  0.00    +0.000 OA
BRANCH  18  19
ATOM     19  C   UNL     1       1.688   9.047  18.882  0.00  0.00    +0.000 A 
ATOM     20  C   UNL     1       2.162   8.127  17.943  0.00  0.00    +0.000 A 
ATOM     21  C   UNL     1       2.483   6.823  18.322  0.00  0.00    +0.000 A 
ATOM     22  C   UNL     1       2.272   6.395  19.641  0.00  0.00    +0.000 A 
ATOM     23  C   UNL     1       1.738   7.297  20.569  0.00  0.00    +0.000 A 
ATOM     24  C   UNL     1       1.458   8.610  20.184  0.00  0.00    +0.000 A 
ATOM     25  F   UNL     1       0.960   9.456  21.099  0.00  0.00    +0.000 F 
BRANCH  22  26
ATOM     26  N   UNL     1       2.599   5.059  20.006  0.00  0.00    +0.000 N 
ATOM     27  C   UNL     1       3.509   4.220  19.399  0.00  0.00    +0.000 A 
ATOM     28  C   UNL     1       3.489   3.048  20.118  0.00  0.00    +0.000 A 
ATOM     29  N   UNL     1       2.592   3.120  21.142  0.00  0.00    +0.000 NA
ATOM     30  C   UNL     1       2.073   4.324  21.053  0.00  0.00    +0.000 A 
ENDBRANCH  22  26
ENDBRANCH  18  19
ENDBRANCH   6  18
TORSDOF 5
ENDMDL
MODEL 4
REMARK VINA RESULT:      -8.4      4.920     10.177
REMARK  Name = 
REMARK  6 active torsions:
REMARK  status: ('A' for Active; 'I' for Inactive)
REMARK    1  A    between atoms: C_1  and  C_2
REMARK    2  A    between atoms: C_4  and  O_5
REMARK    3  A    between atoms: O_5  and  C_6
REMARK    4  A    between atoms: C_16  and  O_17
REMARK    5  A    between atoms: O_17  and  C_18
REMARK    6  A    between atoms: C_21  and  N_22
REMARK                            x       y       z     vdW  Elec       q    Type
REMARK                         _______ _______ _______ _____ _____    ______ ____
ROOT
ATOM      1  C   UNL     1      -0.293   9.267  23.093  0.00  0.00    +0.000 C 
ATOM      2  C   UNL     1       0.325   9.126  21.735  0.00  0.00    +0.000 A 
ATOM      3  C   UNL     1       1.326   8.206  21.495  0.00  0.00    +0.000 A 
ATOM      4  C   UNL     1       1.777   8.140  20.198  0.00  0.00    +0.000 A 
ATOM      5  N   UNL     1       1.340   8.948  19.221  0.00  0.00    +0.000 NA
ATOM      6  C   UNL     1       0.401   9.840  19.561  0.00  0.00    +0.000 A 
ATOM      7  N   UNL     1      -0.151   9.951  20.776  0.00  0.00    +0.000 NA
ENDROOT
BRANCH   4   8
ATOM      8  O   UNL     1       2.769   7.211  19.907  0.00  0.00    +0.000 OA
BRANCH   8   9
ATOM      9  C   UNL     1       2.374   5.907  19.672  0.00  0.00    +0.000 A 
ATOM     10  C   UNL     1       1.471   5.221  20.512  0.00  0.00    +0.000 A 
ATOM     11  C   UNL     1       1.106   3.900  20.249  0.00  0.00    +0.000 A 
ATOM     12  C   UNL     1       1.702   3.278  19.178  0.00  0.00    +0.000 A 
ATOM     13  C   UNL     1       2.612   3.928  18.375  0.00  0.00    +0.000 A 
ATOM     14  C   UNL     1       2.969   5.245  18.592  0.00  0.00    +0.000 A 
ATOM     15  O   UNL     1       3.091   3.122  17.389  0.00  0.00    +0.000 OA
ATOM     16  C   UNL     1       2.416   1.883  17.695  0.00  0.00    +0.000 C 
ATOM     17  O   UNL     1       1.491   1.992  18.794  0.00  0.00    +0.000 OA
ENDBRANCH   8   9
ENDBRANCH   4   8
BRANCH   6  18
ATOM     18  O   UNL     1      -0.019  10.763  18.610  0.00  0.00    +0.000 OA
BRANCH  18  19
ATOM     19  C   UNL     1      -1.353  11.105  18.621  0.00  0.00    +0.000 A 
ATOM     20  C   UNL     1      -1.890  12.065  19.483  0.00  0.00    +0.000 A 
ATOM     21  C   UNL     1      -3.245  12.395  19.426  0.00  0.00    +0.000 A 
ATOM     22  C   UNL     1      -4.103  11.721  18.546  0.00  0.00    +0.000 A 
ATOM     23  C   UNL     1      -3.579  10.714  17.726  0.00  0.00    +0.000 A 
ATOM     24  C   UNL     1      -2.214  10.422  17.766  0.00  0.00    +0.000 A 
ATOM     25  F   UNL     1      -1.738   9.462  16.959  0.00  0.00    +0.000 F 
BRANCH  22  26
ATOM     26  N   UNL     1      -5.483  12.067  18.508  0.00  0.00    +0.000 N 
ATOM     27  C   UNL     1      -6.402  11.972  19.531  0.00  0.00    +0.000 A 
ATOM     28  C   UNL     1      -7.591  12.440  19.022  0.00  0.00    +0.000 A 
ATOM     29  N   UNL     1      -7.452  12.811  17.718  0.00  0.00    +0.000 NA
ATOM     30  C   UNL     1      -6.190  12.577  17.434  0.00  0.00    +0.000 A 
ENDBRANCH  22  26
ENDBRANCH  18  19
ENDBRANCH   6  18
TORSDOF 5
ENDMDL
MODEL 5
REMARK VINA RESULT:      -8.2      1.280      1.854
REMARK  Name = 
REMARK  6 active torsions:
REMARK  status: ('A' for Active; 'I' for Inactive)
REMARK    1  A    between atoms: C_1  and  C_2
REMARK    2  A    between atoms: C_4  and  O_5
REMARK    3  A    between atoms: O_5  and  C_6
REMARK    4  A    between atoms: C_16  and  O_17
REMARK    5  A    between atoms: O_17  and  C_18
REMARK    6  A    between atoms: C_21  and  N_22
REMARK                            x       y       z     vdW  Elec       q    Type
REMARK                         _______ _______ _______ _____ _____    ______ ____
ROOT
ATOM      1  C   UNL     1       0.933   2.251  18.981  0.00  0.00    +0.000 C 
ATOM      2  C   UNL     1       1.750   3.427  19.422  0.00  0.00    +0.000 A 
ATOM      3  C   UNL     1       1.159   4.539  19.989  0.00  0.00    +0.000 A 
ATOM      4  C   UNL     1       2.020   5.530  20.396  0.00  0.00    +0.000 A 
ATOM      5  N   UNL     1       3.347   5.480  20.208  0.00  0.00    +0.000 NA
ATOM      6  C   UNL     1       3.823   4.382  19.607  0.00  0.00    +0.000 A 
ATOM      7  N   UNL     1       3.084   3.332  19.226  0.00  0.00    +0.000 NA
ENDROOT
BRANCH   4   8
ATOM      8  O   UNL     1       1.469   6.659  20.992  0.00  0.00    +0.000 OA
BRANCH   8   9
ATOM      9  C   UNL     1       1.426   7.820  20.243  0.00  0.00    +0.000 A 
ATOM     10  C   UNL     1       2.029   7.930  18.971  0.00  0.00    +0.000 A 
ATOM     11  C   UNL     1       1.977   9.124  18.251  0.00  0.00    +0.000 A 
ATOM     12  C   UNL     1       1.366  10.200  18.850  0.00  0.00    +0.000 A 
ATOM     13  C   UNL     1       0.807  10.112  20.105  0.00  0.00    +0.000 A 
ATOM     14  C   UNL     1       0.818   8.935  20.829  0.00  0.00    +0.000 A 
ATOM     15  O   UNL     1       0.276  11.297  20.513  0.00  0.00    +0.000 OA
ATOM     16  C   UNL     1       0.608  12.145  19.393  0.00  0.00    +0.000 C 
ATOM     17  O   UNL     1       1.249  11.442  18.311  0.00  0.00    +0.000 OA
ENDBRANCH   8   9
ENDBRANCH   4   8
BRANCH   6  18
ATOM     18  O   UNL     1       5.178   4.320  19.305  0.00  0.00    +0.000 OA
BRANCH  18  19
ATOM     19  C   UNL     1       5.519   4.319  17.971  0.00  0.00    +0.000 A 
ATOM     20  C   UNL     1       4.625   3.981  16.951  0.00  0.00    +0.000 A 
ATOM     21  C   UNL     1       5.018   4.030  15.614  0.00  0.00    +0.000 A 
ATOM     22  C   UNL     1       6.339   4.357  15.273  0.00  0.00    +0.000 A 
ATOM     23  C   UNL     1       7.254   4.635  16.296  0.00  0.00    +0.000 A 
ATOM     24  C   UNL     1       6.835   4.620  17.629  0.00  0.00    +0.000 A 
ATOM     25  F   UNL     1       7.731   4.904  18.587  0.00  0.00    +0.000 F 
BRANCH  22  26
ATOM     26  N   UNL     1       6.722   4.395  13.903  0.00  0.00    +0.000 N 
ATOM     27  C   UNL     1       7.606   5.267  13.303  0.00  0.00    +0.000 A 
ATOM     28  C   UNL     1       7.665   4.899  11.979  0.00  0.00    +0.000 A 
ATOM     29  N   UNL     1       6.843   3.841  11.729  0.00  0.00    +0.000 NA
ATOM     30  C   UNL     1       6.291   3.561  12.889  0.00  0.00    +0.000 A 
ENDBRANCH  22  26
ENDBRANCH  18  19
ENDBRANCH   6  18
TORSDOF 5
ENDMDL
MODEL 6
REMARK VINA RESULT:      -8.1      4.900     10.207
REMARK  Name = 
REMARK  6 active torsions:
REMARK  status: ('A' for Active; 'I' for Inactive)
REMARK    1  A    between atoms: C_1  and  C_2
REMARK    2  A    between atoms: C_4  and  O_5
REMARK    3  A    between atoms: O_5  and  C_6
REMARK    4  A    between atoms: C_16  and  O_17
REMARK    5  A    between atoms: O_17  and  C_18
REMARK    6  A    between atoms: C_21  and  N_22
REMARK                            x       y       z     vdW  Elec       q    Type
REMARK                         _______ _______ _______ _____ _____    ______ ____
ROOT
ATOM      1  C   UNL     1       0.841   8.750  22.097  0.00  0.00    +0.000 C 
ATOM      2  C   UNL     1       1.092   8.929  20.631  0.00  0.00    +0.000 A 
ATOM      3  C   UNL     1       1.951   8.095  19.943  0.00  0.00    +0.000 A 
ATOM      4  C   UNL     1       2.059   8.332  18.594  0.00  0.00    +0.000 A 
ATOM      5  N   UNL     1       1.436   9.341  17.968  0.00  0.00    +0.000 NA
ATOM      6  C   UNL     1       0.661  10.126  18.727  0.00  0.00    +0.000 A 
ATOM      7  N   UNL     1       0.436   9.950  20.035  0.00  0.00    +0.000 NA
ENDROOT
BRANCH   4   8
ATOM      8  O   UNL     1       2.897   7.501  17.858  0.00  0.00    +0.000 OA
BRANCH   8   9
ATOM      9  C   UNL     1       3.001   6.183  18.260  0.00  0.00    +0.000 A 
ATOM     10  C   UNL     1       4.165   5.659  18.865  0.00  0.00    +0.000 A 
ATOM     11  C   UNL     1       4.238   4.319  19.245  0.00  0.00    +0.000 A 
ATOM     12  C   UNL     1       3.158   3.518  18.958  0.00  0.00    +0.000 A 
ATOM     13  C   UNL     1       2.033   4.012  18.335  0.00  0.00    +0.000 A 
ATOM     14  C   UNL     1       1.921   5.341  17.976  0.00  0.00    +0.000 A 
ATOM     15  O   UNL     1       1.097   3.045  18.130  0.00  0.00    +0.000 OA
ATOM     16  C   UNL     1       1.782   1.886  18.649  0.00  0.00    +0.000 C 
ATOM     17  O   UNL     1       3.067   2.190  19.227  0.00  0.00    +0.000 OA
ENDBRANCH   8   9
ENDBRANCH   4   8
BRANCH   6  18
ATOM     18  O   UNL     1       0.067  11.240  18.146  0.00  0.00    +0.000 OA
BRANCH  18  19
ATOM     19  C   UNL     1      -1.280  11.418  18.377  0.00  0.00    +0.000 A 
ATOM     20  C   UNL     1      -1.782  12.264  19.369  0.00  0.00    +0.000 A 
ATOM     21  C   UNL     1      -3.157  12.431  19.534  0.00  0.00    +0.000 A 
ATOM     22  C   UNL     1      -4.060  11.701  18.748  0.00  0.00    +0.000 A 
ATOM     23  C   UNL     1      -3.559  10.805  17.795  0.00  0.00    +0.000 A 
ATOM     24  C   UNL     1      -2.180  10.678  17.615  0.00  0.00    +0.000 A 
ATOM     25  F   UNL     1      -1.730   9.822  16.685  0.00  0.00    +0.000 F 
BRANCH  22  26
ATOM     26  N   UNL     1      -5.459  11.880  18.936  0.00  0.00    +0.000 N 
ATOM     27  C   UNL     1      -6.286  11.192  19.798  0.00  0.00    +0.000 A 
ATOM     28  C   UNL     1      -7.541  11.731  19.637  0.00  0.00    +0.000 A 
ATOM     29  N   UNL     1      -7.531  12.719  18.699  0.00  0.00    +0.000 NA
ATOM     30  C   UNL     1      -6.282  12.787  18.294  0.00  0.00    +0.000 A 
ENDBRANCH  22  26
ENDBRANCH  18  19
ENDBRANCH   6  18
TORSDOF 5
ENDMDL
MODEL 7
REMARK VINA RESULT:      -8.1      4.535      7.094
REMARK  Name = 
REMARK  6 active torsions:
REMARK  status: ('A' for Active; 'I' for Inactive)
REMARK    1  A    between atoms: C_1  and  C_2
REMARK    2  A    between atoms: C_4  and  O_5
REMARK    3  A    between atoms: O_5  and  C_6
REMARK    4  A    between atoms: C_16  and  O_17
REMARK    5  A    between atoms: O_17  and  C_18
REMARK    6  A    between atoms: C_21  and  N_22
REMARK                            x       y       z     vdW  Elec       q    Type
REMARK                         _______ _______ _______ _____ _____    ______ ____
ROOT
ATOM      1  C   UNL     1      -2.773   9.946  16.891  0.00  0.00    +0.000 C 
ATOM      2  C   UNL     1      -1.855  10.664  17.832  0.00  0.00    +0.000 A 
ATOM      3  C   UNL     1      -2.259  11.802  18.502  0.00  0.00    +0.000 A 
ATOM      4  C   UNL     1      -1.342  12.339  19.373  0.00  0.00    +0.000 A 
ATOM      5  N   UNL     1      -0.103  11.853  19.534  0.00  0.00    +0.000 NA
ATOM      6  C   UNL     1       0.214  10.775  18.807  0.00  0.00    +0.000 A 
ATOM      7  N   UNL     1      -0.619  10.135  17.976  0.00  0.00    +0.000 NA
ENDROOT
BRANCH   4   8
ATOM      8  O   UNL     1      -1.716  13.473  20.085  0.00  0.00    +0.000 OA
BRANCH   8   9
ATOM      9  C   UNL     1      -2.811  13.368  20.922  0.00  0.00    +0.000 A 
ATOM     10  C   UNL     1      -4.039  14.013  20.658  0.00  0.00    +0.000 A 
ATOM     11  C   UNL     1      -5.118  13.895  21.534  0.00  0.00    +0.000 A 
ATOM     12  C   UNL     1      -4.922  13.174  22.688  0.00  0.00    +0.000 A 
ATOM     13  C   UNL     1      -3.717  12.571  22.972  0.00  0.00    +0.000 A 
ATOM     14  C   UNL     1      -2.641  12.646  22.108  0.00  0.00    +0.000 A 
ATOM     15  O   UNL     1      -3.737  11.929  24.172  0.00  0.00    +0.000 OA
ATOM     16  C   UNL     1      -5.072  12.238  24.626  0.00  0.00    +0.000 C 
ATOM     17  O   UNL     1      -5.847  12.980  23.664  0.00  0.00    +0.000 OA
ENDBRANCH   8   9
ENDBRANCH   4   8
BRANCH   6  18
ATOM     18  O   UNL     1       1.514  10.287  18.868  0.00  0.00    +0.000 OA
BRANCH  18  19
ATOM     19  C   UNL     1       1.668   8.970  19.240  0.00  0.00    +0.000 A 
ATOM     20  C   UNL     1       1.290   8.479  20.493  0.00  0.00    +0.000 A 
ATOM     21  C   UNL     1       1.438   7.126  20.802  0.00  0.00    +0.000 A 
ATOM     22  C   UNL     1       2.032   6.249  19.884  0.00  0.00    +0.000 A 
ATOM     23  C   UNL     1       2.470   6.751  18.652  0.00  0.00    +0.000 A 
ATOM     24  C   UNL     1       2.279   8.100  18.341  0.00  0.00    +0.000 A 
ATOM     25  F   UNL     1       2.696   8.550  17.148  0.00  0.00    +0.000 F 
BRANCH  22  26
ATOM     26  N   UNL     1       2.182   4.874  20.220  0.00  0.00    +0.000 N 
ATOM     27  C   UNL     1       3.310   4.094  20.084  0.00  0.00    +0.000 A 
ATOM     28  C   UNL     1       2.974   2.848  20.560  0.00  0.00    +0.000 A 
ATOM     29  N   UNL     1       1.676   2.819  20.974  0.00  0.00    +0.000 NA
ATOM     30  C   UNL     1       1.225   4.035  20.760  0.00  0.00    +0.000 A 
ENDBRANCH  22  26
ENDBRANCH  18  19
ENDBRANCH   6  18
TORSDOF 5
ENDMDL
MODEL 8
REMARK VINA RESULT:      -8.1      4.880     10.236
REMARK  Name = 
REMARK  6 active torsions:
REMARK  status: ('A' for Active; 'I' for Inactive)
REMARK    1  A    between atoms: C_1  and  C_2
REMARK    2  A    between atoms: C_4  and  O_5
REMARK    3  A    between atoms: O_5  and  C_6
REMARK    4  A    between atoms: C_16  and  O_17
REMARK    5  A    between atoms: O_17  and  C_18
REMARK    6  A    between atoms: C_21  and  N_22
REMARK                            x       y       z     vdW  Elec       q    Type
REMARK                         _______ _______ _______ _____ _____    ______ ____
ROOT
ATOM      1  C   UNL     1       0.687   8.796  21.947  0.00  0.00    +0.000 C 
ATOM      2  C   UNL     1       1.049   8.818  20.494  0.00  0.00    +0.000 A 
ATOM      3  C   UNL     1       2.056   8.017  19.992  0.00  0.00    +0.000 A 
ATOM      4  C   UNL     1       2.259   8.093  18.635  0.00  0.00    +0.000 A 
ATOM      5  N   UNL     1       1.586   8.931  17.833  0.00  0.00    +0.000 NA
ATOM      6  C   UNL     1       0.661   9.702  18.417  0.00  0.00    +0.000 A 
ATOM      7  N   UNL     1       0.339   9.667  19.717  0.00  0.00    +0.000 NA
ENDROOT
BRANCH   4   8
ATOM      8  O   UNL     1       3.248   7.287  18.085  0.00  0.00    +0.000 OA
BRANCH   8   9
ATOM      9  C   UNL     1       3.126   5.920  18.257  0.00  0.00    +0.000 A 
ATOM     10  C   UNL     1       1.966   5.205  17.889  0.00  0.00    +0.000 A 
ATOM     11  C   UNL     1       1.875   3.828  18.091  0.00  0.00    +0.000 A 
ATOM     12  C   UNL     1       2.932   3.206  18.712  0.00  0.00    +0.000 A 
ATOM     13  C   UNL     1       4.053   3.902  19.107  0.00  0.00    +0.000 A 
ATOM     14  C   UNL     1       4.183   5.260  18.892  0.00  0.00    +0.000 A 
ATOM     15  O   UNL     1       4.965   3.096  19.717  0.00  0.00    +0.000 OA
ATOM     16  C   UNL     1       4.269   1.832  19.701  0.00  0.00    +0.000 C 
ATOM     17  O   UNL     1       3.003   1.884  19.015  0.00  0.00    +0.000 OA
ENDBRANCH   8   9
ENDBRANCH   4   8
BRANCH   6  18
ATOM     18  O   UNL     1       0.000  10.652  17.647  0.00  0.00    +0.000 OA
BRANCH  18  19
ATOM     19  C   UNL     1      -1.326  10.879  17.941  0.00  0.00    +0.000 A 
ATOM     20  C   UNL     1      -2.367  10.091  17.442  0.00  0.00    +0.000 A 
ATOM     21  C   UNL     1      -3.690  10.347  17.802  0.00  0.00    +0.000 A 
ATOM     22  C   UNL     1      -4.004  11.443  18.620  0.00  0.00    +0.000 A 
ATOM     23  C   UNL     1      -2.969  12.271  19.070  0.00  0.00    +0.000 A 
ATOM     24  C   UNL     1      -1.645  11.978  18.734  0.00  0.00    +0.000 A 
ATOM     25  F   UNL     1      -0.673  12.782  19.191  0.00  0.00    +0.000 F 
BRANCH  22  26
ATOM     26  N   UNL     1      -5.361  11.692  18.970  0.00  0.00    +0.000 N 
ATOM     27  C   UNL     1      -6.371  10.767  19.130  0.00  0.00    +0.000 A 
ATOM     28  C   UNL     1      -7.490  11.482  19.487  0.00  0.00    +0.000 A 
ATOM     29  N   UNL     1      -7.220  12.816  19.543  0.00  0.00    +0.000 NA
ATOM     30  C   UNL     1      -5.948  12.917  19.229  0.00  0.00    +0.000 A 
ENDBRANCH  22  26
ENDBRANCH  18  19
ENDBRANCH   6  18
TORSDOF 5
ENDMDL
MODEL 9
REMARK VINA RESULT:      -8.1      4.309      6.729
REMARK  Name = 
REMARK  6 active torsions:
REMARK  status: ('A' for Active; 'I' for Inactive)
REMARK    1  A    between atoms: C_1  and  C_2
REMARK    2  A    between atoms: C_4  and  O_5
REMARK    3  A    between atoms: O_5  and  C_6
REMARK    4  A    between atoms: C_16  and  O_17
REMARK    5  A    between atoms: O_17  and  C_18
REMARK    6  A    between atoms: C_21  and  N_22
REMARK                            x       y       z     vdW  Elec       q    Type
REMARK                         _______ _______ _______ _____ _____    ______ ____
ROOT
ATOM      1  C   UNL     1      -2.980  10.035  17.351  0.00  0.00    +0.000 C 
ATOM      2  C   UNL     1      -1.836  10.581  18.149  0.00  0.00    +0.000 A 
ATOM      3  C   UNL     1      -2.005  11.653  19.004  0.00  0.00    +0.000 A 
ATOM      4  C   UNL     1      -0.891  12.029  19.716  0.00  0.00    +0.000 A 
ATOM      5  N   UNL     1       0.312  11.456  19.565  0.00  0.00    +0.000 NA
ATOM      6  C   UNL     1       0.388  10.456  18.678  0.00  0.00    +0.000 A 
ATOM      7  N   UNL     1      -0.643   9.969  17.977  0.00  0.00    +0.000 NA
ENDROOT
BRANCH   4   8
ATOM      8  O   UNL     1      -1.022  13.089  20.606  0.00  0.00    +0.000 OA
BRANCH   8   9
ATOM      9  C   UNL     1      -1.980  12.977  21.596  0.00  0.00    +0.000 A 
ATOM     10  C   UNL     1      -1.866  12.064  22.668  0.00  0.00    +0.000 A 
ATOM     11  C   UNL     1      -2.861  11.970  23.641  0.00  0.00    +0.000 A 
ATOM     12  C   UNL     1      -3.977  12.757  23.487  0.00  0.00    +0.000 A 
ATOM     13  C   UNL     1      -4.113  13.623  22.425  0.00  0.00    +0.000 A 
ATOM     14  C   UNL     1      -3.131  13.760  21.463  0.00  0.00    +0.000 A 
ATOM     15  O   UNL     1      -5.301  14.288  22.457  0.00  0.00    +0.000 OA
ATOM     16  C   UNL     1      -5.910  13.704  23.628  0.00  0.00    +0.000 C 
ATOM     17  O   UNL     1      -5.052  12.774  24.317  0.00  0.00    +0.000 OA
ENDBRANCH   8   9
ENDBRANCH   4   8
BRANCH   6  18
ATOM     18  O   UNL     1       1.630   9.890  18.415  0.00  0.00    +0.000 OA
BRANCH  18  19
ATOM     19  C   UNL     1       1.857   8.626  18.915  0.00  0.00    +0.000 A 
ATOM     20  C   UNL     1       1.463   8.226  20.195  0.00  0.00    +0.000 A 
ATOM     21  C   UNL     1       1.689   6.921  20.633  0.00  0.00    +0.000 A 
ATOM     22  C   UNL     1       2.376   6.008  19.821  0.00  0.00    +0.000 A 
ATOM     23  C   UNL     1       2.827   6.425  18.563  0.00  0.00    +0.000 A 
ATOM     24  C   UNL     1       2.559   7.723  18.121  0.00  0.00    +0.000 A 
ATOM     25  F   UNL     1       2.992   8.090  16.906  0.00  0.00    +0.000 F 
BRANCH  22  26
ATOM     26  N   UNL     1       2.603   4.683  20.290  0.00  0.00    +0.000 N 
ATOM     27  C   UNL     1       1.973   4.042  21.335  0.00  0.00    +0.000 A 
ATOM     28  C   UNL     1       2.514   2.779  21.391  0.00  0.00    +0.000 A 
ATOM     29  N   UNL     1       3.466   2.613  20.430  0.00  0.00    +0.000 NA
ATOM     30  C   UNL     1       3.503   3.760  19.790  0.00  0.00    +0.000 A 
ENDBRANCH  22  26
ENDBRANCH  18  19
ENDBRANCH   6  18
TORSDOF 5
ENDMDL
