MODEL 1
REMARK VINA RESULT:      -7.5      0.000      0.000
REMARK  Name = 
REMARK  9 active torsions:
REMARK  status: ('A' for Active; 'I' for Inactive)
REMARK    1  A    between atoms: C_1  and  O_2
REMARK    2  A    between atoms: O_2  and  C_3
REMARK    3  A    between atoms: C_8  and  C_9
REMARK    4  A    between atoms: C_10  and  C_11
REMARK    5  A    between atoms: C_14  and  N_15
REMARK    6  A    between atoms: N_15  and  C_16
REMARK    7  A    between atoms: N_15  and  C_17
REMARK    8  A    between atoms: C_18  and  O_19
REMARK    9  A    between atoms: O_19  and  C_20
REMARK                            x       y       z     vdW  Elec       q    Type
REMARK                         _______ _______ _______ _____ _____    ______ ____
ROOT
ATOM      1  C   UNL     1       8.206   8.320  18.244  0.00  0.00    +0.000 C 
ATOM      2  C   UNL     1       8.208   9.553  17.716  0.00  0.00    +0.000 C 
ENDROOT
BRANCH   1   8
ATOM      3  C   UNL     1       6.141   3.897  14.804  0.00  0.00    +0.000 A 
ATOM      4  C   UNL     1       5.322   3.578  15.893  0.00  0.00    +0.000 A 
ATOM      5  C   UNL     1       5.371   4.329  17.078  0.00  0.00    +0.000 A 
ATOM      6  C   UNL     1       6.261   5.413  17.154  0.00  0.00    +0.000 A 
ATOM      7  C   UNL     1       6.590   6.386  18.127  0.00  0.00    +0.000 A 
ATOM      8  C   UNL     1       7.575   7.216  17.602  0.00  0.00    +0.000 A 
ATOM      9  O   UNL     1       7.861   6.768  16.329  0.00  0.00    +0.000 OA
ATOM     10  C   UNL     1       7.071   5.690  16.065  0.00  0.00    +0.000 A 
ATOM     11  C   UNL     1       7.055   4.955  14.881  0.00  0.00    +0.000 A 
BRANCH   3  13
ATOM     12  C   UNL     1       5.272   3.689  12.611  0.00  0.00    +0.000 C 
ATOM     13  O   UNL     1       6.156   3.206  13.618  0.00  0.00    +0.000 OA
ENDBRANCH   3  13
ENDBRANCH   1   8
BRANCH   2  14
ATOM     14  C   UNL     1       8.900  10.694  18.344  0.00  0.00    +0.000 A 
ATOM     15  C   UNL     1       9.635  10.504  19.510  0.00  0.00    +0.000 A 
ATOM     16  C   UNL     1      10.280  11.587  20.124  0.00  0.00    +0.000 A 
ATOM     17  C   UNL     1      10.209  12.904  19.622  0.00  0.00    +0.000 A 
ATOM     18  C   UNL     1       9.428  13.092  18.458  0.00  0.00    +0.000 A 
ATOM     19  C   UNL     1       8.784  11.997  17.843  0.00  0.00    +0.000 A 
BRANCH  17  20
ATOM     20  N   UNL     1      10.936  13.905  20.263  0.00  0.00    +0.000 N 
ATOM     21  C   UNL     1      12.157  14.461  19.696  0.00  0.00    +0.000 C 
ATOM     22  C   UNL     1      10.353  14.653  21.371  0.00  0.00    +0.000 C 
ENDBRANCH  17  20
BRANCH  18  23
ATOM     23  O   UNL     1       9.273  14.384  17.996  0.00  0.00    +0.000 OA
ATOM     24  C   UNL     1       7.962  14.933  17.966  0.00  0.00    +0.000 C 
ENDBRANCH  18  23
ENDBRANCH   2  14
TORSDOF 5
ENDMDL
MODEL 2
REMARK VINA RESULT:      -7.3      7.145      8.122
REMARK  Name = 
REMARK  9 active torsions:
REMARK  status: ('A' for Active; 'I' for Inactive)
REMARK    1  A    between atoms: C_1  and  O_2
REMARK    2  A    between atoms: O_2  and  C_3
REMARK    3  A    between atoms: C_8  and  C_9
REMARK    4  A    between atoms: C_10  and  C_11
REMARK    5  A    between atoms: C_14  and  N_15
REMARK    6  A    between atoms: N_15  and  C_16
REMARK    7  A    between atoms: N_15  and  C_17
REMARK    8  A    between atoms: C_18  and  O_19
REMARK    9  A    between atoms: O_19  and  C_20
REMARK                            x       y       z     vdW  Elec       q    Type
REMARK                         _______ _______ _______ _____ _____    ______ ____
ROOT
ATOM      1  C   UNL     1       1.843   8.399  19.042  0.00  0.00    +0.000 C 
ATOM      2  C   UNL     1       1.448   8.346  20.323  0.00  0.00    +0.000 C 
ENDROOT
BRANCH   1   8
ATOM      3  C   UNL     1       5.559   4.744  16.126  0.00  0.00    +0.000 A 
ATOM      4  C   UNL     1       4.791   3.708  16.668  0.00  0.00    +0.000 A 
ATOM      5  C   UNL     1       3.695   3.980  17.502  0.00  0.00    +0.000 A 
ATOM      6  C   UNL     1       3.377   5.319  17.785  0.00  0.00    +0.000 A 
ATOM      7  C   UNL     1       2.384   5.986  18.539  0.00  0.00    +0.000 A 
ATOM      8  C   UNL     1       2.599   7.356  18.432  0.00  0.00    +0.000 A 
ATOM      9  O   UNL     1       3.708   7.543  17.633  0.00  0.00    +0.000 OA
ATOM     10  C   UNL     1       4.169   6.321  17.247  0.00  0.00    +0.000 A 
ATOM     11  C   UNL     1       5.271   6.082  16.429  0.00  0.00    +0.000 A 
BRANCH   3  13
ATOM     12  C   UNL     1       6.360   4.136  13.983  0.00  0.00    +0.000 C 
ATOM     13  O   UNL     1       6.648   4.557  15.313  0.00  0.00    +0.000 OA
ENDBRANCH   3  13
ENDBRANCH   1   8
BRANCH   2  14
ATOM     14  C   UNL     1       0.623   9.394  20.953  0.00  0.00    +0.000 A 
ATOM     15  C   UNL     1       0.313   9.313  22.307  0.00  0.00    +0.000 A 
ATOM     16  C   UNL     1      -0.487  10.295  22.908  0.00  0.00    +0.000 A 
ATOM     17  C   UNL     1      -1.028  11.385  22.194  0.00  0.00    +0.000 A 
ATOM     18  C   UNL     1      -0.737  11.436  20.811  0.00  0.00    +0.000 A 
ATOM     19  C   UNL     1       0.072  10.446  20.212  0.00  0.00    +0.000 A 
BRANCH  17  20
ATOM     20  N   UNL     1      -1.757  12.346  22.890  0.00  0.00    +0.000 N 
ATOM     21  C   UNL     1      -3.046  12.051  23.500  0.00  0.00    +0.000 C 
ATOM     22  C   UNL     1      -1.132  13.598  23.302  0.00  0.00    +0.000 C 
ENDBRANCH  17  20
BRANCH  18  23
ATOM     23  O   UNL     1      -1.324  12.444  20.073  0.00  0.00    +0.000 OA
ATOM     24  C   UNL     1      -0.490  13.242  19.243  0.00  0.00    +0.000 C 
ENDBRANCH  18  23
ENDBRANCH   2  14
TORSDOF 5
ENDMDL
MODEL 3
REMARK VINA RESULT:      -7.2      7.665     10.816
REMARK  Name = 
REMARK  9 active torsions:
REMARK  status: ('A' for Active; 'I' for Inactive)
REMARK    1  A    between atoms: C_1  and  O_2
REMARK    2  A    between atoms: O_2  and  C_3
REMARK    3  A    between atoms: C_8  and  C_9
REMARK    4  A    between atoms: C_10  and  C_11
REMARK    5  A    between atoms: C_14  and  N_15
REMARK    6  A    between atoms: N_15  and  C_16
REMARK    7  A    between atoms: N_15  and  C_17
REMARK    8  A    between atoms: C_18  and  O_19
REMARK    9  A    between atoms: O_19  and  C_20
REMARK                            x       y       z     vdW  Elec       q    Type
REMARK                         _______ _______ _______ _____ _____    ______ ____
ROOT
ATOM      1  C   UNL     1       1.838   8.657  19.560  0.00  0.00    +0.000 C 
ATOM      2  C   UNL     1       2.120   7.382  19.869  0.00  0.00    +0.000 C 
ENDROOT
BRANCH   1   8
ATOM      3  C   UNL     1      -2.300  12.332  21.804  0.00  0.00    +0.000 A 
ATOM      4  C   UNL     1      -2.048  11.695  23.024  0.00  0.00    +0.000 A 
ATOM      5  C   UNL     1      -1.099  10.664  23.120  0.00  0.00    +0.000 A 
ATOM      6  C   UNL     1      -0.400  10.282  21.963  0.00  0.00    +0.000 A 
ATOM      7  C   UNL     1       0.605   9.335  21.655  0.00  0.00    +0.000 A 
ATOM      8  C   UNL     1       0.897   9.431  20.298  0.00  0.00    +0.000 A 
ATOM      9  O   UNL     1       0.087  10.413  19.767  0.00  0.00    +0.000 OA
ATOM     10  C   UNL     1      -0.685  10.920  20.767  0.00  0.00    +0.000 A 
ATOM     11  C   UNL     1      -1.632  11.935  20.638  0.00  0.00    +0.000 A 
BRANCH   3  13
ATOM     12  C   UNL     1      -4.403  12.979  20.929  0.00  0.00    +0.000 C 
ATOM     13  O   UNL     1      -3.216  13.338  21.631  0.00  0.00    +0.000 OA
ENDBRANCH   3  13
ENDBRANCH   1   8
BRANCH   2  14
ATOM     14  C   UNL     1       3.128   6.584  19.146  0.00  0.00    +0.000 A 
ATOM     15  C   UNL     1       3.511   6.951  17.860  0.00  0.00    +0.000 A 
ATOM     16  C   UNL     1       4.454   6.187  17.158  0.00  0.00    +0.000 A 
ATOM     17  C   UNL     1       5.043   5.021  17.692  0.00  0.00    +0.000 A 
ATOM     18  C   UNL     1       4.619   4.637  18.985  0.00  0.00    +0.000 A 
ATOM     19  C   UNL     1       3.671   5.413  19.687  0.00  0.00    +0.000 A 
BRANCH  17  20
ATOM     20  N   UNL     1       6.020   4.363  16.947  0.00  0.00    +0.000 N 
ATOM     21  C   UNL     1       5.725   3.726  15.670  0.00  0.00    +0.000 C 
ATOM     22  C   UNL     1       7.434   4.542  17.255  0.00  0.00    +0.000 C 
ENDBRANCH  17  20
BRANCH  18  23
ATOM     23  O   UNL     1       5.116   3.454  19.494  0.00  0.00    +0.000 OA
ATOM     24  C   UNL     1       4.233   2.346  19.601  0.00  0.00    +0.000 C 
ENDBRANCH  18  23
ENDBRANCH   2  14
TORSDOF 5
ENDMDL
MODEL 4
REMARK VINA RESULT:      -7.2      7.643     10.377
REMARK  Name = 
REMARK  9 active torsions:
REMARK  status: ('A' for Active; 'I' for Inactive)
REMARK    1  A    between atoms: C_1  and  O_2
REMARK    2  A    between atoms: O_2  and  C_3
REMARK    3  A    between atoms: C_8  and  C_9
REMARK    4  A    between atoms: C_10  and  C_11
REMARK    5  A    between atoms: C_14  and  N_15
REMARK    6  A    between atoms: N_15  and  C_16
REMARK    7  A    between atoms: N_15  and  C_17
REMARK    8  A    between atoms: C_18  and  O_19
REMARK    9  A    between atoms: O_19  and  C_20
REMARK                            x       y       z     vdW  Elec       q    Type
REMARK                         _______ _______ _______ _____ _____    ______ ____
ROOT
ATOM      1  C   UNL     1       1.732   8.891  17.850  0.00  0.00    +0.000 C 
ATOM      2  C   UNL     1       1.994   7.697  18.404  0.00  0.00    +0.000 C 
ENDROOT
BRANCH   1   8
ATOM      3  C   UNL     1      -3.373  11.857  18.753  0.00  0.00    +0.000 A 
ATOM      4  C   UNL     1      -2.736  12.392  19.878  0.00  0.00    +0.000 A 
ATOM      5  C   UNL     1      -1.418  12.033  20.202  0.00  0.00    +0.000 A 
ATOM      6  C   UNL     1      -0.743  11.123  19.373  0.00  0.00    +0.000 A 
ATOM      7  C   UNL     1       0.546  10.539  19.348  0.00  0.00    +0.000 A 
ATOM      8  C   UNL     1       0.622   9.690  18.248  0.00  0.00    +0.000 A 
ATOM      9  O   UNL     1      -0.596   9.737  17.601  0.00  0.00    +0.000 OA
ATOM     10  C   UNL     1      -1.408  10.597  18.277  0.00  0.00    +0.000 A 
ATOM     11  C   UNL     1      -2.720  10.922  17.938  0.00  0.00    +0.000 A 
BRANCH   3  13
ATOM     12  C   UNL     1      -5.592  11.079  18.473  0.00  0.00    +0.000 C 
ATOM     13  O   UNL     1      -4.659  12.152  18.378  0.00  0.00    +0.000 OA
ENDBRANCH   3  13
ENDBRANCH   1   8
BRANCH   2  14
ATOM     14  C   UNL     1       3.167   6.882  18.037  0.00  0.00    +0.000 A 
ATOM     15  C   UNL     1       4.141   7.407  17.193  0.00  0.00    +0.000 A 
ATOM     16  C   UNL     1       5.249   6.632  16.824  0.00  0.00    +0.000 A 
ATOM     17  C   UNL     1       5.431   5.301  17.258  0.00  0.00    +0.000 A 
ATOM     18  C   UNL     1       4.416   4.766  18.085  0.00  0.00    +0.000 A 
ATOM     19  C   UNL     1       3.304   5.553  18.455  0.00  0.00    +0.000 A 
BRANCH  17  20
ATOM     20  N   UNL     1       6.596   4.631  16.893  0.00  0.00    +0.000 N 
ATOM     21  C   UNL     1       6.845   4.197  15.524  0.00  0.00    +0.000 C 
ATOM     22  C   UNL     1       7.748   4.603  17.787  0.00  0.00    +0.000 C 
ENDBRANCH  17  20
BRANCH  18  23
ATOM     23  O   UNL     1       4.527   3.440  18.452  0.00  0.00    +0.000 OA
ATOM     24  C   UNL     1       3.662   2.497  17.833  0.00  0.00    +0.000 C 
ENDBRANCH  18  23
ENDBRANCH   2  14
TORSDOF 5
ENDMDL
MODEL 5
REMARK VINA RESULT:      -7.2      7.308     10.782
REMARK  Name = 
REMARK  9 active torsions:
REMARK  status: ('A' for Active; 'I' for Inactive)
REMARK    1  A    between atoms: C_1  and  O_2
REMARK    2  A    between atoms: O_2  and  C_3
REMARK    3  A    between atoms: C_8  and  C_9
REMARK    4  A    between atoms: C_10  and  C_11
REMARK    5  A    between atoms: C_14  and  N_15
REMARK    6  A    between atoms: N_15  and  C_16
REMARK    7  A    between atoms: N_15  and  C_17
REMARK    8  A    between atoms: C_18  and  O_19
REMARK    9  A    between atoms: O_19  and  C_20
REMARK                            x       y       z     vdW  Elec       q    Type
REMARK                         _______ _______ _______ _____ _____    ______ ____
ROOT
ATOM      1  C   UNL     1       1.825   8.509  19.031  0.00  0.00    +0.000 C 
ATOM      2  C   UNL     1       2.282   7.277  19.302  0.00  0.00    +0.000 C 
ENDROOT
BRANCH   1   8
ATOM      3  C   UNL     1      -1.815  12.129  22.084  0.00  0.00    +0.000 A 
ATOM      4  C   UNL     1      -1.565  11.284  23.171  0.00  0.00    +0.000 A 
ATOM      5  C   UNL     1      -0.717  10.173  23.043  0.00  0.00    +0.000 A 
ATOM      6  C   UNL     1      -0.118   9.920  21.798  0.00  0.00    +0.000 A 
ATOM      7  C   UNL     1       0.772   8.949  21.282  0.00  0.00    +0.000 A 
ATOM      8  C   UNL     1       1.002   9.235  19.940  0.00  0.00    +0.000 A 
ATOM      9  O   UNL     1       0.266  10.358  19.622  0.00  0.00    +0.000 OA
ATOM     10  C   UNL     1      -0.401  10.764  20.737  0.00  0.00    +0.000 A 
ATOM     11  C   UNL     1      -1.249  11.866  20.829  0.00  0.00    +0.000 A 
BRANCH   3  13
ATOM     12  C   UNL     1      -2.840  13.897  20.888  0.00  0.00    +0.000 C 
ATOM     13  O   UNL     1      -2.636  13.226  22.129  0.00  0.00    +0.000 OA
ENDBRANCH   3  13
ENDBRANCH   1   8
BRANCH   2  14
ATOM     14  C   UNL     1       3.175   6.534  18.394  0.00  0.00    +0.000 A 
ATOM     15  C   UNL     1       4.026   7.225  17.538  0.00  0.00    +0.000 A 
ATOM     16  C   UNL     1       4.864   6.526  16.657  0.00  0.00    +0.000 A 
ATOM     17  C   UNL     1       4.881   5.118  16.573  0.00  0.00    +0.000 A 
ATOM     18  C   UNL     1       3.984   4.427  17.421  0.00  0.00    +0.000 A 
ATOM     19  C   UNL     1       3.146   5.137  18.308  0.00  0.00    +0.000 A 
BRANCH  17  20
ATOM     20  N   UNL     1       5.794   4.510  15.715  0.00  0.00    +0.000 N 
ATOM     21  C   UNL     1       5.499   4.274  14.308  0.00  0.00    +0.000 C 
ATOM     22  C   UNL     1       7.191   4.357  16.104  0.00  0.00    +0.000 C 
ENDBRANCH  17  20
BRANCH  18  23
ATOM     23  O   UNL     1       3.920   3.054  17.297  0.00  0.00    +0.000 OA
ATOM     24  C   UNL     1       2.853   2.371  17.941  0.00  0.00    +0.000 C 
ENDBRANCH  18  23
ENDBRANCH   2  14
TORSDOF 5
ENDMDL
MODEL 6
REMARK VINA RESULT:      -7.1      7.511     10.755
REMARK  Name = 
REMARK  9 active torsions:
REMARK  status: ('A' for Active; 'I' for Inactive)
REMARK    1  A    between atoms: C_1  and  O_2
REMARK    2  A    between atoms: O_2  and  C_3
REMARK    3  A    between atoms: C_8  and  C_9
REMARK    4  A    between atoms: C_10  and  C_11
REMARK    5  A    between atoms: C_14  and  N_15
REMARK    6  A    between atoms: N_15  and  C_16
REMARK    7  A    between atoms: N_15  and  C_17
REMARK    8  A    between atoms: C_18  and  O_19
REMARK    9  A    between atoms: O_19  and  C_20
REMARK                            x       y       z     vdW  Elec       q    Type
REMARK                         _______ _______ _______ _____ _____    ______ ____
ROOT
ATOM      1  C   UNL     1       1.671   8.859  18.329  0.00  0.00    +0.000 C 
ATOM      2  C   UNL     1       2.126   7.740  18.914  0.00  0.00    +0.000 C 
ENDROOT
BRANCH   1   8
ATOM      3  C   UNL     1      -1.820  12.294  21.746  0.00  0.00    +0.000 A 
ATOM      4  C   UNL     1      -2.555  12.521  20.577  0.00  0.00    +0.000 A 
ATOM      5  C   UNL     1      -2.179  11.930  19.360  0.00  0.00    +0.000 A 
ATOM      6  C   UNL     1      -1.047  11.099  19.334  0.00  0.00    +0.000 A 
ATOM      7  C   UNL     1      -0.374  10.336  18.351  0.00  0.00    +0.000 A 
ATOM      8  C   UNL     1       0.715   9.711  18.951  0.00  0.00    +0.000 A 
ATOM      9  O   UNL     1       0.726  10.080  20.281  0.00  0.00    +0.000 OA
ATOM     10  C   UNL     1      -0.331  10.909  20.505  0.00  0.00    +0.000 A 
ATOM     11  C   UNL     1      -0.671  11.493  21.724  0.00  0.00    +0.000 A 
BRANCH   3  13
ATOM     12  C   UNL     1      -3.232  12.267  23.647  0.00  0.00    +0.000 C 
ATOM     13  O   UNL     1      -2.119  12.842  22.967  0.00  0.00    +0.000 OA
ENDBRANCH   3  13
ENDBRANCH   1   8
BRANCH   2  14
ATOM     14  C   UNL     1       3.153   6.875  18.304  0.00  0.00    +0.000 A 
ATOM     15  C   UNL     1       3.978   7.377  17.303  0.00  0.00    +0.000 A 
ATOM     16  C   UNL     1       4.944   6.556  16.704  0.00  0.00    +0.000 A 
ATOM     17  C   UNL     1       5.121   5.201  17.057  0.00  0.00    +0.000 A 
ATOM     18  C   UNL     1       4.251   4.691  18.049  0.00  0.00    +0.000 A 
ATOM     19  C   UNL     1       3.283   5.524  18.650  0.00  0.00    +0.000 A 
BRANCH  17  20
ATOM     20  N   UNL     1       6.149   4.481  16.454  0.00  0.00    +0.000 N 
ATOM     21  C   UNL     1       6.033   3.942  15.105  0.00  0.00    +0.000 C 
ATOM     22  C   UNL     1       7.494   4.494  17.018  0.00  0.00    +0.000 C 
ENDBRANCH  17  20
BRANCH  18  23
ATOM     23  O   UNL     1       4.346   3.347  18.350  0.00  0.00    +0.000 OA
ATOM     24  C   UNL     1       3.294   2.489  17.928  0.00  0.00    +0.000 C 
ENDBRANCH  18  23
ENDBRANCH   2  14
TORSDOF 5
ENDMDL
MODEL 7
REMARK VINA RESULT:      -7.1      3.352      9.426
REMARK  Name = 
REMARK  9 active torsions:
REMARK  status: ('A' for Active; 'I' for Inactive)
REMARK    1  A    between atoms: C_1  and  O_2
REMARK    2  A    between atoms: O_2  and  C_3
REMARK    3  A    between atoms: C_8  and  C_9
REMARK    4  A    between atoms: C_10  and  C_11
REMARK    5  A    between atoms: C_14  and  N_15
REMARK    6  A    between atoms: N_15  and  C_16
REMARK    7  A    between atoms: N_15  and  C_17
REMARK    8  A    between atoms: C_18  and  O_19
REMARK    9  A    between atoms: O_19  and  C_20
REMARK                            x       y       z     vdW  Elec       q    Type
REMARK                         _______ _______ _______ _____ _____    ______ ____
ROOT
ATOM      1  C   UNL     1       8.668   9.309  18.913  0.00  0.00    +0.000 C 
ATOM      2  C   UNL     1       8.221   8.669  17.822  0.00  0.00    +0.000 C 
ENDROOT
BRANCH   1   8
ATOM      3  C   UNL     1      11.601  14.371  17.715  0.00  0.00    +0.000 A 
ATOM      4  C   UNL     1      12.176  14.209  18.980  0.00  0.00    +0.000 A 
ATOM      5  C   UNL     1      11.841  13.114  19.792  0.00  0.00    +0.000 A 
ATOM      6  C   UNL     1      10.915  12.175  19.311  0.00  0.00    +0.000 A 
ATOM      7  C   UNL     1      10.345  10.975  19.796  0.00  0.00    +0.000 A 
ATOM      8  C   UNL     1       9.466  10.486  18.835  0.00  0.00    +0.000 A 
ATOM      9  O   UNL     1       9.480  11.366  17.772  0.00  0.00    +0.000 OA
ATOM     10  C   UNL     1      10.350  12.373  18.061  0.00  0.00    +0.000 A 
ATOM     11  C   UNL     1      10.651  13.458  17.239  0.00  0.00    +0.000 A 
BRANCH   3  13
ATOM     12  C   UNL     1      12.333  16.612  17.493  0.00  0.00    +0.000 C 
ATOM     13  O   UNL     1      11.871  15.417  16.870  0.00  0.00    +0.000 OA
ENDBRANCH   3  13
ENDBRANCH   1   8
BRANCH   2  14
ATOM     14  C   UNL     1       7.353   7.478  17.889  0.00  0.00    +0.000 A 
ATOM     15  C   UNL     1       7.890   6.247  18.251  0.00  0.00    +0.000 A 
ATOM     16  C   UNL     1       7.075   5.107  18.297  0.00  0.00    +0.000 A 
ATOM     17  C   UNL     1       5.703   5.133  17.971  0.00  0.00    +0.000 A 
ATOM     18  C   UNL     1       5.176   6.383  17.568  0.00  0.00    +0.000 A 
ATOM     19  C   UNL     1       6.001   7.527  17.526  0.00  0.00    +0.000 A 
BRANCH  17  20
ATOM     20  N   UNL     1       4.959   3.964  18.109  0.00  0.00    +0.000 N 
ATOM     21  C   UNL     1       4.433   3.526  19.396  0.00  0.00    +0.000 C 
ATOM     22  C   UNL     1       4.414   3.286  16.938  0.00  0.00    +0.000 C 
ENDBRANCH  17  20
BRANCH  18  23
ATOM     23  O   UNL     1       3.858   6.417  17.162  0.00  0.00    +0.000 OA
ATOM     24  C   UNL     1       2.901   7.004  18.035  0.00  0.00    +0.000 C 
ENDBRANCH  18  23
ENDBRANCH   2  14
TORSDOF 5
ENDMDL
MODEL 8
REMARK VINA RESULT:      -7.0      7.147      8.230
REMARK  Name = 
REMARK  9 active torsions:
REMARK  status: ('A' for Active; 'I' for Inactive)
REMARK    1  A    between atoms: C_1  and  O_2
REMARK    2  A    between atoms: O_2  and  C_3
REMARK    3  A    between atoms: C_8  and  C_9
REMARK    4  A    between atoms: C_10  and  C_11
REMARK    5  A    between atoms: C_14  and  N_15
REMARK    6  A    between atoms: N_15  and  C_16
REMARK    7  A    between atoms: N_15  and  C_17
REMARK    8  A    between atoms: C_18  and  O_19
REMARK    9  A    between atoms: O_19  and  C_20
REMARK                            x       y       z     vdW  Elec       q    Type
REMARK                         _______ _______ _______ _____ _____    ______ ____
ROOT
ATOM      1  C   UNL     1       1.849   7.975  18.755  0.00  0.00    +0.000 C 
ATOM      2  C   UNL     1       1.440   9.107  18.162  0.00  0.00    +0.000 C 
ENDROOT
BRANCH   1   8
ATOM      3  C   UNL     1       6.193   4.996  15.942  0.00  0.00    +0.000 A 
ATOM      4  C   UNL     1       5.471   3.845  16.276  0.00  0.00    +0.000 A 
ATOM      5  C   UNL     1       4.269   3.929  16.996  0.00  0.00    +0.000 A 
ATOM      6  C   UNL     1       3.797   5.196  17.376  0.00  0.00    +0.000 A 
ATOM      7  C   UNL     1       2.667   5.689  18.071  0.00  0.00    +0.000 A 
ATOM      8  C   UNL     1       2.763   7.075  18.135  0.00  0.00    +0.000 A 
ATOM      9  O   UNL     1       3.931   7.442  17.500  0.00  0.00    +0.000 OA
ATOM     10  C   UNL     1       4.545   6.315  17.046  0.00  0.00    +0.000 A 
ATOM     11  C   UNL     1       5.749   6.262  16.346  0.00  0.00    +0.000 A 
BRANCH   3  13
ATOM     12  C   UNL     1       7.266   4.887  13.834  0.00  0.00    +0.000 C 
ATOM     13  O   UNL     1       7.378   4.993  15.250  0.00  0.00    +0.000 OA
ENDBRANCH   3  13
ENDBRANCH   1   8
BRANCH   2  14
ATOM     14  C   UNL     1       0.534  10.073  18.811  0.00  0.00    +0.000 A 
ATOM     15  C   UNL     1       0.866  10.611  20.050  0.00  0.00    +0.000 A 
ATOM     16  C   UNL     1       0.001  11.515  20.684  0.00  0.00    +0.000 A 
ATOM     17  C   UNL     1      -1.235  11.908  20.127  0.00  0.00    +0.000 A 
ATOM     18  C   UNL     1      -1.579  11.326  18.885  0.00  0.00    +0.000 A 
ATOM     19  C   UNL     1      -0.702  10.419  18.252  0.00  0.00    +0.000 A 
BRANCH  17  20
ATOM     20  N   UNL     1      -1.997  12.861  20.798  0.00  0.00    +0.000 N 
ATOM     21  C   UNL     1      -2.780  12.536  21.983  0.00  0.00    +0.000 C 
ATOM     22  C   UNL     1      -1.811  14.283  20.532  0.00  0.00    +0.000 C 
ENDBRANCH  17  20
BRANCH  18  23
ATOM     23  O   UNL     1      -2.820  11.629  18.361  0.00  0.00    +0.000 OA
ATOM     24  C   UNL     1      -3.119  11.185  17.044  0.00  0.00    +0.000 C 
ENDBRANCH  18  23
ENDBRANCH   2  14
TORSDOF 5
ENDMDL
MODEL 9
REMARK VINA RESULT:      -7.0      7.725      8.746
REMARK  Name = 
REMARK  9 active torsions:
REMARK  status: ('A' for Active; 'I' for Inactive)
REMARK    1  A    between atoms: C_1  and  O_2
REMARK    2  A    between atoms: O_2  and  C_3
REMARK    3  A    between atoms: C_8  and  C_9
REMARK    4  A    between atoms: C_10  and  C_11
REMARK    5  A    between atoms: C_14  and  N_15
REMARK    6  A    between atoms: N_15  and  C_16
REMARK    7  A    between atoms: N_15  and  C_17
REMARK    8  A    between atoms: C_18  and  O_19
REMARK    9  A    between atoms: O_19  and  C_20
REMARK                            x       y       z     vdW  Elec       q    Type
REMARK                         _______ _______ _______ _____ _____    ______ ____
ROOT
ATOM      1  C   UNL     1       1.552   8.586  19.405  0.00  0.00    +0.000 C 
ATOM      2  C   UNL     1       1.109   8.537  20.671  0.00  0.00    +0.000 C 
ENDROOT
BRANCH   1   8
ATOM      3  C   UNL     1       4.146   3.564  17.478  0.00  0.00    +0.000 A 
ATOM      4  C   UNL     1       4.922   4.403  16.671  0.00  0.00    +0.000 A 
ATOM      5  C   UNL     1       4.746   5.796  16.697  0.00  0.00    +0.000 A 
ATOM      6  C   UNL     1       3.773   6.338  17.553  0.00  0.00    +0.000 A 
ATOM      7  C   UNL     1       3.315   7.639  17.869  0.00  0.00    +0.000 A 
ATOM      8  C   UNL     1       2.302   7.528  18.816  0.00  0.00    +0.000 A 
ATOM      9  O   UNL     1       2.126   6.186  19.083  0.00  0.00    +0.000 OA
ATOM     10  C   UNL     1       3.010   5.479  18.326  0.00  0.00    +0.000 A 
ATOM     11  C   UNL     1       3.150   4.092  18.311  0.00  0.00    +0.000 A 
BRANCH   3  13
ATOM     12  C   UNL     1       3.468   1.532  18.488  0.00  0.00    +0.000 C 
ATOM     13  O   UNL     1       4.253   2.197  17.502  0.00  0.00    +0.000 OA
ENDBRANCH   3  13
ENDBRANCH   1   8
BRANCH   2  14
ATOM     14  C   UNL     1       0.290   9.602  21.278  0.00  0.00    +0.000 A 
ATOM     15  C   UNL     1      -0.003   9.563  22.637  0.00  0.00    +0.000 A 
ATOM     16  C   UNL     1      -0.798  10.561  23.218  0.00  0.00    +0.000 A 
ATOM     17  C   UNL     1      -1.350  11.627  22.477  0.00  0.00    +0.000 A 
ATOM     18  C   UNL     1      -1.076  11.636  21.089  0.00  0.00    +0.000 A 
ATOM     19  C   UNL     1      -0.273  10.630  20.511  0.00  0.00    +0.000 A 
BRANCH  17  20
ATOM     20  N   UNL     1      -2.072  12.608  23.152  0.00  0.00    +0.000 N 
ATOM     21  C   UNL     1      -3.404  12.361  23.688  0.00  0.00    +0.000 C 
ATOM     22  C   UNL     1      -1.416  13.825  23.619  0.00  0.00    +0.000 C 
ENDBRANCH  17  20
BRANCH  18  23
ATOM     23  O   UNL     1      -1.674  12.620  20.328  0.00  0.00    +0.000 OA
ATOM     24  C   UNL     1      -2.742  12.247  19.468  0.00  0.00    +0.000 C 
ENDBRANCH  18  23
ENDBRANCH   2  14
TORSDOF 5
ENDMDL
