MODEL 1
REMARK VINA RESULT:      -7.5      0.000      0.000
REMARK  Name = 
REMARK  10 active torsions:
REMARK  status: ('A' for Active; 'I' for Inactive)
REMARK    1  A    between atoms: C_1  and  C_2
REMARK    2  A    between atoms: N_4  and  C_5
REMARK    3  A    between atoms: C_5  and  C_6
REMARK    4  A    between atoms: C_5  and  C_7
REMARK    5  A    between atoms: C_7  and  C_8
REMARK    6  A    between atoms: C_11  and  C_12
REMARK    7  A    between atoms: C_13  and  C_14
REMARK    8  A    between atoms: N_19  and  C_20
REMARK    9  A    between atoms: C_20  and  C_21
REMARK   10  A    between atoms: C_20  and  C_22
REMARK                            x       y       z     vdW  Elec       q    Type
REMARK                         _______ _______ _______ _____ _____    ______ ____
ROOT
ATOM      1  C   UNL     1       5.926   5.113  17.189  0.00  0.00    +0.000 A 
ATOM      2  C   UNL     1       6.989   4.904  18.079  0.00  0.00    +0.000 A 
ATOM      3  C   UNL     1       7.803   5.968  18.484  0.00  0.00    +0.000 A 
ATOM      4  C   UNL     1       7.571   7.252  17.994  0.00  0.00    +0.000 A 
ATOM      5  C   UNL     1       6.555   7.460  17.061  0.00  0.00    +0.000 A 
ATOM      6  C   UNL     1       5.739   6.397  16.656  0.00  0.00    +0.000 A 
ENDROOT
BRANCH   4   7
ATOM      7  C   UNL     1       8.328   8.365  18.489  0.00  0.00    +0.000 C 
ATOM      8  C   UNL     1       8.890   9.329  18.934  0.00  0.00    +0.000 C 
BRANCH   8   9
ATOM      9  C   UNL     1       9.485  10.520  19.463  0.00  0.00    +0.000 A 
ATOM     10  C   UNL     1      10.510  11.142  18.796  0.00  0.00    +0.000 A 
ATOM     11  C   UNL     1      10.961  12.294  19.381  0.00  0.00    +0.000 A 
ATOM     12  N   UNL     1      10.447  12.796  20.519  0.00  0.00    +0.000 NA
ATOM     13  C   UNL     1       9.441  12.119  21.089  0.00  0.00    +0.000 A 
ATOM     14  N   UNL     1       8.912  12.708  22.222  0.00  0.00    +0.000 N 
ATOM     15  N   UNL     1       8.939  10.977  20.605  0.00  0.00    +0.000 NA
ATOM     16  H   UNL     1       9.563  13.417  22.538  0.00  0.00    +0.000 HD
BRANCH  14  17
ATOM     17  C   UNL     1       8.318  11.859  23.241  0.00  0.00    +0.000 C 
ATOM     18  C   UNL     1       8.792  12.275  24.632  0.00  0.00    +0.000 C 
ATOM     19  C   UNL     1       6.798  11.999  23.144  0.00  0.00    +0.000 C 
ENDBRANCH  14  17
ENDBRANCH   8   9
ENDBRANCH   4   7
BRANCH   1  20
ATOM     20  C   UNL     1       4.984   3.985  16.819  0.00  0.00    +0.000 C 
BRANCH  20  21
ATOM     21  C   UNL     1       4.178   3.425  18.013  0.00  0.00    +0.000 C 
ATOM     22  C   UNL     1       3.309   2.248  17.570  0.00  0.00    +0.000 C 
BRANCH  21  26
ATOM     23  C   UNL     1       1.987   5.442  20.369  0.00  0.00    +0.000 C 
ATOM     24  C   UNL     1       2.866   4.306  19.922  0.00  0.00    +0.000 C 
ATOM     25  O   UNL     1       3.131   3.355  20.650  0.00  0.00    +0.000 OA
ATOM     26  N   UNL     1       3.339   4.447  18.636  0.00  0.00    +0.000 N 
ATOM     27  H   UNL     1       2.989   5.206  18.067  0.00  0.00    +0.000 HD
ENDBRANCH  21  26
ENDBRANCH  20  21
ENDBRANCH   1  20
TORSDOF 6
ENDMDL
MODEL 2
REMARK VINA RESULT:      -7.4      3.605      9.432
REMARK  Name = 
REMARK  10 active torsions:
REMARK  status: ('A' for Active; 'I' for Inactive)
REMARK    1  A    between atoms: C_1  and  C_2
REMARK    2  A    between atoms: N_4  and  C_5
REMARK    3  A    between atoms: C_5  and  C_6
REMARK    4  A    between atoms: C_5  and  C_7
REMARK    5  A    between atoms: C_7  and  C_8
REMARK    6  A    between atoms: C_11  and  C_12
REMARK    7  A    between atoms: C_13  and  C_14
REMARK    8  A    between atoms: N_19  and  C_20
REMARK    9  A    between atoms: C_20  and  C_21
REMARK   10  A    between atoms: C_20  and  C_22
REMARK                            x       y       z     vdW  Elec       q    Type
REMARK                         _______ _______ _______ _____ _____    ______ ____
ROOT
ATOM      1  C   UNL     1       9.652  12.376  19.319  0.00  0.00    +0.000 A 
ATOM      2  C   UNL     1       8.995  12.315  18.081  0.00  0.00    +0.000 A 
ATOM      3  C   UNL     1       8.502  11.100  17.593  0.00  0.00    +0.000 A 
ATOM      4  C   UNL     1       8.671   9.928  18.329  0.00  0.00    +0.000 A 
ATOM      5  C   UNL     1       9.377   9.968  19.533  0.00  0.00    +0.000 A 
ATOM      6  C   UNL     1       9.869  11.183  20.024  0.00  0.00    +0.000 A 
ENDROOT
BRANCH   4   7
ATOM      7  C   UNL     1       8.072   8.703  17.890  0.00  0.00    +0.000 C 
ATOM      8  C   UNL     1       7.525   7.674  17.593  0.00  0.00    +0.000 C 
BRANCH   8   9
ATOM      9  C   UNL     1       6.856   6.438  17.322  0.00  0.00    +0.000 A 
ATOM     10  C   UNL     1       7.289   5.620  16.308  0.00  0.00    +0.000 A 
ATOM     11  C   UNL     1       6.595   4.446  16.181  0.00  0.00    +0.000 A 
ATOM     12  N   UNL     1       5.570   4.103  16.981  0.00  0.00    +0.000 NA
ATOM     13  C   UNL     1       5.229   4.967  17.948  0.00  0.00    +0.000 A 
ATOM     14  N   UNL     1       4.209   4.539  18.777  0.00  0.00    +0.000 N 
ATOM     15  N   UNL     1       5.835   6.143  18.146  0.00  0.00    +0.000 NA
ATOM     16  H   UNL     1       3.751   3.754  18.328  0.00  0.00    +0.000 HD
BRANCH  14  17
ATOM     17  C   UNL     1       3.352   5.532  19.402  0.00  0.00    +0.000 C 
ATOM     18  C   UNL     1       2.418   6.164  18.371  0.00  0.00    +0.000 C 
ATOM     19  C   UNL     1       2.532   4.831  20.487  0.00  0.00    +0.000 C 
ENDBRANCH  14  17
ENDBRANCH   8   9
ENDBRANCH   4   7
BRANCH   1  20
ATOM     20  C   UNL     1      10.105  13.701  19.897  0.00  0.00    +0.000 C 
BRANCH  20  21
ATOM     21  C   UNL     1      10.082  14.867  18.883  0.00  0.00    +0.000 C 
ATOM     22  C   UNL     1      11.463  15.516  18.778  0.00  0.00    +0.000 C 
BRANCH  21  26
ATOM     23  C   UNL     1       7.063  17.167  18.992  0.00  0.00    +0.000 C 
ATOM     24  C   UNL     1       7.937  16.047  18.498  0.00  0.00    +0.000 C 
ATOM     25  O   UNL     1       7.633  15.353  17.534  0.00  0.00    +0.000 OA
ATOM     26  N   UNL     1       9.090  15.880  19.234  0.00  0.00    +0.000 N 
ATOM     27  H   UNL     1       9.316  16.560  19.947  0.00  0.00    +0.000 HD
ENDBRANCH  21  26
ENDBRANCH  20  21
ENDBRANCH   1  20
TORSDOF 6
ENDMDL
MODEL 3
REMARK VINA RESULT:      -7.4      5.907      9.126
REMARK  Name = 
REMARK  10 active torsions:
REMARK  status: ('A' for Active; 'I' for Inactive)
REMARK    1  A    between atoms: C_1  and  C_2
REMARK    2  A    between atoms: N_4  and  C_5
REMARK    3  A    between atoms: C_5  and  C_6
REMARK    4  A    between atoms: C_5  and  C_7
REMARK    5  A    between atoms: C_7  and  C_8
REMARK    6  A    between atoms: C_11  and  C_12
REMARK    7  A    between atoms: C_13  and  C_14
REMARK    8  A    between atoms: N_19  and  C_20
REMARK    9  A    between atoms: C_20  and  C_21
REMARK   10  A    between atoms: C_20  and  C_22
REMARK                            x       y       z     vdW  Elec       q    Type
REMARK                         _______ _______ _______ _____ _____    ______ ____
ROOT
ATOM      1  C   UNL     1       0.274   9.702  19.105  0.00  0.00    +0.000 A 
ATOM      2  C   UNL     1       0.844   9.757  17.824  0.00  0.00    +0.000 A 
ATOM      3  C   UNL     1       1.945   8.957  17.497  0.00  0.00    +0.000 A 
ATOM      4  C   UNL     1       2.498   8.102  18.449  0.00  0.00    +0.000 A 
ATOM      5  C   UNL     1       1.977   8.086  19.744  0.00  0.00    +0.000 A 
ATOM      6  C   UNL     1       0.875   8.884  20.073  0.00  0.00    +0.000 A 
ENDROOT
BRANCH   4   7
ATOM      7  C   UNL     1       3.552   7.200  18.089  0.00  0.00    +0.000 C 
ATOM      8  C   UNL     1       4.490   6.499  17.820  0.00  0.00    +0.000 C 
BRANCH   8   9
ATOM      9  C   UNL     1       5.658   5.733  17.506  0.00  0.00    +0.000 A 
ATOM     10  C   UNL     1       6.622   5.511  18.458  0.00  0.00    +0.000 A 
ATOM     11  C   UNL     1       7.666   4.727  18.047  0.00  0.00    +0.000 A 
ATOM     12  N   UNL     1       7.754   4.201  16.812  0.00  0.00    +0.000 NA
ATOM     13  C   UNL     1       6.757   4.468  15.957  0.00  0.00    +0.000 A 
ATOM     14  N   UNL     1       6.868   3.857  14.723  0.00  0.00    +0.000 N 
ATOM     15  N   UNL     1       5.701   5.234  16.257  0.00  0.00    +0.000 NA
ATOM     16  H   UNL     1       7.820   3.522  14.625  0.00  0.00    +0.000 HD
BRANCH  14  17
ATOM     17  C   UNL     1       6.275   4.503  13.564  0.00  0.00    +0.000 C 
ATOM     18  C   UNL     1       7.361   5.051  12.639  0.00  0.00    +0.000 C 
ATOM     19  C   UNL     1       5.435   3.463  12.822  0.00  0.00    +0.000 C 
ENDBRANCH  14  17
ENDBRANCH   8   9
ENDBRANCH   4   7
BRANCH   1  20
ATOM     20  C   UNL     1      -0.973  10.495  19.438  0.00  0.00    +0.000 C 
BRANCH  20  21
ATOM     21  C   UNL     1      -1.203  11.715  18.518  0.00  0.00    +0.000 C 
ATOM     22  C   UNL     1      -0.781  13.006  19.222  0.00  0.00    +0.000 C 
BRANCH  21  26
ATOM     23  C   UNL     1      -4.497  11.479  16.643  0.00  0.00    +0.000 C 
ATOM     24  C   UNL     1      -3.045  11.216  16.936  0.00  0.00    +0.000 C 
ATOM     25  O   UNL     1      -2.344  10.518  16.212  0.00  0.00    +0.000 OA
ATOM     26  N   UNL     1      -2.596  11.824  18.089  0.00  0.00    +0.000 N 
ATOM     27  H   UNL     1      -3.208  12.467  18.572  0.00  0.00    +0.000 HD
ENDBRANCH  21  26
ENDBRANCH  20  21
ENDBRANCH   1  20
TORSDOF 6
ENDMDL
MODEL 4
REMARK VINA RESULT:      -7.4      2.559      2.771
REMARK  Name = 
REMARK  10 active torsions:
REMARK  status: ('A' for Active; 'I' for Inactive)
REMARK    1  A    between atoms: C_1  and  C_2
REMARK    2  A    between atoms: N_4  and  C_5
REMARK    3  A    between atoms: C_5  and  C_6
REMARK    4  A    between atoms: C_5  and  C_7
REMARK    5  A    between atoms: C_7  and  C_8
REMARK    6  A    between atoms: C_11  and  C_12
REMARK    7  A    between atoms: C_13  and  C_14
REMARK    8  A    between atoms: N_19  and  C_20
REMARK    9  A    between atoms: C_20  and  C_21
REMARK   10  A    between atoms: C_20  and  C_22
REMARK                            x       y       z     vdW  Elec       q    Type
REMARK                         _______ _______ _______ _____ _____    ______ ____
ROOT
ATOM      1  C   UNL     1       6.067   5.298  17.795  0.00  0.00    +0.000 A 
ATOM      2  C   UNL     1       7.084   5.427  18.751  0.00  0.00    +0.000 A 
ATOM      3  C   UNL     1       7.857   6.592  18.821  0.00  0.00    +0.000 A 
ATOM      4  C   UNL     1       7.631   7.637  17.926  0.00  0.00    +0.000 A 
ATOM      5  C   UNL     1       6.662   7.494  16.931  0.00  0.00    +0.000 A 
ATOM      6  C   UNL     1       5.888   6.330  16.862  0.00  0.00    +0.000 A 
ENDROOT
BRANCH   4   7
ATOM      7  C   UNL     1       8.340   8.875  18.063  0.00  0.00    +0.000 C 
ATOM      8  C   UNL     1       8.895   9.940  18.109  0.00  0.00    +0.000 C 
BRANCH   8   9
ATOM      9  C   UNL     1       9.535  11.221  18.081  0.00  0.00    +0.000 A 
ATOM     10  C   UNL     1      10.897  11.315  17.934  0.00  0.00    +0.000 A 
ATOM     11  C   UNL     1      11.382  12.594  17.876  0.00  0.00    +0.000 A 
ATOM     12  N   UNL     1      10.599  13.686  17.951  0.00  0.00    +0.000 NA
ATOM     13  C   UNL     1       9.280  13.488  18.084  0.00  0.00    +0.000 A 
ATOM     14  N   UNL     1       8.516  14.640  18.097  0.00  0.00    +0.000 N 
ATOM     15  N   UNL     1       8.709  12.280  18.164  0.00  0.00    +0.000 NA
ATOM     16  H   UNL     1       9.139  15.425  18.253  0.00  0.00    +0.000 HD
BRANCH  14  17
ATOM     17  C   UNL     1       7.261  14.641  18.828  0.00  0.00    +0.000 C 
ATOM     18  C   UNL     1       7.194  15.831  19.782  0.00  0.00    +0.000 C 
ATOM     19  C   UNL     1       6.123  14.725  17.809  0.00  0.00    +0.000 C 
ENDBRANCH  14  17
ENDBRANCH   8   9
ENDBRANCH   4   7
BRANCH   1  20
ATOM     20  C   UNL     1       5.166   4.080  17.773  0.00  0.00    +0.000 C 
BRANCH  20  21
ATOM     21  C   UNL     1       3.762   4.329  18.370  0.00  0.00    +0.000 C 
ATOM     22  C   UNL     1       3.475   5.828  18.460  0.00  0.00    +0.000 C 
BRANCH  21  26
ATOM     23  C   UNL     1       2.429   2.707  21.534  0.00  0.00    +0.000 C 
ATOM     24  C   UNL     1       2.390   3.262  20.136  0.00  0.00    +0.000 C 
ATOM     25  O   UNL     1       1.361   3.290  19.469  0.00  0.00    +0.000 OA
ATOM     26  N   UNL     1       3.610   3.720  19.689  0.00  0.00    +0.000 N 
ATOM     27  H   UNL     1       4.385   3.757  20.338  0.00  0.00    +0.000 HD
ENDBRANCH  21  26
ENDBRANCH  20  21
ENDBRANCH   1  20
TORSDOF 6
ENDMDL
MODEL 5
REMARK VINA RESULT:      -7.4      5.984      9.823
REMARK  Name = 
REMARK  10 active torsions:
REMARK  status: ('A' for Active; 'I' for Inactive)
REMARK    1  A    between atoms: C_1  and  C_2
REMARK    2  A    between atoms: N_4  and  C_5
REMARK    3  A    between atoms: C_5  and  C_6
REMARK    4  A    between atoms: C_5  and  C_7
REMARK    5  A    between atoms: C_7  and  C_8
REMARK    6  A    between atoms: C_11  and  C_12
REMARK    7  A    between atoms: C_13  and  C_14
REMARK    8  A    between atoms: N_19  and  C_20
REMARK    9  A    between atoms: C_20  and  C_21
REMARK   10  A    between atoms: C_20  and  C_22
REMARK                            x       y       z     vdW  Elec       q    Type
REMARK                         _______ _______ _______ _____ _____    ______ ____
ROOT
ATOM      1  C   UNL     1      -0.406  10.729  20.991  0.00  0.00    +0.000 A 
ATOM      2  C   UNL     1       0.211  10.460  19.760  0.00  0.00    +0.000 A 
ATOM      3  C   UNL     1       0.989   9.310  19.587  0.00  0.00    +0.000 A 
ATOM      4  C   UNL     1       1.171   8.421  20.645  0.00  0.00    +0.000 A 
ATOM      5  C   UNL     1       0.612   8.711  21.891  0.00  0.00    +0.000 A 
ATOM      6  C   UNL     1      -0.168   9.861  22.065  0.00  0.00    +0.000 A 
ENDROOT
BRANCH   4   7
ATOM      7  C   UNL     1       1.872   7.187  20.444  0.00  0.00    +0.000 C 
ATOM      8  C   UNL     1       2.421   6.147  20.201  0.00  0.00    +0.000 C 
BRANCH   8   9
ATOM      9  C   UNL     1       3.014   4.890  19.853  0.00  0.00    +0.000 A 
ATOM     10  C   UNL     1       2.669   3.747  20.530  0.00  0.00    +0.000 A 
ATOM     11  C   UNL     1       3.270   2.605  20.073  0.00  0.00    +0.000 A 
ATOM     12  N   UNL     1       4.131   2.585  19.039  0.00  0.00    +0.000 NA
ATOM     13  C   UNL     1       4.396   3.754  18.438  0.00  0.00    +0.000 A 
ATOM     14  N   UNL     1       5.240   3.669  17.346  0.00  0.00    +0.000 N 
ATOM     15  N   UNL     1       3.872   4.925  18.817  0.00  0.00    +0.000 NA
ATOM     16  H   UNL     1       5.690   2.761  17.371  0.00  0.00    +0.000 HD
BRANCH  14  17
ATOM     17  C   UNL     1       6.076   4.810  17.016  0.00  0.00    +0.000 C 
ATOM     18  C   UNL     1       7.516   4.570  17.465  0.00  0.00    +0.000 C 
ATOM     19  C   UNL     1       6.028   5.006  15.500  0.00  0.00    +0.000 C 
ENDBRANCH  14  17
ENDBRANCH   8   9
ENDBRANCH   4   7
BRANCH   1  20
ATOM     20  C   UNL     1      -1.324  11.922  21.158  0.00  0.00    +0.000 C 
BRANCH  20  21
ATOM     21  C   UNL     1      -1.601  12.689  19.845  0.00  0.00    +0.000 C 
ATOM     22  C   UNL     1      -1.160  14.148  19.971  0.00  0.00    +0.000 C 
BRANCH  21  26
ATOM     23  C   UNL     1      -4.944  11.843  18.256  0.00  0.00    +0.000 C 
ATOM     24  C   UNL     1      -3.474  11.714  18.548  0.00  0.00    +0.000 C 
ATOM     25  O   UNL     1      -2.772  10.860  18.018  0.00  0.00    +0.000 OA
ATOM     26  N   UNL     1      -3.010  12.634  19.463  0.00  0.00    +0.000 N 
ATOM     27  H   UNL     1      -3.631  13.369  19.773  0.00  0.00    +0.000 HD
ENDBRANCH  21  26
ENDBRANCH  20  21
ENDBRANCH   1  20
TORSDOF 6
ENDMDL
MODEL 6
REMARK VINA RESULT:      -7.3      3.354      9.232
REMARK  Name = 
REMARK  10 active torsions:
REMARK  status: ('A' for Active; 'I' for Inactive)
REMARK    1  A    between atoms: C_1  and  C_2
REMARK    2  A    between atoms: N_4  and  C_5
REMARK    3  A    between atoms: C_5  and  C_6
REMARK    4  A    between atoms: C_5  and  C_7
REMARK    5  A    between atoms: C_7  and  C_8
REMARK    6  A    between atoms: C_11  and  C_12
REMARK    7  A    between atoms: C_13  and  C_14
REMARK    8  A    between atoms: N_19  and  C_20
REMARK    9  A    between atoms: C_20  and  C_21
REMARK   10  A    between atoms: C_20  and  C_22
REMARK                            x       y       z     vdW  Elec       q    Type
REMARK                         _______ _______ _______ _____ _____    ______ ____
ROOT
ATOM      1  C   UNL     1      10.347  12.036  19.392  0.00  0.00    +0.000 A 
ATOM      2  C   UNL     1       9.802  11.118  20.302  0.00  0.00    +0.000 A 
ATOM      3  C   UNL     1       9.075  10.011  19.851  0.00  0.00    +0.000 A 
ATOM      4  C   UNL     1       8.872   9.814  18.486  0.00  0.00    +0.000 A 
ATOM      5  C   UNL     1       9.358  10.755  17.576  0.00  0.00    +0.000 A 
ATOM      6  C   UNL     1      10.087  11.862  18.025  0.00  0.00    +0.000 A 
ENDROOT
BRANCH   4   7
ATOM      7  C   UNL     1       8.226   8.626  18.012  0.00  0.00    +0.000 C 
ATOM      8  C   UNL     1       7.625   7.642  17.673  0.00  0.00    +0.000 C 
BRANCH   8   9
ATOM      9  C   UNL     1       6.869   6.471  17.345  0.00  0.00    +0.000 A 
ATOM     10  C   UNL     1       7.242   5.674  16.291  0.00  0.00    +0.000 A 
ATOM     11  C   UNL     1       6.466   4.561  16.110  0.00  0.00    +0.000 A 
ATOM     12  N   UNL     1       5.419   4.253  16.896  0.00  0.00    +0.000 NA
ATOM     13  C   UNL     1       5.142   5.090  17.906  0.00  0.00    +0.000 A 
ATOM     14  N   UNL     1       4.095   4.697  18.717  0.00  0.00    +0.000 N 
ATOM     15  N   UNL     1       5.830   6.210  18.159  0.00  0.00    +0.000 NA
ATOM     16  H   UNL     1       3.581   3.969  18.233  0.00  0.00    +0.000 HD
BRANCH  14  17
ATOM     17  C   UNL     1       3.311   5.716  19.394  0.00  0.00    +0.000 C 
ATOM     18  C   UNL     1       2.453   6.488  18.393  0.00  0.00    +0.000 C 
ATOM     19  C   UNL     1       2.415   5.019  20.419  0.00  0.00    +0.000 C 
ENDBRANCH  14  17
ENDBRANCH   8   9
ENDBRANCH   4   7
BRANCH   1  20
ATOM     20  C   UNL     1      11.213  13.185  19.868  0.00  0.00    +0.000 C 
BRANCH  20  21
ATOM     21  C   UNL     1      10.720  14.574  19.406  0.00  0.00    +0.000 C 
ATOM     22  C   UNL     1      11.769  15.645  19.705  0.00  0.00    +0.000 C 
BRANCH  21  26
ATOM     23  C   UNL     1       7.103  15.492  20.112  0.00  0.00    +0.000 C 
ATOM     24  C   UNL     1       8.293  15.067  19.296  0.00  0.00    +0.000 C 
ATOM     25  O   UNL     1       8.219  14.848  18.092  0.00  0.00    +0.000 OA
ATOM     26  N   UNL     1       9.451  14.942  20.032  0.00  0.00    +0.000 N 
ATOM     27  H   UNL     1       9.451  15.242  20.997  0.00  0.00    +0.000 HD
ENDBRANCH  21  26
ENDBRANCH  20  21
ENDBRANCH   1  20
TORSDOF 6
ENDMDL
MODEL 7
REMARK VINA RESULT:      -7.2      6.079      9.924
REMARK  Name = 
REMARK  10 active torsions:
REMARK  status: ('A' for Active; 'I' for Inactive)
REMARK    1  A    between atoms: C_1  and  C_2
REMARK    2  A    between atoms: N_4  and  C_5
REMARK    3  A    between atoms: C_5  and  C_6
REMARK    4  A    between atoms: C_5  and  C_7
REMARK    5  A    between atoms: C_7  and  C_8
REMARK    6  A    between atoms: C_11  and  C_12
REMARK    7  A    between atoms: C_13  and  C_14
REMARK    8  A    between atoms: N_19  and  C_20
REMARK    9  A    between atoms: C_20  and  C_21
REMARK   10  A    between atoms: C_20  and  C_22
REMARK                            x       y       z     vdW  Elec       q    Type
REMARK                         _______ _______ _______ _____ _____    ______ ____
ROOT
ATOM      1  C   UNL     1      -0.382  11.258  19.905  0.00  0.00    +0.000 A 
ATOM      2  C   UNL     1       0.504  11.068  18.834  0.00  0.00    +0.000 A 
ATOM      3  C   UNL     1       1.292   9.914  18.754  0.00  0.00    +0.000 A 
ATOM      4  C   UNL     1       1.213   8.942  19.750  0.00  0.00    +0.000 A 
ATOM      5  C   UNL     1       0.380   9.150  20.851  0.00  0.00    +0.000 A 
ATOM      6  C   UNL     1      -0.410  10.304  20.931  0.00  0.00    +0.000 A 
ENDROOT
BRANCH   4   7
ATOM      7  C   UNL     1       1.932   7.709  19.618  0.00  0.00    +0.000 C 
ATOM      8  C   UNL     1       2.478   6.640  19.559  0.00  0.00    +0.000 C 
BRANCH   8   9
ATOM      9  C   UNL     1       3.088   5.345  19.561  0.00  0.00    +0.000 A 
ATOM     10  C   UNL     1       2.707   4.398  20.479  0.00  0.00    +0.000 A 
ATOM     11  C   UNL     1       3.331   3.186  20.347  0.00  0.00    +0.000 A 
ATOM     12  N   UNL     1       4.245   2.925  19.395  0.00  0.00    +0.000 NA
ATOM     13  C   UNL     1       4.542   3.914  18.540  0.00  0.00    +0.000 A 
ATOM     14  N   UNL     1       5.442   3.575  17.548  0.00  0.00    +0.000 N 
ATOM     15  N   UNL     1       3.999   5.136  18.593  0.00  0.00    +0.000 NA
ATOM     16  H   UNL     1       5.891   2.707  17.817  0.00  0.00    +0.000 HD
BRANCH  14  17
ATOM     17  C   UNL     1       6.295   4.611  16.992  0.00  0.00    +0.000 C 
ATOM     18  C   UNL     1       7.620   4.683  17.749  0.00  0.00    +0.000 C 
ATOM     19  C   UNL     1       6.553   4.272  15.523  0.00  0.00    +0.000 C 
ENDBRANCH  14  17
ENDBRANCH   8   9
ENDBRANCH   4   7
BRANCH   1  20
ATOM     20  C   UNL     1      -1.305  12.459  19.950  0.00  0.00    +0.000 C 
BRANCH  20  21
ATOM     21  C   UNL     1      -2.800  12.107  19.779  0.00  0.00    +0.000 C 
ATOM     22  C   UNL     1      -3.073  11.591  18.366  0.00  0.00    +0.000 C 
BRANCH  21  26
ATOM     23  C   UNL     1      -5.342  14.510  21.256  0.00  0.00    +0.000 C 
ATOM     24  C   UNL     1      -4.498  13.269  21.162  0.00  0.00    +0.000 C 
ATOM     25  O   UNL     1      -4.549  12.374  21.999  0.00  0.00    +0.000 OA
ATOM     26  N   UNL     1      -3.668  13.248  20.061  0.00  0.00    +0.000 N 
ATOM     27  H   UNL     1      -3.763  13.975  19.365  0.00  0.00    +0.000 HD
ENDBRANCH  21  26
ENDBRANCH  20  21
ENDBRANCH   1  20
TORSDOF 6
ENDMDL
MODEL 8
REMARK VINA RESULT:      -7.2      2.544      3.309
REMARK  Name = 
REMARK  10 active torsions:
REMARK  status: ('A' for Active; 'I' for Inactive)
REMARK    1  A    between atoms: C_1  and  C_2
REMARK    2  A    between atoms: N_4  and  C_5
REMARK    3  A    between atoms: C_5  and  C_6
REMARK    4  A    between atoms: C_5  and  C_7
REMARK    5  A    between atoms: C_7  and  C_8
REMARK    6  A    between atoms: C_11  and  C_12
REMARK    7  A    between atoms: C_13  and  C_14
REMARK    8  A    between atoms: N_19  and  C_20
REMARK    9  A    between atoms: C_20  and  C_21
REMARK   10  A    between atoms: C_20  and  C_22
REMARK                            x       y       z     vdW  Elec       q    Type
REMARK                         _______ _______ _______ _____ _____    ______ ____
ROOT
ATOM      1  C   UNL     1       6.633   5.849  18.036  0.00  0.00    +0.000 A 
ATOM      2  C   UNL     1       7.741   5.983  18.885  0.00  0.00    +0.000 A 
ATOM      3  C   UNL     1       8.450   7.188  18.950  0.00  0.00    +0.000 A 
ATOM      4  C   UNL     1       8.069   8.269  18.156  0.00  0.00    +0.000 A 
ATOM      5  C   UNL     1       7.007   8.126  17.263  0.00  0.00    +0.000 A 
ATOM      6  C   UNL     1       6.295   6.922  17.198  0.00  0.00    +0.000 A 
ENDROOT
BRANCH   4   7
ATOM      7  C   UNL     1       8.720   9.538  18.299  0.00  0.00    +0.000 C 
ATOM      8  C   UNL     1       9.216  10.631  18.357  0.00  0.00    +0.000 C 
BRANCH   8   9
ATOM      9  C   UNL     1       9.778  11.948  18.347  0.00  0.00    +0.000 A 
ATOM     10  C   UNL     1      10.816  12.255  17.503  0.00  0.00    +0.000 A 
ATOM     11  C   UNL     1      11.233  13.558  17.556  0.00  0.00    +0.000 A 
ATOM     12  N   UNL     1      10.676  14.481  18.361  0.00  0.00    +0.000 NA
ATOM     13  C   UNL     1       9.661  14.083  19.141  0.00  0.00    +0.000 A 
ATOM     14  N   UNL     1       9.087  15.082  19.904  0.00  0.00    +0.000 N 
ATOM     15  N   UNL     1       9.189  12.831  19.173  0.00  0.00    +0.000 NA
ATOM     16  H   UNL     1       9.719  15.875  19.906  0.00  0.00    +0.000 HD
BRANCH  14  17
ATOM     17  C   UNL     1       8.472  14.729  21.172  0.00  0.00    +0.000 C 
ATOM     18  C   UNL     1       9.510  14.723  22.292  0.00  0.00    +0.000 C 
ATOM     19  C   UNL     1       7.387  15.765  21.474  0.00  0.00    +0.000 C 
ENDBRANCH  14  17
ENDBRANCH   8   9
ENDBRANCH   4   7
BRANCH   1  20
ATOM     20  C   UNL     1       5.804   4.581  18.029  0.00  0.00    +0.000 C 
BRANCH  20  21
ATOM     21  C   UNL     1       4.774   4.511  16.879  0.00  0.00    +0.000 C 
ATOM     22  C   UNL     1       3.506   3.790  17.335  0.00  0.00    +0.000 C 
BRANCH  21  26
ATOM     23  C   UNL     1       6.161   3.691  13.440  0.00  0.00    +0.000 C 
ATOM     24  C   UNL     1       5.661   4.556  14.565  0.00  0.00    +0.000 C 
ATOM     25  O   UNL     1       5.581   5.776  14.470  0.00  0.00    +0.000 OA
ATOM     26  N   UNL     1       5.316   3.848  15.695  0.00  0.00    +0.000 N 
ATOM     27  H   UNL     1       5.312   2.837  15.656  0.00  0.00    +0.000 HD
ENDBRANCH  21  26
ENDBRANCH  20  21
ENDBRANCH   1  20
TORSDOF 6
ENDMDL
MODEL 9
REMARK VINA RESULT:      -7.2      5.785      8.494
REMARK  Name = 
REMARK  10 active torsions:
REMARK  status: ('A' for Active; 'I' for Inactive)
REMARK    1  A    between atoms: C_1  and  C_2
REMARK    2  A    between atoms: N_4  and  C_5
REMARK    3  A    between atoms: C_5  and  C_6
REMARK    4  A    between atoms: C_5  and  C_7
REMARK    5  A    between atoms: C_7  and  C_8
REMARK    6  A    between atoms: C_11  and  C_12
REMARK    7  A    between atoms: C_13  and  C_14
REMARK    8  A    between atoms: N_19  and  C_20
REMARK    9  A    between atoms: C_20  and  C_21
REMARK   10  A    between atoms: C_20  and  C_22
REMARK                            x       y       z     vdW  Elec       q    Type
REMARK                         _______ _______ _______ _____ _____    ______ ____
ROOT
ATOM      1  C   UNL     1       4.469   5.225  17.102  0.00  0.00    +0.000 A 
ATOM      2  C   UNL     1       3.357   5.049  17.939  0.00  0.00    +0.000 A 
ATOM      3  C   UNL     1       2.543   6.134  18.284  0.00  0.00    +0.000 A 
ATOM      4  C   UNL     1       2.839   7.410  17.809  0.00  0.00    +0.000 A 
ATOM      5  C   UNL     1       3.979   7.607  17.027  0.00  0.00    +0.000 A 
ATOM      6  C   UNL     1       4.792   6.522  16.679  0.00  0.00    +0.000 A 
ENDROOT
BRANCH   4   7
ATOM      7  C   UNL     1       1.949   8.504  18.066  0.00  0.00    +0.000 C 
ATOM      8  C   UNL     1       1.243   9.433  18.354  0.00  0.00    +0.000 C 
BRANCH   8   9
ATOM      9  C   UNL     1       0.425  10.528  18.780  0.00  0.00    +0.000 A 
ATOM     10  C   UNL     1       0.839  11.351  19.799  0.00  0.00    +0.000 A 
ATOM     11  C   UNL     1      -0.010  12.387  20.081  0.00  0.00    +0.000 A 
ATOM     12  N   UNL     1      -1.162  12.601  19.418  0.00  0.00    +0.000 NA
ATOM     13  C   UNL     1      -1.472  11.747  18.433  0.00  0.00    +0.000 A 
ATOM     14  N   UNL     1      -2.634  12.046  17.747  0.00  0.00    +0.000 N 
ATOM     15  N   UNL     1      -0.717  10.696  18.090  0.00  0.00    +0.000 NA
ATOM     16  H   UNL     1      -3.155  12.721  18.296  0.00  0.00    +0.000 HD
BRANCH  14  17
ATOM     17  C   UNL     1      -3.392  10.962  17.146  0.00  0.00    +0.000 C 
ATOM     18  C   UNL     1      -4.876  11.090  17.483  0.00  0.00    +0.000 C 
ATOM     19  C   UNL     1      -3.194  11.032  15.631  0.00  0.00    +0.000 C 
ENDBRANCH  14  17
ENDBRANCH   8   9
ENDBRANCH   4   7
BRANCH   1  20
ATOM     20  C   UNL     1       5.299   4.041  16.649  0.00  0.00    +0.000 C 
BRANCH  20  21
ATOM     21  C   UNL     1       6.824   4.269  16.753  0.00  0.00    +0.000 C 
ATOM     22  C   UNL     1       7.168   5.031  18.033  0.00  0.00    +0.000 C 
BRANCH  21  26
ATOM     23  C   UNL     1       7.753   5.427  13.257  0.00  0.00    +0.000 C 
ATOM     24  C   UNL     1       7.089   4.579  14.308  0.00  0.00    +0.000 C 
ATOM     25  O   UNL     1       6.378   3.620  14.026  0.00  0.00    +0.000 OA
ATOM     26  N   UNL     1       7.351   4.991  15.596  0.00  0.00    +0.000 N 
ATOM     27  H   UNL     1       8.030   5.725  15.745  0.00  0.00    +0.000 HD
ENDBRANCH  21  26
ENDBRANCH  20  21
ENDBRANCH   1  20
TORSDOF 6
ENDMDL
