MODEL 1
REMARK VINA RESULT:      -8.2      0.000      0.000
REMARK  Name = 
REMARK  7 active torsions:
REMARK  status: ('A' for Active; 'I' for Inactive)
REMARK    1  A    between atoms: N_1  and  C_2
REMARK    2  A    between atoms: C_2  and  C_3
REMARK    3  A    between atoms: C_2  and  C_10
REMARK    4  A    between atoms: C_3  and  C_4
REMARK    5  A    between atoms: N_12  and  C_13
REMARK    6  A    between atoms: C_19  and  C_20
REMARK    7  A    between atoms: C_20  and  C_22
REMARK                            x       y       z     vdW  Elec       q    Type
REMARK                         _______ _______ _______ _____ _____    ______ ____
ROOT
ATOM      1  C   UNL     1       2.263   7.811  18.839  0.00  0.00    +0.000 C 
ATOM      2  O   UNL     1       1.911   8.236  17.739  0.00  0.00    +0.000 OA
ATOM      3  N   UNL     1       3.134   6.749  19.033  0.00  0.00    +0.000 N 
ATOM      4  H   UNL     1       3.016   6.244  19.905  0.00  0.00    +0.000 HD
ENDROOT
BRANCH   3   5
ATOM      5  C   UNL     1       3.753   6.075  17.956  0.00  0.00    +0.000 A 
ATOM      6  C   UNL     1       4.856   6.687  17.337  0.00  0.00    +0.000 A 
ATOM      7  C   UNL     1       5.593   6.021  16.356  0.00  0.00    +0.000 A 
ATOM      8  C   UNL     1       5.220   4.740  15.974  0.00  0.00    +0.000 A 
ATOM      9 CL   UNL     1       6.143   3.908  14.782  0.00  0.00    +0.000 Cl
ATOM     10  C   UNL     1       4.113   4.125  16.555  0.00  0.00    +0.000 A 
ATOM     11  C   UNL     1       3.367   4.781  17.554  0.00  0.00    +0.000 A 
BRANCH  11  12
ATOM     12  C   UNL     1       2.234   4.004  18.136  0.00  0.00    +0.000 C 
ATOM     13  O   UNL     1       1.297   3.738  17.386  0.00  0.00    +0.000 OA
BRANCH  12  14
ATOM     14  C   UNL     1       2.243   3.511  19.501  0.00  0.00    +0.000 A 
ATOM     15  C   UNL     1       3.199   2.872  20.275  0.00  0.00    +0.000 A 
ATOM     16  C   UNL     1       2.599   2.525  21.513  0.00  0.00    +0.000 A 
ATOM     17  C   UNL     1       1.318   3.025  21.500  0.00  0.00    +0.000 A 
ATOM     18  N   UNL     1       1.140   3.680  20.314  0.00  0.00    +0.000 N 
ATOM     19  H   UNL     1       0.305   4.182  20.028  0.00  0.00    +0.000 HD
ENDBRANCH  12  14
ENDBRANCH  11  12
ENDBRANCH   3   5
BRANCH   1  20
ATOM     20  C   UNL     1       1.716   8.407  20.150  0.00  0.00    +0.000 C 
BRANCH  20  21
ATOM     21  N   UNL     1       1.591   7.320  21.149  0.00  0.00    +0.000 NA
ATOM     22  H   UNL     1       0.797   6.733  20.889  0.00  0.00    +0.000 HD
ATOM     23  H   UNL     1       1.299   7.744  22.034  0.00  0.00    +0.000 HD
ENDBRANCH  20  21
BRANCH  20  24
ATOM     24  C   UNL     1       0.381   9.107  19.834  0.00  0.00    +0.000 C 
BRANCH  24  25
ATOM     25  C   UNL     1      -0.080  10.017  20.943  0.00  0.00    +0.000 A 
ATOM     26  C   UNL     1      -0.380   9.511  22.216  0.00  0.00    +0.000 A 
ATOM     27  C   UNL     1      -0.907  10.352  23.194  0.00  0.00    +0.000 A 
ATOM     28  C   UNL     1      -1.141  11.699  22.912  0.00  0.00    +0.000 A 
ATOM     29  C   UNL     1      -0.820  12.215  21.661  0.00  0.00    +0.000 A 
ATOM     30  C   UNL     1      -0.286  11.379  20.683  0.00  0.00    +0.000 A 
ENDBRANCH  24  25
ENDBRANCH  20  24
ENDBRANCH   1  20
TORSDOF 7
ENDMDL
MODEL 2
REMARK VINA RESULT:      -8.1      2.783      4.760
REMARK  Name = 
REMARK  7 active torsions:
REMARK  status: ('A' for Active; 'I' for Inactive)
REMARK    1  A    between atoms: N_1  and  C_2
REMARK    2  A    between atoms: C_2  and  C_3
REMARK    3  A    between atoms: C_2  and  C_10
REMARK    4  A    between atoms: C_3  and  C_4
REMARK    5  A    between atoms: N_12  and  C_13
REMARK    6  A    between atoms: C_19  and  C_20
REMARK    7  A    between atoms: C_20  and  C_22
REMARK                            x       y       z     vdW  Elec       q    Type
REMARK                         _______ _______ _______ _____ _____    ______ ____
ROOT
ATOM      1  C   UNL     1       1.846   8.179  18.864  0.00  0.00    +0.000 C 
ATOM      2  O   UNL     1       1.898   8.216  20.093  0.00  0.00    +0.000 OA
ATOM      3  N   UNL     1       2.359   7.152  18.085  0.00  0.00    +0.000 N 
ATOM      4  H   UNL     1       2.631   7.416  17.143  0.00  0.00    +0.000 HD
ENDROOT
BRANCH   3   5
ATOM      5  C   UNL     1       2.955   6.002  18.649  0.00  0.00    +0.000 A 
ATOM      6  C   UNL     1       2.217   5.268  19.594  0.00  0.00    +0.000 A 
ATOM      7  C   UNL     1       2.692   4.054  20.092  0.00  0.00    +0.000 A 
ATOM      8  C   UNL     1       3.920   3.571  19.662  0.00  0.00    +0.000 A 
ATOM      9 CL   UNL     1       4.495   2.062  20.258  0.00  0.00    +0.000 Cl
ATOM     10  C   UNL     1       4.680   4.296  18.746  0.00  0.00    +0.000 A 
ATOM     11  C   UNL     1       4.208   5.517  18.227  0.00  0.00    +0.000 A 
BRANCH  11  12
ATOM     12  C   UNL     1       5.088   6.178  17.218  0.00  0.00    +0.000 C 
ATOM     13  O   UNL     1       5.382   7.354  17.419  0.00  0.00    +0.000 OA
BRANCH  12  14
ATOM     14  C   UNL     1       5.642   5.468  16.079  0.00  0.00    +0.000 A 
ATOM     15  C   UNL     1       5.129   4.519  15.208  0.00  0.00    +0.000 A 
ATOM     16  C   UNL     1       6.178   4.099  14.351  0.00  0.00    +0.000 A 
ATOM     17  C   UNL     1       7.286   4.853  14.662  0.00  0.00    +0.000 A 
ATOM     18  N   UNL     1       6.930   5.724  15.654  0.00  0.00    +0.000 N 
ATOM     19  H   UNL     1       7.527   6.431  16.069  0.00  0.00    +0.000 HD
ENDBRANCH  12  14
ENDBRANCH  11  12
ENDBRANCH   3   5
BRANCH   1  20
ATOM     20  C   UNL     1       1.229   9.327  18.044  0.00  0.00    +0.000 C 
BRANCH  20  21
ATOM     21  N   UNL     1       2.325  10.101  17.414  0.00  0.00    +0.000 NA
ATOM     22  H   UNL     1       2.490   9.724  16.480  0.00  0.00    +0.000 HD
ATOM     23  H   UNL     1       3.188   9.885  17.920  0.00  0.00    +0.000 HD
ENDBRANCH  20  21
BRANCH  20  24
ATOM     24  C   UNL     1       0.349  10.166  18.989  0.00  0.00    +0.000 C 
BRANCH  24  25
ATOM     25  C   UNL     1      -1.010  10.467  18.410  0.00  0.00    +0.000 A 
ATOM     26  C   UNL     1      -1.868  11.392  19.022  0.00  0.00    +0.000 A 
ATOM     27  C   UNL     1      -3.160  11.574  18.533  0.00  0.00    +0.000 A 
ATOM     28  C   UNL     1      -3.607  10.838  17.435  0.00  0.00    +0.000 A 
ATOM     29  C   UNL     1      -2.752   9.939  16.805  0.00  0.00    +0.000 A 
ATOM     30  C   UNL     1      -1.458   9.759  17.286  0.00  0.00    +0.000 A 
ENDBRANCH  24  25
ENDBRANCH  20  24
ENDBRANCH   1  20
TORSDOF 7
ENDMDL
MODEL 3
REMARK VINA RESULT:      -8.1      1.343      1.450
REMARK  Name = 
REMARK  7 active torsions:
REMARK  status: ('A' for Active; 'I' for Inactive)
REMARK    1  A    between atoms: N_1  and  C_2
REMARK    2  A    between atoms: C_2  and  C_3
REMARK    3  A    between atoms: C_2  and  C_10
REMARK    4  A    between atoms: C_3  and  C_4
REMARK    5  A    between atoms: N_12  and  C_13
REMARK    6  A    between atoms: C_19  and  C_20
REMARK    7  A    between atoms: C_20  and  C_22
REMARK                            x       y       z     vdW  Elec       q    Type
REMARK                         _______ _______ _______ _____ _____    ______ ____
ROOT
ATOM      1  C   UNL     1       1.879   8.705  18.023  0.00  0.00    +0.000 C 
ATOM      2  O   UNL     1       2.417   9.268  17.070  0.00  0.00    +0.000 OA
ATOM      3  N   UNL     1       2.185   7.423  18.456  0.00  0.00    +0.000 N 
ATOM      4  H   UNL     1       1.433   6.935  18.932  0.00  0.00    +0.000 HD
ENDROOT
BRANCH   3   5
ATOM      5  C   UNL     1       3.206   6.649  17.860  0.00  0.00    +0.000 A 
ATOM      6  C   UNL     1       4.383   7.302  17.457  0.00  0.00    +0.000 A 
ATOM      7  C   UNL     1       5.480   6.580  16.982  0.00  0.00    +0.000 A 
ATOM      8  C   UNL     1       5.400   5.197  16.890  0.00  0.00    +0.000 A 
ATOM      9 CL   UNL     1       6.761   4.305  16.328  0.00  0.00    +0.000 Cl
ATOM     10  C   UNL     1       4.233   4.533  17.260  0.00  0.00    +0.000 A 
ATOM     11  C   UNL     1       3.123   5.248  17.750  0.00  0.00    +0.000 A 
BRANCH  11  12
ATOM     12  C   UNL     1       1.947   4.423  18.158  0.00  0.00    +0.000 C 
ATOM     13  O   UNL     1       1.086   4.219  17.305  0.00  0.00    +0.000 OA
BRANCH  12  14
ATOM     14  C   UNL     1       1.834   3.819  19.474  0.00  0.00    +0.000 A 
ATOM     15  C   UNL     1       1.066   2.783  19.981  0.00  0.00    +0.000 A 
ATOM     16  C   UNL     1       1.298   2.711  21.379  0.00  0.00    +0.000 A 
ATOM     17  C   UNL     1       2.257   3.649  21.682  0.00  0.00    +0.000 A 
ATOM     18  N   UNL     1       2.625   4.259  20.516  0.00  0.00    +0.000 N 
ATOM     19  H   UNL     1       3.338   4.973  20.416  0.00  0.00    +0.000 HD
ENDBRANCH  12  14
ENDBRANCH  11  12
ENDBRANCH   3   5
BRANCH   1  20
ATOM     20  C   UNL     1       0.745   9.373  18.823  0.00  0.00    +0.000 C 
BRANCH  20  21
ATOM     21  N   UNL     1      -0.164  10.060  17.874  0.00  0.00    +0.000 NA
ATOM     22  H   UNL     1      -1.029   9.523  17.809  0.00  0.00    +0.000 HD
ATOM     23  H   UNL     1       0.245   9.976  16.938  0.00  0.00    +0.000 HD
ENDBRANCH  20  21
BRANCH  20  24
ATOM     24  C   UNL     1       1.384  10.320  19.855  0.00  0.00    +0.000 C 
BRANCH  24  25
ATOM     25  C   UNL     1       0.536  10.502  21.087  0.00  0.00    +0.000 A 
ATOM     26  C   UNL     1       0.444   9.492  22.057  0.00  0.00    +0.000 A 
ATOM     27  C   UNL     1      -0.430   9.637  23.133  0.00  0.00    +0.000 A 
ATOM     28  C   UNL     1      -1.216  10.784  23.251  0.00  0.00    +0.000 A 
ATOM     29  C   UNL     1      -1.109  11.802  22.309  0.00  0.00    +0.000 A 
ATOM     30  C   UNL     1      -0.232  11.665  21.236  0.00  0.00    +0.000 A 
ENDBRANCH  24  25
ENDBRANCH  20  24
ENDBRANCH   1  20
TORSDOF 7
ENDMDL
MODEL 4
REMARK VINA RESULT:      -8.1      1.333      1.997
REMARK  Name = 
REMARK  7 active torsions:
REMARK  status: ('A' for Active; 'I' for Inactive)
REMARK    1  A    between atoms: N_1  and  C_2
REMARK    2  A    between atoms: C_2  and  C_3
REMARK    3  A    between atoms: C_2  and  C_10
REMARK    4  A    between atoms: C_3  and  C_4
REMARK    5  A    between atoms: N_12  and  C_13
REMARK    6  A    between atoms: C_19  and  C_20
REMARK    7  A    between atoms: C_20  and  C_22
REMARK                            x       y       z     vdW  Elec       q    Type
REMARK                         _______ _______ _______ _____ _____    ______ ____
ROOT
ATOM      1  C   UNL     1       2.257   7.823  18.768  0.00  0.00    +0.000 C 
ATOM      2  O   UNL     1       1.796   8.094  17.660  0.00  0.00    +0.000 OA
ATOM      3  N   UNL     1       3.222   6.854  19.005  0.00  0.00    +0.000 N 
ATOM      4  H   UNL     1       3.208   6.445  19.934  0.00  0.00    +0.000 HD
ENDROOT
BRANCH   3   5
ATOM      5  C   UNL     1       3.816   6.110  17.961  0.00  0.00    +0.000 A 
ATOM      6  C   UNL     1       4.998   6.602  17.384  0.00  0.00    +0.000 A 
ATOM      7  C   UNL     1       5.705   5.854  16.441  0.00  0.00    +0.000 A 
ATOM      8  C   UNL     1       5.223   4.611  16.054  0.00  0.00    +0.000 A 
ATOM      9 CL   UNL     1       6.107   3.677  14.909  0.00  0.00    +0.000 Cl
ATOM     10  C   UNL     1       4.038   4.115  16.594  0.00  0.00    +0.000 A 
ATOM     11  C   UNL     1       3.320   4.855  17.554  0.00  0.00    +0.000 A 
BRANCH  11  12
ATOM     12  C   UNL     1       2.093   4.201  18.095  0.00  0.00    +0.000 C 
ATOM     13  O   UNL     1       1.136   4.092  17.331  0.00  0.00    +0.000 OA
BRANCH  12  14
ATOM     14  C   UNL     1       2.028   3.646  19.435  0.00  0.00    +0.000 A 
ATOM     15  C   UNL     1       1.051   3.648  20.419  0.00  0.00    +0.000 A 
ATOM     16  C   UNL     1       1.597   3.040  21.578  0.00  0.00    +0.000 A 
ATOM     17  C   UNL     1       2.863   2.610  21.256  0.00  0.00    +0.000 A 
ATOM     18  N   UNL     1       3.083   2.914  19.942  0.00  0.00    +0.000 N 
ATOM     19  H   UNL     1       3.917   2.691  19.409  0.00  0.00    +0.000 HD
ENDBRANCH  12  14
ENDBRANCH  11  12
ENDBRANCH   3   5
BRANCH   1  20
ATOM     20  C   UNL     1       1.759   8.523  20.046  0.00  0.00    +0.000 C 
BRANCH  20  21
ATOM     21  N   UNL     1       1.388   7.487  21.040  0.00  0.00    +0.000 NA
ATOM     22  H   UNL     1       1.002   7.953  21.862  0.00  0.00    +0.000 HD
ATOM     23  H   UNL     1       2.255   7.065  21.385  0.00  0.00    +0.000 HD
ENDBRANCH  20  21
BRANCH  20  24
ATOM     24  C   UNL     1       0.590   9.447  19.658  0.00  0.00    +0.000 C 
BRANCH  24  25
ATOM     25  C   UNL     1       0.973  10.905  19.654  0.00  0.00    +0.000 A 
ATOM     26  C   UNL     1       1.664  11.469  18.571  0.00  0.00    +0.000 A 
ATOM     27  C   UNL     1       2.102  12.790  18.636  0.00  0.00    +0.000 A 
ATOM     28  C   UNL     1       1.858  13.557  19.775  0.00  0.00    +0.000 A 
ATOM     29  C   UNL     1       1.148  13.015  20.842  0.00  0.00    +0.000 A 
ATOM     30  C   UNL     1       0.702  11.697  20.779  0.00  0.00    +0.000 A 
ENDBRANCH  24  25
ENDBRANCH  20  24
ENDBRANCH   1  20
TORSDOF 7
ENDMDL
MODEL 5
REMARK VINA RESULT:      -8.0      3.098      8.011
REMARK  Name = 
REMARK  7 active torsions:
REMARK  status: ('A' for Active; 'I' for Inactive)
REMARK    1  A    between atoms: N_1  and  C_2
REMARK    2  A    between atoms: C_2  and  C_3
REMARK    3  A    between atoms: C_2  and  C_10
REMARK    4  A    between atoms: C_3  and  C_4
REMARK    5  A    between atoms: N_12  and  C_13
REMARK    6  A    between atoms: C_19  and  C_20
REMARK    7  A    between atoms: C_20  and  C_22
REMARK                            x       y       z     vdW  Elec       q    Type
REMARK                         _______ _______ _______ _____ _____    ______ ____
ROOT
ATOM      1  C   UNL     1       6.009   4.989  17.880  0.00  0.00    +0.000 C 
ATOM      2  O   UNL     1       6.508   4.903  19.001  0.00  0.00    +0.000 OA
ATOM      3  N   UNL     1       4.700   4.650  17.572  0.00  0.00    +0.000 N 
ATOM      4  H   UNL     1       4.540   4.365  16.611  0.00  0.00    +0.000 HD
ENDROOT
BRANCH   3   5
ATOM      5  C   UNL     1       3.782   4.214  18.554  0.00  0.00    +0.000 A 
ATOM      6  C   UNL     1       3.859   2.880  18.988  0.00  0.00    +0.000 A 
ATOM      7  C   UNL     1       3.072   2.421  20.045  0.00  0.00    +0.000 A 
ATOM      8  C   UNL     1       2.186   3.290  20.666  0.00  0.00    +0.000 A 
ATOM      9 CL   UNL     1       1.233   2.731  21.986  0.00  0.00    +0.000 Cl
ATOM     10  C   UNL     1       2.075   4.610  20.234  0.00  0.00    +0.000 A 
ATOM     11  C   UNL     1       2.871   5.090  19.176  0.00  0.00    +0.000 A 
BRANCH  11  12
ATOM     12  C   UNL     1       2.697   6.532  18.834  0.00  0.00    +0.000 C 
ATOM     13  O   UNL     1       3.120   6.901  17.740  0.00  0.00    +0.000 OA
BRANCH  12  14
ATOM     14  C   UNL     1       2.003   7.465  19.704  0.00  0.00    +0.000 A 
ATOM     15  C   UNL     1       1.619   7.418  21.035  0.00  0.00    +0.000 A 
ATOM     16  C   UNL     1       0.863   8.585  21.314  0.00  0.00    +0.000 A 
ATOM     17  C   UNL     1       0.867   9.355  20.174  0.00  0.00    +0.000 A 
ATOM     18  N   UNL     1       1.618   8.705  19.235  0.00  0.00    +0.000 N 
ATOM     19  H   UNL     1       1.831   9.043  18.303  0.00  0.00    +0.000 HD
ENDBRANCH  12  14
ENDBRANCH  11  12
ENDBRANCH   3   5
BRANCH   1  20
ATOM     20  C   UNL     1       6.830   5.453  16.662  0.00  0.00    +0.000 C 
BRANCH  20  21
ATOM     21  N   UNL     1       7.579   6.677  17.033  0.00  0.00    +0.000 NA
ATOM     22  H   UNL     1       7.214   7.456  16.485  0.00  0.00    +0.000 HD
ATOM     23  H   UNL     1       8.538   6.568  16.692  0.00  0.00    +0.000 HD
ENDBRANCH  20  21
BRANCH  20  24
ATOM     24  C   UNL     1       5.858   5.661  15.485  0.00  0.00    +0.000 C 
BRANCH  24  25
ATOM     25  C   UNL     1       6.275   4.915  14.243  0.00  0.00    +0.000 A 
ATOM     26  C   UNL     1       7.446   5.258  13.553  0.00  0.00    +0.000 A 
ATOM     27  C   UNL     1       7.755   4.628  12.348  0.00  0.00    +0.000 A 
ATOM     28  C   UNL     1       6.902   3.657  11.823  0.00  0.00    +0.000 A 
ATOM     29  C   UNL     1       5.752   3.292  12.516  0.00  0.00    +0.000 A 
ATOM     30  C   UNL     1       5.443   3.913  13.724  0.00  0.00    +0.000 A 
ENDBRANCH  24  25
ENDBRANCH  20  24
ENDBRANCH   1  20
TORSDOF 7
ENDMDL
MODEL 6
REMARK VINA RESULT:      -8.0      1.329      1.673
REMARK  Name = 
REMARK  7 active torsions:
REMARK  status: ('A' for Active; 'I' for Inactive)
REMARK    1  A    between atoms: N_1  and  C_2
REMARK    2  A    between atoms: C_2  and  C_3
REMARK    3  A    between atoms: C_2  and  C_10
REMARK    4  A    between atoms: C_3  and  C_4
REMARK    5  A    between atoms: N_12  and  C_13
REMARK    6  A    between atoms: C_19  and  C_20
REMARK    7  A    between atoms: C_20  and  C_22
REMARK                            x       y       z     vdW  Elec       q    Type
REMARK                         _______ _______ _______ _____ _____    ______ ____
ROOT
ATOM      1  C   UNL     1       2.190   7.992  18.706  0.00  0.00    +0.000 C 
ATOM      2  O   UNL     1       1.846   8.330  17.574  0.00  0.00    +0.000 OA
ATOM      3  N   UNL     1       3.063   6.951  18.987  0.00  0.00    +0.000 N 
ATOM      4  H   UNL     1       2.940   6.514  19.895  0.00  0.00    +0.000 HD
ENDROOT
BRANCH   3   5
ATOM      5  C   UNL     1       3.694   6.200  17.970  0.00  0.00    +0.000 A 
ATOM      6  C   UNL     1       4.872   6.712  17.401  0.00  0.00    +0.000 A 
ATOM      7  C   UNL     1       5.615   5.964  16.487  0.00  0.00    +0.000 A 
ATOM      8  C   UNL     1       5.173   4.700  16.120  0.00  0.00    +0.000 A 
ATOM      9 CL   UNL     1       6.102   3.766  15.011  0.00  0.00    +0.000 Cl
ATOM     10  C   UNL     1       3.994   4.183  16.652  0.00  0.00    +0.000 A 
ATOM     11  C   UNL     1       3.240   4.924  17.583  0.00  0.00    +0.000 A 
BRANCH  11  12
ATOM     12  C   UNL     1       2.022   4.248  18.118  0.00  0.00    +0.000 C 
ATOM     13  O   UNL     1       1.060   4.149  17.359  0.00  0.00    +0.000 OA
BRANCH  12  14
ATOM     14  C   UNL     1       1.972   3.662  19.446  0.00  0.00    +0.000 A 
ATOM     15  C   UNL     1       0.979   3.576  20.411  0.00  0.00    +0.000 A 
ATOM     16  C   UNL     1       1.545   2.983  21.569  0.00  0.00    +0.000 A 
ATOM     17  C   UNL     1       2.844   2.649  21.262  0.00  0.00    +0.000 A 
ATOM     18  N   UNL     1       3.066   2.996  19.959  0.00  0.00    +0.000 N 
ATOM     19  H   UNL     1       3.923   2.842  19.439  0.00  0.00    +0.000 HD
ENDBRANCH  12  14
ENDBRANCH  11  12
ENDBRANCH   3   5
BRANCH   1  20
ATOM     20  C   UNL     1       1.630   8.684  19.963  0.00  0.00    +0.000 C 
BRANCH  20  21
ATOM     21  N   UNL     1       1.544   7.685  21.055  0.00  0.00    +0.000 NA
ATOM     22  H   UNL     1       2.178   6.915  20.839  0.00  0.00    +0.000 HD
ATOM     23  H   UNL     1       0.616   7.256  21.010  0.00  0.00    +0.000 HD
ENDBRANCH  20  21
BRANCH  20  24
ATOM     24  C   UNL     1       0.272   9.310  19.596  0.00  0.00    +0.000 C 
BRANCH  24  25
ATOM     25  C   UNL     1       0.306  10.817  19.584  0.00  0.00    +0.000 A 
ATOM     26  C   UNL     1       1.041  11.532  20.541  0.00  0.00    +0.000 A 
ATOM     27  C   UNL     1       0.972  12.923  20.577  0.00  0.00    +0.000 A 
ATOM     28  C   UNL     1       0.171  13.611  19.664  0.00  0.00    +0.000 A 
ATOM     29  C   UNL     1      -0.539  12.911  18.693  0.00  0.00    +0.000 A 
ATOM     30  C   UNL     1      -0.466  11.521  18.649  0.00  0.00    +0.000 A 
ENDBRANCH  24  25
ENDBRANCH  20  24
ENDBRANCH   1  20
TORSDOF 7
ENDMDL
MODEL 7
REMARK VINA RESULT:      -8.0      5.098      7.710
REMARK  Name = 
REMARK  7 active torsions:
REMARK  status: ('A' for Active; 'I' for Inactive)
REMARK    1  A    between atoms: N_1  and  C_2
REMARK    2  A    between atoms: C_2  and  C_3
REMARK    3  A    between atoms: C_2  and  C_10
REMARK    4  A    between atoms: C_3  and  C_4
REMARK    5  A    between atoms: N_12  and  C_13
REMARK    6  A    between atoms: C_19  and  C_20
REMARK    7  A    between atoms: C_20  and  C_22
REMARK                            x       y       z     vdW  Elec       q    Type
REMARK                         _______ _______ _______ _____ _____    ______ ____
ROOT
ATOM      1  C   UNL     1       7.163   7.650  17.562  0.00  0.00    +0.000 C 
ATOM      2  O   UNL     1       6.453   8.053  16.641  0.00  0.00    +0.000 OA
ATOM      3  N   UNL     1       6.906   6.514  18.316  0.00  0.00    +0.000 N 
ATOM      4  H   UNL     1       7.287   6.522  19.256  0.00  0.00    +0.000 HD
ENDROOT
BRANCH   3   5
ATOM      5  C   UNL     1       5.807   5.666  18.053  0.00  0.00    +0.000 A 
ATOM      6  C   UNL     1       4.631   5.855  18.799  0.00  0.00    +0.000 A 
ATOM      7  C   UNL     1       3.468   5.142  18.503  0.00  0.00    +0.000 A 
ATOM      8  C   UNL     1       3.478   4.219  17.465  0.00  0.00    +0.000 A 
ATOM      9 CL   UNL     1       2.037   3.357  17.083  0.00  0.00    +0.000 Cl
ATOM     10  C   UNL     1       4.640   3.997  16.730  0.00  0.00    +0.000 A 
ATOM     11  C   UNL     1       5.818   4.718  17.012  0.00  0.00    +0.000 A 
BRANCH  11  12
ATOM     12  C   UNL     1       6.984   4.429  16.126  0.00  0.00    +0.000 C 
ATOM     13  O   UNL     1       8.040   4.122  16.677  0.00  0.00    +0.000 OA
BRANCH  12  14
ATOM     14  C   UNL     1       6.887   4.434  14.678  0.00  0.00    +0.000 A 
ATOM     15  C   UNL     1       6.141   3.695  13.772  0.00  0.00    +0.000 A 
ATOM     16  C   UNL     1       6.550   4.065  12.465  0.00  0.00    +0.000 A 
ATOM     17  C   UNL     1       7.476   5.073  12.597  0.00  0.00    +0.000 A 
ATOM     18  N   UNL     1       7.617   5.336  13.930  0.00  0.00    +0.000 N 
ATOM     19  H   UNL     1       8.207   6.054  14.338  0.00  0.00    +0.000 HD
ENDBRANCH  12  14
ENDBRANCH  11  12
ENDBRANCH   3   5
BRANCH   1  20
ATOM     20  C   UNL     1       8.420   8.418  18.010  0.00  0.00    +0.000 C 
BRANCH  20  21
ATOM     21  N   UNL     1       8.869   7.871  19.313  0.00  0.00    +0.000 NA
ATOM     22  H   UNL     1       8.783   8.604  20.017  0.00  0.00    +0.000 HD
ATOM     23  H   UNL     1       9.879   7.712  19.251  0.00  0.00    +0.000 HD
ENDBRANCH  20  21
BRANCH  20  24
ATOM     24  C   UNL     1       8.069   9.916  18.061  0.00  0.00    +0.000 C 
BRANCH  24  25
ATOM     25  C   UNL     1       9.186  10.760  18.621  0.00  0.00    +0.000 A 
ATOM     26  C   UNL     1      10.199  11.262  17.791  0.00  0.00    +0.000 A 
ATOM     27  C   UNL     1      11.278  11.948  18.346  0.00  0.00    +0.000 A 
ATOM     28  C   UNL     1      11.357  12.137  19.726  0.00  0.00    +0.000 A 
ATOM     29  C   UNL     1      10.342  11.667  20.553  0.00  0.00    +0.000 A 
ATOM     30  C   UNL     1       9.258  10.988  20.003  0.00  0.00    +0.000 A 
ENDBRANCH  24  25
ENDBRANCH  20  24
ENDBRANCH   1  20
TORSDOF 7
ENDMDL
MODEL 8
REMARK VINA RESULT:      -8.0      3.393      8.584
REMARK  Name = 
REMARK  7 active torsions:
REMARK  status: ('A' for Active; 'I' for Inactive)
REMARK    1  A    between atoms: N_1  and  C_2
REMARK    2  A    between atoms: C_2  and  C_3
REMARK    3  A    between atoms: C_2  and  C_10
REMARK    4  A    between atoms: C_3  and  C_4
REMARK    5  A    between atoms: N_12  and  C_13
REMARK    6  A    between atoms: C_19  and  C_20
REMARK    7  A    between atoms: C_20  and  C_22
REMARK                            x       y       z     vdW  Elec       q    Type
REMARK                         _______ _______ _______ _____ _____    ______ ____
ROOT
ATOM      1  C   UNL     1       5.847   4.334  16.585  0.00  0.00    +0.000 C 
ATOM      2  O   UNL     1       6.400   4.044  17.645  0.00  0.00    +0.000 OA
ATOM      3  N   UNL     1       4.473   4.375  16.398  0.00  0.00    +0.000 N 
ATOM      4  H   UNL     1       4.159   4.207  15.448  0.00  0.00    +0.000 HD
ENDROOT
BRANCH   3   5
ATOM      5  C   UNL     1       3.561   4.132  17.450  0.00  0.00    +0.000 A 
ATOM      6  C   UNL     1       3.187   2.803  17.711  0.00  0.00    +0.000 A 
ATOM      7  C   UNL     1       2.394   2.481  18.813  0.00  0.00    +0.000 A 
ATOM      8  C   UNL     1       1.954   3.492  19.657  0.00  0.00    +0.000 A 
ATOM      9 CL   UNL     1       0.997   3.093  21.031  0.00  0.00    +0.000 Cl
ATOM     10  C   UNL     1       2.291   4.820  19.402  0.00  0.00    +0.000 A 
ATOM     11  C   UNL     1       3.099   5.157  18.299  0.00  0.00    +0.000 A 
BRANCH  11  12
ATOM     12  C   UNL     1       3.433   6.605  18.156  0.00  0.00    +0.000 C 
ATOM     13  O   UNL     1       4.546   6.880  17.713  0.00  0.00    +0.000 OA
BRANCH  12  14
ATOM     14  C   UNL     1       2.480   7.660  18.453  0.00  0.00    +0.000 A 
ATOM     15  C   UNL     1       1.801   8.577  17.665  0.00  0.00    +0.000 A 
ATOM     16  C   UNL     1       1.083   9.446  18.527  0.00  0.00    +0.000 A 
ATOM     17  C   UNL     1       1.275   8.996  19.812  0.00  0.00    +0.000 A 
ATOM     18  N   UNL     1       2.057   7.877  19.749  0.00  0.00    +0.000 N 
ATOM     19  H   UNL     1       2.343   7.303  20.535  0.00  0.00    +0.000 HD
ENDBRANCH  12  14
ENDBRANCH  11  12
ENDBRANCH   3   5
BRANCH   1  20
ATOM     20  C   UNL     1       6.653   4.645  15.310  0.00  0.00    +0.000 C 
BRANCH  20  21
ATOM     21  N   UNL     1       7.534   5.806  15.577  0.00  0.00    +0.000 NA
ATOM     22  H   UNL     1       7.768   5.812  16.571  0.00  0.00    +0.000 HD
ATOM     23  H   UNL     1       6.974   6.655  15.455  0.00  0.00    +0.000 HD
ENDBRANCH  20  21
BRANCH  20  24
ATOM     24  C   UNL     1       5.654   4.883  14.162  0.00  0.00    +0.000 C 
BRANCH  24  25
ATOM     25  C   UNL     1       5.851   3.935  13.008  0.00  0.00    +0.000 A 
ATOM     26  C   UNL     1       4.761   3.286  12.410  0.00  0.00    +0.000 A 
ATOM     27  C   UNL     1       4.976   2.333  11.417  0.00  0.00    +0.000 A 
ATOM     28  C   UNL     1       6.274   2.018  11.013  0.00  0.00    +0.000 A 
ATOM     29  C   UNL     1       7.360   2.677  11.581  0.00  0.00    +0.000 A 
ATOM     30  C   UNL     1       7.149   3.636  12.569  0.00  0.00    +0.000 A 
ENDBRANCH  24  25
ENDBRANCH  20  24
ENDBRANCH   1  20
TORSDOF 7
ENDMDL
MODEL 9
REMARK VINA RESULT:      -7.9      3.627      8.238
REMARK  Name = 
REMARK  7 active torsions:
REMARK  status: ('A' for Active; 'I' for Inactive)
REMARK    1  A    between atoms: N_1  and  C_2
REMARK    2  A    between atoms: C_2  and  C_3
REMARK    3  A    between atoms: C_2  and  C_10
REMARK    4  A    between atoms: C_3  and  C_4
REMARK    5  A    between atoms: N_12  and  C_13
REMARK    6  A    between atoms: C_19  and  C_20
REMARK    7  A    between atoms: C_20  and  C_22
REMARK                            x       y       z     vdW  Elec       q    Type
REMARK                         _______ _______ _______ _____ _____    ______ ____
ROOT
ATOM      1  C   UNL     1       5.565   5.522  15.506  0.00  0.00    +0.000 C 
ATOM      2  O   UNL     1       5.276   6.499  14.817  0.00  0.00    +0.000 OA
ATOM      3  N   UNL     1       5.057   5.273  16.773  0.00  0.00    +0.000 N 
ATOM      4  H   UNL     1       5.652   4.716  17.378  0.00  0.00    +0.000 HD
ENDROOT
BRANCH   3   5
ATOM      5  C   UNL     1       4.097   6.114  17.379  0.00  0.00    +0.000 A 
ATOM      6  C   UNL     1       4.275   7.504  17.280  0.00  0.00    +0.000 A 
ATOM      7  C   UNL     1       3.301   8.390  17.742  0.00  0.00    +0.000 A 
ATOM      8  C   UNL     1       2.144   7.890  18.324  0.00  0.00    +0.000 A 
ATOM      9 CL   UNL     1       0.930   8.982  18.871  0.00  0.00    +0.000 Cl
ATOM     10  C   UNL     1       1.958   6.516  18.456  0.00  0.00    +0.000 A 
ATOM     11  C   UNL     1       2.929   5.610  17.985  0.00  0.00    +0.000 A 
BRANCH  11  12
ATOM     12  C   UNL     1       2.597   4.163  18.139  0.00  0.00    +0.000 C 
ATOM     13  O   UNL     1       2.702   3.457  17.138  0.00  0.00    +0.000 OA
BRANCH  12  14
ATOM     14  C   UNL     1       2.233   3.575  19.415  0.00  0.00    +0.000 A 
ATOM     15  C   UNL     1       1.020   3.365  20.054  0.00  0.00    +0.000 A 
ATOM     16  C   UNL     1       1.291   2.847  21.347  0.00  0.00    +0.000 A 
ATOM     17  C   UNL     1       2.653   2.680  21.442  0.00  0.00    +0.000 A 
ATOM     18  N   UNL     1       3.202   3.052  20.247  0.00  0.00    +0.000 N 
ATOM     19  H   UNL     1       4.186   3.008  20.003  0.00  0.00    +0.000 HD
ENDBRANCH  12  14
ENDBRANCH  11  12
ENDBRANCH   3   5
BRANCH   1  20
ATOM     20  C   UNL     1       6.587   4.471  15.033  0.00  0.00    +0.000 C 
BRANCH  20  21
ATOM     21  N   UNL     1       7.736   4.473  15.969  0.00  0.00    +0.000 NA
ATOM     22  H   UNL     1       8.200   3.565  15.913  0.00  0.00    +0.000 HD
ATOM     23  H   UNL     1       7.361   4.495  16.921  0.00  0.00    +0.000 HD
ENDBRANCH  20  21
BRANCH  20  24
ATOM     24  C   UNL     1       6.976   4.805  13.581  0.00  0.00    +0.000 C 
BRANCH  24  25
ATOM     25  C   UNL     1       6.524   3.757  12.597  0.00  0.00    +0.000 A 
ATOM     26  C   UNL     1       5.162   3.544  12.342  0.00  0.00    +0.000 A 
ATOM     27  C   UNL     1       4.763   2.499  11.511  0.00  0.00    +0.000 A 
ATOM     28  C   UNL     1       5.714   1.659  10.931  0.00  0.00    +0.000 A 
ATOM     29  C   UNL     1       7.069   1.881  11.157  0.00  0.00    +0.000 A 
ATOM     30  C   UNL     1       7.473   2.929  11.980  0.00  0.00    +0.000 A 
ENDBRANCH  24  25
ENDBRANCH  20  24
ENDBRANCH   1  20
TORSDOF 7
ENDMDL
