MODEL 1
REMARK VINA RESULT:      -6.8      0.000      0.000
REMARK  Name = 
REMARK  12 active torsions:
REMARK  status: ('A' for Active; 'I' for Inactive)
REMARK    1  A    between atoms: C_1  and  C_2
REMARK    2  A    between atoms: C_2  and  C_3
REMARK    3  A    between atoms: C_5  and  C_6
REMARK    4  A    between atoms: C_6  and  C_7
REMARK    5  A    between atoms: C_8  and  O_9
REMARK    6  A    between atoms: O_9  and  C_10
REMARK    7  A    between atoms: C_11  and  C_12
REMARK    8  A    between atoms: N_14  and  C_15
REMARK    9  A    between atoms: C_15  and  C_16
REMARK   10  A    between atoms: N_20  and  C_21
REMARK   11  A    between atoms: C_21  and  C_22
REMARK   12  A    between atoms: C_23  and  O_24
REMARK                            x       y       z     vdW  Elec       q    Type
REMARK                         _______ _______ _______ _____ _____    ______ ____
ROOT
ATOM      1  C   UNL     1       4.928   4.778  16.911  0.00  0.00    +0.000 A 
ATOM      2  C   UNL     1       4.286   3.603  17.317  0.00  0.00    +0.000 A 
ATOM      3  C   UNL     1       3.111   3.611  18.111  0.00  0.00    +0.000 A 
ATOM      4  C   UNL     1       2.533   4.861  18.458  0.00  0.00    +0.000 A 
ATOM      5  C   UNL     1       3.142   6.072  17.989  0.00  0.00    +0.000 A 
ATOM      6  C   UNL     1       4.340   5.997  17.233  0.00  0.00    +0.000 A 
ENDROOT
BRANCH   5   7
ATOM      7  C   UNL     1       2.591   7.465  18.216  0.00  0.00    +0.000 C 
ATOM      8  O   UNL     1       2.607   8.276  17.286  0.00  0.00    +0.000 OA
ATOM      9  N   UNL     1       2.052   7.808  19.431  0.00  0.00    +0.000 N 
ATOM     10  H   UNL     1       2.077   7.121  20.174  0.00  0.00    +0.000 HD
BRANCH   9  11
ATOM     11  C   UNL     1       1.430   9.109  19.668  0.00  0.00    +0.000 C 
BRANCH  11  12
ATOM     12  C   UNL     1       1.005   9.423  21.132  0.00  0.00    +0.000 C 
ATOM     13  C   UNL     1      -0.193   8.616  21.625  0.00  0.00    +0.000 C 
ATOM     14  C   UNL     1      -0.600   9.338  22.891  0.00  0.00    +0.000 C 
ATOM     15  C   UNL     1      -0.351  10.796  22.550  0.00  0.00    +0.000 C 
ATOM     16  N   UNL     1       0.749  10.821  21.572  0.00  0.00    +0.000 NA
BRANCH  16  17
ATOM     17  C   UNL     1       0.561  11.791  20.498  0.00  0.00    +0.000 C 
ATOM     18  C   UNL     1       1.731  12.748  20.300  0.00  0.00    +0.000 C 
ENDBRANCH  16  17
ENDBRANCH  11  12
ENDBRANCH   9  11
ENDBRANCH   5   7
BRANCH   1  20
ATOM     19  C   UNL     1       5.966   4.247  14.689  0.00  0.00    +0.000 C 
ATOM     20  C   UNL     1       6.213   4.683  16.125  0.00  0.00    +0.000 C 
ENDBRANCH   1  20
BRANCH   3  21
ATOM     21  C   UNL     1       2.677   2.216  18.528  0.00  0.00    +0.000 C 
ATOM     22  C   UNL     1       3.763   1.151  18.400  0.00  0.00    +0.000 C 
ENDBRANCH   3  21
BRANCH   4  23
ATOM     23  O   UNL     1       1.456   5.064  19.284  0.00  0.00    +0.000 OA
ATOM     24  C   UNL     1       1.479   4.698  20.650  0.00  0.00    +0.000 C 
ENDBRANCH   4  23
BRANCH   6  25
ATOM     25  O   UNL     1       5.009   7.107  16.770  0.00  0.00    +0.000 OA
ATOM     26  H   UNL     1       4.869   7.173  15.798  0.00  0.00    +0.000 HD
ENDBRANCH   6  25
TORSDOF 8
ENDMDL
MODEL 2
REMARK VINA RESULT:      -6.7      1.673      1.888
REMARK  Name = 
REMARK  12 active torsions:
REMARK  status: ('A' for Active; 'I' for Inactive)
REMARK    1  A    between atoms: C_1  and  C_2
REMARK    2  A    between atoms: C_2  and  C_3
REMARK    3  A    between atoms: C_5  and  C_6
REMARK    4  A    between atoms: C_6  and  C_7
REMARK    5  A    between atoms: C_8  and  O_9
REMARK    6  A    between atoms: O_9  and  C_10
REMARK    7  A    between atoms: C_11  and  C_12
REMARK    8  A    between atoms: N_14  and  C_15
REMARK    9  A    between atoms: C_15  and  C_16
REMARK   10  A    between atoms: N_20  and  C_21
REMARK   11  A    between atoms: C_21  and  C_22
REMARK   12  A    between atoms: C_23  and  O_24
REMARK                            x       y       z     vdW  Elec       q    Type
REMARK                         _______ _______ _______ _____ _____    ______ ____
ROOT
ATOM      1  C   UNL     1       4.813   5.013  16.684  0.00  0.00    +0.000 A 
ATOM      2  C   UNL     1       4.152   3.790  16.842  0.00  0.00    +0.000 A 
ATOM      3  C   UNL     1       2.982   3.652  17.631  0.00  0.00    +0.000 A 
ATOM      4  C   UNL     1       2.429   4.811  18.237  0.00  0.00    +0.000 A 
ATOM      5  C   UNL     1       3.058   6.083  18.025  0.00  0.00    +0.000 A 
ATOM      6  C   UNL     1       4.250   6.148  17.259  0.00  0.00    +0.000 A 
ENDROOT
BRANCH   5   7
ATOM      7  C   UNL     1       2.535   7.407  18.544  0.00  0.00    +0.000 C 
ATOM      8  O   UNL     1       2.502   7.603  19.762  0.00  0.00    +0.000 OA
ATOM      9  N   UNL     1       2.135   8.386  17.669  0.00  0.00    +0.000 N 
ATOM     10  H   UNL     1       2.157   8.177  16.679  0.00  0.00    +0.000 HD
BRANCH   9  11
ATOM     11  C   UNL     1       1.707   9.708  18.121  0.00  0.00    +0.000 C 
BRANCH  11  12
ATOM     12  C   UNL     1       0.248   9.826  18.651  0.00  0.00    +0.000 C 
ATOM     13  C   UNL     1      -0.813   9.892  17.556  0.00  0.00    +0.000 C 
ATOM     14  C   UNL     1      -2.051  10.343  18.300  0.00  0.00    +0.000 C 
ATOM     15  C   UNL     1      -1.499  11.317  19.325  0.00  0.00    +0.000 C 
ATOM     16  N   UNL     1      -0.127  10.880  19.631  0.00  0.00    +0.000 NA
BRANCH  16  17
ATOM     17  C   UNL     1       0.824  11.978  19.767  0.00  0.00    +0.000 C 
ATOM     18  C   UNL     1       0.564  13.159  18.838  0.00  0.00    +0.000 C 
ENDBRANCH  16  17
ENDBRANCH  11  12
ENDBRANCH   9  11
ENDBRANCH   5   7
BRANCH   1  20
ATOM     19  C   UNL     1       5.997   4.226  14.617  0.00  0.00    +0.000 C 
ATOM     20  C   UNL     1       6.092   5.062  15.883  0.00  0.00    +0.000 C 
ENDBRANCH   1  20
BRANCH   3  21
ATOM     21  C   UNL     1       2.525   2.208  17.752  0.00  0.00    +0.000 C 
ATOM     22  C   UNL     1       3.478   1.306  18.532  0.00  0.00    +0.000 C 
ENDBRANCH   3  21
BRANCH   4  23
ATOM     23  O   UNL     1       1.362   4.856  19.098  0.00  0.00    +0.000 OA
ATOM     24  C   UNL     1       1.437   4.342  20.414  0.00  0.00    +0.000 C 
ENDBRANCH   4  23
BRANCH   6  25
ATOM     25  O   UNL     1       4.937   7.318  17.032  0.00  0.00    +0.000 OA
ATOM     26  H   UNL     1       5.743   7.110  16.506  0.00  0.00    +0.000 HD
ENDBRANCH   6  25
TORSDOF 8
ENDMDL
MODEL 3
REMARK VINA RESULT:      -6.5      0.914      1.187
REMARK  Name = 
REMARK  12 active torsions:
REMARK  status: ('A' for Active; 'I' for Inactive)
REMARK    1  A    between atoms: C_1  and  C_2
REMARK    2  A    between atoms: C_2  and  C_3
REMARK    3  A    between atoms: C_5  and  C_6
REMARK    4  A    between atoms: C_6  and  C_7
REMARK    5  A    between atoms: C_8  and  O_9
REMARK    6  A    between atoms: O_9  and  C_10
REMARK    7  A    between atoms: C_11  and  C_12
REMARK    8  A    between atoms: N_14  and  C_15
REMARK    9  A    between atoms: C_15  and  C_16
REMARK   10  A    between atoms: N_20  and  C_21
REMARK   11  A    between atoms: C_21  and  C_22
REMARK   12  A    between atoms: C_23  and  O_24
REMARK                            x       y       z     vdW  Elec       q    Type
REMARK                         _______ _______ _______ _____ _____    ______ ____
ROOT
ATOM      1  C   UNL     1       5.202   5.025  17.616  0.00  0.00    +0.000 A 
ATOM      2  C   UNL     1       4.774   3.848  18.239  0.00  0.00    +0.000 A 
ATOM      3  C   UNL     1       3.644   3.805  19.093  0.00  0.00    +0.000 A 
ATOM      4  C   UNL     1       2.884   4.991  19.277  0.00  0.00    +0.000 A 
ATOM      5  C   UNL     1       3.272   6.188  18.588  0.00  0.00    +0.000 A 
ATOM      6  C   UNL     1       4.438   6.176  17.780  0.00  0.00    +0.000 A 
ENDROOT
BRANCH   5   7
ATOM      7  C   UNL     1       2.512   7.498  18.630  0.00  0.00    +0.000 C 
ATOM      8  O   UNL     1       2.375   8.145  17.588  0.00  0.00    +0.000 OA
ATOM      9  N   UNL     1       1.956   7.940  19.805  0.00  0.00    +0.000 N 
ATOM     10  H   UNL     1       2.110   7.391  20.640  0.00  0.00    +0.000 HD
BRANCH   9  11
ATOM     11  C   UNL     1       1.141   9.151  19.873  0.00  0.00    +0.000 C 
BRANCH  11  12
ATOM     12  C   UNL     1       0.812   9.692  21.296  0.00  0.00    +0.000 C 
ATOM     13  C   UNL     1      -0.242   8.882  22.046  0.00  0.00    +0.000 C 
ATOM     14  C   UNL     1      -0.616   9.785  23.200  0.00  0.00    +0.000 C 
ATOM     15  C   UNL     1      -0.561  11.171  22.583  0.00  0.00    +0.000 C 
ATOM     16  N   UNL     1       0.441  11.116  21.506  0.00  0.00    +0.000 NA
BRANCH  16  17
ATOM     17  C   UNL     1       0.054  11.848  20.304  0.00  0.00    +0.000 C 
ATOM     18  C   UNL     1      -1.448  11.885  20.043  0.00  0.00    +0.000 C 
ENDBRANCH  16  17
ENDBRANCH  11  12
ENDBRANCH   9  11
ENDBRANCH   5   7
BRANCH   1  20
ATOM     19  C   UNL     1       7.678   4.618  17.596  0.00  0.00    +0.000 C 
ATOM     20  C   UNL     1       6.456   5.001  16.775  0.00  0.00    +0.000 C 
ENDBRANCH   1  20
BRANCH   3  21
ATOM     21  C   UNL     1       3.456   2.448  19.749  0.00  0.00    +0.000 C 
ATOM     22  C   UNL     1       3.704   1.259  18.823  0.00  0.00    +0.000 C 
ENDBRANCH   3  21
BRANCH   4  23
ATOM     23  O   UNL     1       1.820   5.159  20.127  0.00  0.00    +0.000 OA
ATOM     24  C   UNL     1       0.833   4.160  20.300  0.00  0.00    +0.000 C 
ENDBRANCH   4  23
BRANCH   6  25
ATOM     25  O   UNL     1       4.901   7.284  17.109  0.00  0.00    +0.000 OA
ATOM     26  H   UNL     1       4.196   7.972  17.119  0.00  0.00    +0.000 HD
ENDBRANCH   6  25
TORSDOF 8
ENDMDL
MODEL 4
REMARK VINA RESULT:      -6.5      1.327      1.594
REMARK  Name = 
REMARK  12 active torsions:
REMARK  status: ('A' for Active; 'I' for Inactive)
REMARK    1  A    between atoms: C_1  and  C_2
REMARK    2  A    between atoms: C_2  and  C_3
REMARK    3  A    between atoms: C_5  and  C_6
REMARK    4  A    between atoms: C_6  and  C_7
REMARK    5  A    between atoms: C_8  and  O_9
REMARK    6  A    between atoms: O_9  and  C_10
REMARK    7  A    between atoms: C_11  and  C_12
REMARK    8  A    between atoms: N_14  and  C_15
REMARK    9  A    between atoms: C_15  and  C_16
REMARK   10  A    between atoms: N_20  and  C_21
REMARK   11  A    between atoms: C_21  and  C_22
REMARK   12  A    between atoms: C_23  and  O_24
REMARK                            x       y       z     vdW  Elec       q    Type
REMARK                         _______ _______ _______ _____ _____    ______ ____
ROOT
ATOM      1  C   UNL     1       5.125   4.496  16.364  0.00  0.00    +0.000 A 
ATOM      2  C   UNL     1       4.451   3.415  16.942  0.00  0.00    +0.000 A 
ATOM      3  C   UNL     1       3.404   3.584  17.882  0.00  0.00    +0.000 A 
ATOM      4  C   UNL     1       2.984   4.903  18.204  0.00  0.00    +0.000 A 
ATOM      5  C   UNL     1       3.620   6.017  17.564  0.00  0.00    +0.000 A 
ATOM      6  C   UNL     1       4.691   5.783  16.664  0.00  0.00    +0.000 A 
ENDROOT
BRANCH   5   7
ATOM      7  C   UNL     1       3.223   7.468  17.752  0.00  0.00    +0.000 C 
ATOM      8  O   UNL     1       4.102   8.333  17.768  0.00  0.00    +0.000 OA
ATOM      9  N   UNL     1       1.900   7.815  17.869  0.00  0.00    +0.000 N 
ATOM     10  H   UNL     1       1.212   7.074  17.873  0.00  0.00    +0.000 HD
BRANCH   9  11
ATOM     11  C   UNL     1       1.466   9.208  17.963  0.00  0.00    +0.000 C 
BRANCH  11  12
ATOM     12  C   UNL     1       1.176   9.754  19.392  0.00  0.00    +0.000 C 
ATOM     13  C   UNL     1       1.231   8.696  20.491  0.00  0.00    +0.000 C 
ATOM     14  C   UNL     1       0.592   9.391  21.673  0.00  0.00    +0.000 C 
ATOM     15  C   UNL     1      -0.505  10.221  21.031  0.00  0.00    +0.000 C 
ATOM     16  N   UNL     1      -0.044  10.554  19.673  0.00  0.00    +0.000 NA
BRANCH  16  17
ATOM     17  C   UNL     1      -1.093  10.476  18.660  0.00  0.00    +0.000 C 
ATOM     18  C   UNL     1      -1.513  11.823  18.082  0.00  0.00    +0.000 C 
ENDBRANCH  16  17
ENDBRANCH  11  12
ENDBRANCH   9  11
ENDBRANCH   5   7
BRANCH   1  20
ATOM     19  C   UNL     1       5.801   4.025  13.993  0.00  0.00    +0.000 C 
ATOM     20  C   UNL     1       6.276   4.230  15.423  0.00  0.00    +0.000 C 
ENDBRANCH   1  20
BRANCH   3  21
ATOM     21  C   UNL     1       2.918   2.266  18.462  0.00  0.00    +0.000 C 
ATOM     22  C   UNL     1       1.400   2.144  18.571  0.00  0.00    +0.000 C 
ENDBRANCH   3  21
BRANCH   4  23
ATOM     23  O   UNL     1       2.054   5.259  19.147  0.00  0.00    +0.000 OA
ATOM     24  C   UNL     1       2.315   5.159  20.534  0.00  0.00    +0.000 C 
ENDBRANCH   4  23
BRANCH   6  25
ATOM     25  O   UNL     1       5.378   6.792  16.030  0.00  0.00    +0.000 OA
ATOM     26  H   UNL     1       5.191   7.639  16.498  0.00  0.00    +0.000 HD
ENDBRANCH   6  25
TORSDOF 8
ENDMDL
MODEL 5
REMARK VINA RESULT:      -6.4      2.556      7.873
REMARK  Name = 
REMARK  12 active torsions:
REMARK  status: ('A' for Active; 'I' for Inactive)
REMARK    1  A    between atoms: C_1  and  C_2
REMARK    2  A    between atoms: C_2  and  C_3
REMARK    3  A    between atoms: C_5  and  C_6
REMARK    4  A    between atoms: C_6  and  C_7
REMARK    5  A    between atoms: C_8  and  O_9
REMARK    6  A    between atoms: O_9  and  C_10
REMARK    7  A    between atoms: C_11  and  C_12
REMARK    8  A    between atoms: N_14  and  C_15
REMARK    9  A    between atoms: C_15  and  C_16
REMARK   10  A    between atoms: N_20  and  C_21
REMARK   11  A    between atoms: C_21  and  C_22
REMARK   12  A    between atoms: C_23  and  O_24
REMARK                            x       y       z     vdW  Elec       q    Type
REMARK                         _______ _______ _______ _____ _____    ______ ____
ROOT
ATOM      1  C   UNL     1      -1.767  11.352  18.914  0.00  0.00    +0.000 A 
ATOM      2  C   UNL     1      -1.773  11.936  20.185  0.00  0.00    +0.000 A 
ATOM      3  C   UNL     1      -0.819  11.605  21.181  0.00  0.00    +0.000 A 
ATOM      4  C   UNL     1       0.216  10.689  20.853  0.00  0.00    +0.000 A 
ATOM      5  C   UNL     1       0.273  10.138  19.531  0.00  0.00    +0.000 A 
ATOM      6  C   UNL     1      -0.735  10.476  18.593  0.00  0.00    +0.000 A 
ENDROOT
BRANCH   5   7
ATOM      7  C   UNL     1       1.362   9.214  19.023  0.00  0.00    +0.000 C 
ATOM      8  O   UNL     1       2.048   9.568  18.060  0.00  0.00    +0.000 OA
ATOM      9  N   UNL     1       1.603   8.015  19.648  0.00  0.00    +0.000 N 
ATOM     10  H   UNL     1       1.005   7.753  20.420  0.00  0.00    +0.000 HD
BRANCH   9  11
ATOM     11  C   UNL     1       2.699   7.135  19.249  0.00  0.00    +0.000 C 
BRANCH  11  12
ATOM     12  C   UNL     1       2.428   5.604  19.326  0.00  0.00    +0.000 C 
ATOM     13  C   UNL     1       1.675   5.163  20.579  0.00  0.00    +0.000 C 
ATOM     14  C   UNL     1       1.850   3.660  20.577  0.00  0.00    +0.000 C 
ATOM     15  C   UNL     1       3.262   3.480  20.049  0.00  0.00    +0.000 C 
ATOM     16  N   UNL     1       3.532   4.622  19.160  0.00  0.00    +0.000 NA
BRANCH  16  17
ATOM     17  C   UNL     1       4.880   5.165  19.293  0.00  0.00    +0.000 C 
ATOM     18  C   UNL     1       5.898   4.571  18.326  0.00  0.00    +0.000 C 
ENDBRANCH  16  17
ENDBRANCH  11  12
ENDBRANCH   9  11
ENDBRANCH   5   7
BRANCH   1  20
ATOM     19  C   UNL     1      -4.020  10.725  18.001  0.00  0.00    +0.000 C 
ATOM     20  C   UNL     1      -2.860  11.707  17.934  0.00  0.00    +0.000 C 
ENDBRANCH   1  20
BRANCH   3  21
ATOM     21  C   UNL     1      -1.109  12.272  22.514  0.00  0.00    +0.000 C 
ATOM     22  C   UNL     1      -2.569  12.196  22.956  0.00  0.00    +0.000 C 
ENDBRANCH   3  21
BRANCH   4  23
ATOM     23  O   UNL     1       1.167  10.190  21.706  0.00  0.00    +0.000 OA
ATOM     24  C   UNL     1       0.840   9.305  22.761  0.00  0.00    +0.000 C 
ENDBRANCH   4  23
BRANCH   6  25
ATOM     25  O   UNL     1      -0.776   9.970  17.314  0.00  0.00    +0.000 OA
ATOM     26  H   UNL     1      -0.295   9.111  17.303  0.00  0.00    +0.000 HD
ENDBRANCH   6  25
TORSDOF 8
ENDMDL
MODEL 6
REMARK VINA RESULT:      -6.4      2.451      8.003
REMARK  Name = 
REMARK  12 active torsions:
REMARK  status: ('A' for Active; 'I' for Inactive)
REMARK    1  A    between atoms: C_1  and  C_2
REMARK    2  A    between atoms: C_2  and  C_3
REMARK    3  A    between atoms: C_5  and  C_6
REMARK    4  A    between atoms: C_6  and  C_7
REMARK    5  A    between atoms: C_8  and  O_9
REMARK    6  A    between atoms: O_9  and  C_10
REMARK    7  A    between atoms: C_11  and  C_12
REMARK    8  A    between atoms: N_14  and  C_15
REMARK    9  A    between atoms: C_15  and  C_16
REMARK   10  A    between atoms: N_20  and  C_21
REMARK   11  A    between atoms: C_21  and  C_22
REMARK   12  A    between atoms: C_23  and  O_24
REMARK                            x       y       z     vdW  Elec       q    Type
REMARK                         _______ _______ _______ _____ _____    ______ ____
ROOT
ATOM      1  C   UNL     1      -1.714  11.255  18.919  0.00  0.00    +0.000 A 
ATOM      2  C   UNL     1      -1.726  11.871  20.175  0.00  0.00    +0.000 A 
ATOM      3  C   UNL     1      -0.775  11.570  21.182  0.00  0.00    +0.000 A 
ATOM      4  C   UNL     1       0.265  10.650  20.882  0.00  0.00    +0.000 A 
ATOM      5  C   UNL     1       0.330  10.065  19.574  0.00  0.00    +0.000 A 
ATOM      6  C   UNL     1      -0.677  10.376  18.625  0.00  0.00    +0.000 A 
ENDROOT
BRANCH   5   7
ATOM      7  C   UNL     1       1.424   9.133  19.094  0.00  0.00    +0.000 C 
ATOM      8  O   UNL     1       2.099   9.456  18.113  0.00  0.00    +0.000 OA
ATOM      9  N   UNL     1       1.681   7.962  19.764  0.00  0.00    +0.000 N 
ATOM     10  H   UNL     1       1.092   7.725  20.551  0.00  0.00    +0.000 HD
BRANCH   9  11
ATOM     11  C   UNL     1       2.783   7.078  19.391  0.00  0.00    +0.000 C 
BRANCH  11  12
ATOM     12  C   UNL     1       2.452   5.936  18.386  0.00  0.00    +0.000 C 
ATOM     13  C   UNL     1       1.740   4.738  19.010  0.00  0.00    +0.000 C 
ATOM     14  C   UNL     1       1.850   3.674  17.940  0.00  0.00    +0.000 C 
ATOM     15  C   UNL     1       3.227   3.922  17.351  0.00  0.00    +0.000 C 
ATOM     16  N   UNL     1       3.504   5.359  17.508  0.00  0.00    +0.000 NA
BRANCH  16  17
ATOM     17  C   UNL     1       4.879   5.654  17.900  0.00  0.00    +0.000 C 
ATOM     18  C   UNL     1       5.653   4.456  18.439  0.00  0.00    +0.000 C 
ENDBRANCH  16  17
ENDBRANCH  11  12
ENDBRANCH   9  11
ENDBRANCH   5   7
BRANCH   1  20
ATOM     19  C   UNL     1      -4.158  11.730  18.603  0.00  0.00    +0.000 C 
ATOM     20  C   UNL     1      -2.804  11.581  17.926  0.00  0.00    +0.000 C 
ENDBRANCH   1  20
BRANCH   3  21
ATOM     21  C   UNL     1      -1.073  12.270  22.497  0.00  0.00    +0.000 C 
ATOM     22  C   UNL     1      -2.461  11.986  23.064  0.00  0.00    +0.000 C 
ENDBRANCH   3  21
BRANCH   4  23
ATOM     23  O   UNL     1       1.215  10.177  21.751  0.00  0.00    +0.000 OA
ATOM     24  C   UNL     1       0.886   9.323  22.830  0.00  0.00    +0.000 C 
ENDBRANCH   4  23
BRANCH   6  25
ATOM     25  O   UNL     1      -0.711   9.837  17.359  0.00  0.00    +0.000 OA
ATOM     26  H   UNL     1      -1.493  10.202  16.885  0.00  0.00    +0.000 HD
ENDBRANCH   6  25
TORSDOF 8
ENDMDL
MODEL 7
REMARK VINA RESULT:      -6.4      2.415      7.871
REMARK  Name = 
REMARK  12 active torsions:
REMARK  status: ('A' for Active; 'I' for Inactive)
REMARK    1  A    between atoms: C_1  and  C_2
REMARK    2  A    between atoms: C_2  and  C_3
REMARK    3  A    between atoms: C_5  and  C_6
REMARK    4  A    between atoms: C_6  and  C_7
REMARK    5  A    between atoms: C_8  and  O_9
REMARK    6  A    between atoms: O_9  and  C_10
REMARK    7  A    between atoms: C_11  and  C_12
REMARK    8  A    between atoms: N_14  and  C_15
REMARK    9  A    between atoms: C_15  and  C_16
REMARK   10  A    between atoms: N_20  and  C_21
REMARK   11  A    between atoms: C_21  and  C_22
REMARK   12  A    between atoms: C_23  and  O_24
REMARK                            x       y       z     vdW  Elec       q    Type
REMARK                         _______ _______ _______ _____ _____    ______ ____
ROOT
ATOM      1  C   UNL     1      -1.067  11.406  18.907  0.00  0.00    +0.000 A 
ATOM      2  C   UNL     1      -1.132  12.108  20.115  0.00  0.00    +0.000 A 
ATOM      3  C   UNL     1      -0.472  11.667  21.289  0.00  0.00    +0.000 A 
ATOM      4  C   UNL     1       0.334  10.499  21.219  0.00  0.00    +0.000 A 
ATOM      5  C   UNL     1       0.465   9.810  19.968  0.00  0.00    +0.000 A 
ATOM      6  C   UNL     1      -0.255  10.278  18.840  0.00  0.00    +0.000 A 
ENDROOT
BRANCH   5   7
ATOM      7  C   UNL     1       1.349   8.603  19.732  0.00  0.00    +0.000 C 
ATOM      8  O   UNL     1       2.156   8.624  18.799  0.00  0.00    +0.000 OA
ATOM      9  N   UNL     1       1.275   7.514  20.566  0.00  0.00    +0.000 N 
ATOM     10  H   UNL     1       0.585   7.528  21.306  0.00  0.00    +0.000 HD
BRANCH   9  11
ATOM     11  C   UNL     1       2.168   6.366  20.429  0.00  0.00    +0.000 C 
BRANCH  11  12
ATOM     12  C   UNL     1       1.507   4.957  20.478  0.00  0.00    +0.000 C 
ATOM     13  C   UNL     1       2.176   3.984  21.445  0.00  0.00    +0.000 C 
ATOM     14  C   UNL     1       1.588   2.647  21.052  0.00  0.00    +0.000 C 
ATOM     15  C   UNL     1       1.469   2.755  19.542  0.00  0.00    +0.000 C 
ATOM     16  N   UNL     1       1.270   4.180  19.233  0.00  0.00    +0.000 NA
BRANCH  16  17
ATOM     17  C   UNL     1       2.007   4.636  18.058  0.00  0.00    +0.000 C 
ATOM     18  C   UNL     1       3.174   3.741  17.658  0.00  0.00    +0.000 C 
ENDBRANCH  16  17
ENDBRANCH  11  12
ENDBRANCH   9  11
ENDBRANCH   5   7
BRANCH   1  20
ATOM     19  C   UNL     1      -3.306  11.451  17.774  0.00  0.00    +0.000 C 
ATOM     20  C   UNL     1      -1.856  11.906  17.720  0.00  0.00    +0.000 C 
ENDBRANCH   1  20
BRANCH   3  21
ATOM     21  C   UNL     1      -0.796  12.525  22.501  0.00  0.00    +0.000 C 
ATOM     22  C   UNL     1      -1.956  13.497  22.295  0.00  0.00    +0.000 C 
ENDBRANCH   3  21
BRANCH   4  23
ATOM     23  O   UNL     1       0.972   9.881  22.265  0.00  0.00    +0.000 OA
ATOM     24  C   UNL     1       0.264   9.355  23.371  0.00  0.00    +0.000 C 
ENDBRANCH   4  23
BRANCH   6  25
ATOM     25  O   UNL     1      -0.214   9.662  17.611  0.00  0.00    +0.000 OA
ATOM     26  H   UNL     1      -0.908   8.964  17.587  0.00  0.00    +0.000 HD
ENDBRANCH   6  25
TORSDOF 8
ENDMDL
MODEL 8
REMARK VINA RESULT:      -6.3      1.512      3.659
REMARK  Name = 
REMARK  12 active torsions:
REMARK  status: ('A' for Active; 'I' for Inactive)
REMARK    1  A    between atoms: C_1  and  C_2
REMARK    2  A    between atoms: C_2  and  C_3
REMARK    3  A    between atoms: C_5  and  C_6
REMARK    4  A    between atoms: C_6  and  C_7
REMARK    5  A    between atoms: C_8  and  O_9
REMARK    6  A    between atoms: O_9  and  C_10
REMARK    7  A    between atoms: C_11  and  C_12
REMARK    8  A    between atoms: N_14  and  C_15
REMARK    9  A    between atoms: C_15  and  C_16
REMARK   10  A    between atoms: N_20  and  C_21
REMARK   11  A    between atoms: C_21  and  C_22
REMARK   12  A    between atoms: C_23  and  O_24
REMARK                            x       y       z     vdW  Elec       q    Type
REMARK                         _______ _______ _______ _____ _____    ______ ____
ROOT
ATOM      1  C   UNL     1       3.171   3.525  17.498  0.00  0.00    +0.000 A 
ATOM      2  C   UNL     1       4.407   3.497  16.843  0.00  0.00    +0.000 A 
ATOM      3  C   UNL     1       5.161   4.669  16.588  0.00  0.00    +0.000 A 
ATOM      4  C   UNL     1       4.670   5.913  17.068  0.00  0.00    +0.000 A 
ATOM      5  C   UNL     1       3.438   5.945  17.802  0.00  0.00    +0.000 A 
ATOM      6  C   UNL     1       2.710   4.743  17.987  0.00  0.00    +0.000 A 
ENDROOT
BRANCH   5   7
ATOM      7  C   UNL     1       2.839   7.184  18.436  0.00  0.00    +0.000 C 
ATOM      8  O   UNL     1       2.655   7.204  19.656  0.00  0.00    +0.000 OA
ATOM      9  N   UNL     1       2.536   8.280  17.666  0.00  0.00    +0.000 N 
ATOM     10  H   UNL     1       2.682   8.215  16.667  0.00  0.00    +0.000 HD
BRANCH   9  11
ATOM     11  C   UNL     1       2.040   9.526  18.247  0.00  0.00    +0.000 C 
BRANCH  11  12
ATOM     12  C   UNL     1       0.519   9.587  18.574  0.00  0.00    +0.000 C 
ATOM     13  C   UNL     1      -0.254  10.628  17.770  0.00  0.00    +0.000 C 
ATOM     14  C   UNL     1      -1.574  10.721  18.502  0.00  0.00    +0.000 C 
ATOM     15  C   UNL     1      -1.171  10.566  19.957  0.00  0.00    +0.000 C 
ATOM     16  N   UNL     1       0.043   9.734  19.975  0.00  0.00    +0.000 NA
BRANCH  16  17
ATOM     17  C   UNL     1       1.047  10.178  20.936  0.00  0.00    +0.000 C 
ATOM     18  C   UNL     1       1.234   9.248  22.129  0.00  0.00    +0.000 C 
ENDBRANCH  16  17
ENDBRANCH  11  12
ENDBRANCH   9  11
ENDBRANCH   5   7
BRANCH   1  20
ATOM     19  C   UNL     1       2.924   1.414  18.833  0.00  0.00    +0.000 C 
ATOM     20  C   UNL     1       2.397   2.240  17.669  0.00  0.00    +0.000 C 
ENDBRANCH   1  20
BRANCH   3  21
ATOM     21  C   UNL     1       6.402   4.397  15.754  0.00  0.00    +0.000 C 
ATOM     22  C   UNL     1       6.118   4.038  14.297  0.00  0.00    +0.000 C 
ENDBRANCH   3  21
BRANCH   4  23
ATOM     23  O   UNL     1       5.216   7.151  16.843  0.00  0.00    +0.000 OA
ATOM     24  C   UNL     1       6.483   7.517  17.355  0.00  0.00    +0.000 C 
ENDBRANCH   4  23
BRANCH   6  25
ATOM     25  O   UNL     1       1.505   4.686  18.650  0.00  0.00    +0.000 OA
ATOM     26  H   UNL     1       0.811   5.076  18.071  0.00  0.00    +0.000 HD
ENDBRANCH   6  25
TORSDOF 8
ENDMDL
MODEL 9
REMARK VINA RESULT:      -6.3      2.685      8.363
REMARK  Name = 
REMARK  12 active torsions:
REMARK  status: ('A' for Active; 'I' for Inactive)
REMARK    1  A    between atoms: C_1  and  C_2
REMARK    2  A    between atoms: C_2  and  C_3
REMARK    3  A    between atoms: C_5  and  C_6
REMARK    4  A    between atoms: C_6  and  C_7
REMARK    5  A    between atoms: C_8  and  O_9
REMARK    6  A    between atoms: O_9  and  C_10
REMARK    7  A    between atoms: C_11  and  C_12
REMARK    8  A    between atoms: N_14  and  C_15
REMARK    9  A    between atoms: C_15  and  C_16
REMARK   10  A    between atoms: N_20  and  C_21
REMARK   11  A    between atoms: C_21  and  C_22
REMARK   12  A    between atoms: C_23  and  O_24
REMARK                            x       y       z     vdW  Elec       q    Type
REMARK                         _______ _______ _______ _____ _____    ______ ____
ROOT
ATOM      1  C   UNL     1      -1.306  11.735  21.905  0.00  0.00    +0.000 A 
ATOM      2  C   UNL     1      -1.626  12.096  20.591  0.00  0.00    +0.000 A 
ATOM      3  C   UNL     1      -1.030  11.477  19.464  0.00  0.00    +0.000 A 
ATOM      4  C   UNL     1      -0.117  10.409  19.677  0.00  0.00    +0.000 A 
ATOM      5  C   UNL     1       0.165   9.984  21.017  0.00  0.00    +0.000 A 
ATOM      6  C   UNL     1      -0.432  10.672  22.104  0.00  0.00    +0.000 A 
ENDROOT
BRANCH   5   7
ATOM      7  C   UNL     1       1.055   8.813  21.386  0.00  0.00    +0.000 C 
ATOM      8  O   UNL     1       1.825   8.924  22.343  0.00  0.00    +0.000 OA
ATOM      9  N   UNL     1       0.978   7.635  20.684  0.00  0.00    +0.000 N 
ATOM     10  H   UNL     1       0.349   7.593  19.893  0.00  0.00    +0.000 HD
BRANCH   9  11
ATOM     11  C   UNL     1       1.751   6.454  21.060  0.00  0.00    +0.000 C 
BRANCH  11  12
ATOM     12  C   UNL     1       2.612   5.797  19.940  0.00  0.00    +0.000 C 
ATOM     13  C   UNL     1       2.642   6.582  18.631  0.00  0.00    +0.000 C 
ATOM     14  C   UNL     1       3.227   5.593  17.648  0.00  0.00    +0.000 C 
ATOM     15  C   UNL     1       2.633   4.270  18.098  0.00  0.00    +0.000 C 
ATOM     16  N   UNL     1       2.404   4.379  19.548  0.00  0.00    +0.000 NA
BRANCH  16  17
ATOM     17  C   UNL     1       1.148   3.782  19.992  0.00  0.00    +0.000 C 
ATOM     18  C   UNL     1       1.288   2.810  21.158  0.00  0.00    +0.000 C 
ENDBRANCH  16  17
ENDBRANCH  11  12
ENDBRANCH   9  11
ENDBRANCH   5   7
BRANCH   1  20
ATOM     19  C   UNL     1      -1.254  13.830  23.284  0.00  0.00    +0.000 C 
ATOM     20  C   UNL     1      -1.934  12.490  23.051  0.00  0.00    +0.000 C 
ENDBRANCH   1  20
BRANCH   3  21
ATOM     21  C   UNL     1      -1.441  12.126  18.154  0.00  0.00    +0.000 C 
ATOM     22  C   UNL     1      -2.495  11.351  17.367  0.00  0.00    +0.000 C 
ENDBRANCH   3  21
BRANCH   4  23
ATOM     23  O   UNL     1       0.616   9.755  18.719  0.00  0.00    +0.000 OA
ATOM     24  C   UNL     1       1.777  10.323  18.145  0.00  0.00    +0.000 C 
ENDBRANCH   4  23
BRANCH   6  25
ATOM     25  O   UNL     1      -0.193  10.352  23.421  0.00  0.00    +0.000 OA
ATOM     26  H   UNL     1      -1.054  10.154  23.855  0.00  0.00    +0.000 HD
ENDBRANCH   6  25
TORSDOF 8
ENDMDL
