MODEL 1
REMARK VINA RESULT:      -7.3      0.000      0.000
REMARK  Name = 
REMARK  12 active torsions:
REMARK  status: ('A' for Active; 'I' for Inactive)
REMARK    1  A    between atoms: C_1  and  C_2
REMARK    2  A    between atoms: C_7  and  C_8
REMARK    3  A    between atoms: C_8  and  C_9
REMARK    4  A    between atoms: C_8  and  O_14
REMARK    5  A    between atoms: C_9  and  C_10
REMARK    6  A    between atoms: C_10  and  C_11
REMARK    7  A    between atoms: C_11  and  O_13
REMARK    8  A    between atoms: O_14  and  C_15
REMARK    9  A    between atoms: C_17  and  O_18
REMARK   10  A    between atoms: O_18  and  C_19
REMARK   11  A    between atoms: C_19  and  C_20
REMARK   12  A    between atoms: C_27  and  C_28
REMARK                            x       y       z     vdW  Elec       q    Type
REMARK                         _______ _______ _______ _____ _____    ______ ____
ROOT
ATOM      1  O   UNL     1       5.198   3.765  18.957  0.00  0.00    +0.000 OA
ENDROOT
BRANCH   1   2
ATOM      2  C   UNL     1       4.079   3.775  19.760  0.00  0.00    +0.000 A 
ATOM      3  C   UNL     1       3.184   4.850  19.803  0.00  0.00    +0.000 A 
ATOM      4  C   UNL     1       2.030   4.831  20.603  0.00  0.00    +0.000 A 
ATOM      5  C   UNL     1       1.722   3.695  21.339  0.00  0.00    +0.000 A 
ATOM      6  C   UNL     1       2.626   2.627  21.355  0.00  0.00    +0.000 A 
ATOM      7  C   UNL     1       3.830   2.683  20.625  0.00  0.00    +0.000 A 
BRANCH   7   8
ATOM      8  C   UNL     1       4.798   1.649  20.952  0.00  0.00    +0.000 C 
ATOM      9  N   UNL     1       5.576   0.888  21.337  0.00  0.00    +0.000 NA
ENDBRANCH   7   8
BRANCH   4  10
ATOM     10  O   UNL     1       1.318   6.004  20.639  0.00  0.00    +0.000 OA
BRANCH  10  11
ATOM     11  C   UNL     1       2.022   7.150  20.151  0.00  0.00    +0.000 C 
BRANCH  11  12
ATOM     12  C   UNL     1       1.422   8.439  20.611  0.00  0.00    +0.000 A 
ATOM     13  C   UNL     1       1.331   8.831  21.985  0.00  0.00    +0.000 A 
ATOM     14  N   UNL     1       0.805  10.020  22.250  0.00  0.00    +0.000 NA
ATOM     15  S   UNL     1       0.389  10.739  20.814  0.00  0.00    +0.000 S 
ATOM     16  C   UNL     1       0.930   9.458  19.816  0.00  0.00    +0.000 A 
ENDBRANCH  11  12
ENDBRANCH  10  11
ENDBRANCH   4  10
ENDBRANCH   1   2
BRANCH   1  17
ATOM     17  C   UNL     1       5.214   4.524  17.696  0.00  0.00    +0.000 C 
BRANCH  17  24
ATOM     18  C   UNL     1       4.969   7.233  16.091  0.00  0.00    +0.000 C 
ATOM     19  C   UNL     1       6.062   6.950  17.095  0.00  0.00    +0.000 A 
ATOM     20  C   UNL     1       6.966   8.009  17.353  0.00  0.00    +0.000 A 
ATOM     21  C   UNL     1       8.028   7.848  18.226  0.00  0.00    +0.000 A 
ATOM     22  C   UNL     1       8.264   6.609  18.797  0.00  0.00    +0.000 A 
ATOM     23  C   UNL     1       7.390   5.541  18.533  0.00  0.00    +0.000 A 
ATOM     24  C   UNL     1       6.222   5.706  17.764  0.00  0.00    +0.000 A 
ENDBRANCH  17  24
BRANCH  17  25
ATOM     25  C   UNL     1       5.607   3.543  16.566  0.00  0.00    +0.000 C 
BRANCH  25  26
ATOM     26  C   UNL     1       5.321   3.952  15.110  0.00  0.00    +0.000 C 
BRANCH  26  27
ATOM     27  C   UNL     1       6.550   4.272  14.295  0.00  0.00    +0.000 C 
ATOM     28  O   UNL     1       7.512   4.901  14.703  0.00  0.00    +0.000 OA
BRANCH  27  29
ATOM     29  O   UNL     1       6.488   3.783  13.035  0.00  0.00    +0.000 OA
ATOM     30  H   UNL     1       7.244   4.029  12.468  0.00  0.00    +0.000 HD
ENDBRANCH  27  29
ENDBRANCH  26  27
ENDBRANCH  25  26
ENDBRANCH  17  25
ENDBRANCH   1  17
TORSDOF 11
ENDMDL
MODEL 2
REMARK VINA RESULT:      -7.3      0.661      1.052
REMARK  Name = 
REMARK  12 active torsions:
REMARK  status: ('A' for Active; 'I' for Inactive)
REMARK    1  A    between atoms: C_1  and  C_2
REMARK    2  A    between atoms: C_7  and  C_8
REMARK    3  A    between atoms: C_8  and  C_9
REMARK    4  A    between atoms: C_8  and  O_14
REMARK    5  A    between atoms: C_9  and  C_10
REMARK    6  A    between atoms: C_10  and  C_11
REMARK    7  A    between atoms: C_11  and  O_13
REMARK    8  A    between atoms: O_14  and  C_15
REMARK    9  A    between atoms: C_17  and  O_18
REMARK   10  A    between atoms: O_18  and  C_19
REMARK   11  A    between atoms: C_19  and  C_20
REMARK   12  A    between atoms: C_27  and  C_28
REMARK                            x       y       z     vdW  Elec       q    Type
REMARK                         _______ _______ _______ _____ _____    ______ ____
ROOT
ATOM      1  O   UNL     1       4.720   3.521  18.493  0.00  0.00    +0.000 OA
ENDROOT
BRANCH   1   2
ATOM      2  C   UNL     1       3.811   3.622  19.523  0.00  0.00    +0.000 A 
ATOM      3  C   UNL     1       2.963   4.724  19.683  0.00  0.00    +0.000 A 
ATOM      4  C   UNL     1       2.020   4.797  20.720  0.00  0.00    +0.000 A 
ATOM      5  C   UNL     1       1.872   3.727  21.593  0.00  0.00    +0.000 A 
ATOM      6  C   UNL     1       2.742   2.637  21.487  0.00  0.00    +0.000 A 
ATOM      7  C   UNL     1       3.751   2.604  20.504  0.00  0.00    +0.000 A 
BRANCH   7   8
ATOM      8  C   UNL     1       4.754   1.567  20.683  0.00  0.00    +0.000 C 
ATOM      9  N   UNL     1       5.564   0.791  20.957  0.00  0.00    +0.000 NA
ENDBRANCH   7   8
BRANCH   4  10
ATOM     10  O   UNL     1       1.350   5.991  20.825  0.00  0.00    +0.000 OA
BRANCH  10  11
ATOM     11  C   UNL     1       1.949   7.081  20.119  0.00  0.00    +0.000 C 
BRANCH  11  12
ATOM     12  C   UNL     1       1.353   8.403  20.478  0.00  0.00    +0.000 A 
ATOM     13  C   UNL     1       1.101   9.448  19.532  0.00  0.00    +0.000 A 
ATOM     14  N   UNL     1       0.534  10.560  19.983  0.00  0.00    +0.000 NA
ATOM     15  S   UNL     1       0.272  10.389  21.612  0.00  0.00    +0.000 S 
ATOM     16  C   UNL     1       0.906   8.803  21.725  0.00  0.00    +0.000 A 
ENDBRANCH  11  12
ENDBRANCH  10  11
ENDBRANCH   4  10
ENDBRANCH   1   2
BRANCH   1  17
ATOM     17  C   UNL     1       4.740   4.528  17.420  0.00  0.00    +0.000 C 
BRANCH  17  24
ATOM     18  C   UNL     1       5.084   7.260  15.872  0.00  0.00    +0.000 C 
ATOM     19  C   UNL     1       6.017   6.794  16.966  0.00  0.00    +0.000 A 
ATOM     20  C   UNL     1       7.048   7.691  17.336  0.00  0.00    +0.000 A 
ATOM     21  C   UNL     1       7.982   7.351  18.299  0.00  0.00    +0.000 A 
ATOM     22  C   UNL     1       7.962   6.084  18.857  0.00  0.00    +0.000 A 
ATOM     23  C   UNL     1       6.959   5.173  18.483  0.00  0.00    +0.000 A 
ATOM     24  C   UNL     1       5.912   5.532  17.614  0.00  0.00    +0.000 A 
ENDBRANCH  17  24
BRANCH  17  25
ATOM     25  C   UNL     1       4.891   3.775  16.076  0.00  0.00    +0.000 C 
BRANCH  25  26
ATOM     26  C   UNL     1       6.296   3.648  15.461  0.00  0.00    +0.000 C 
BRANCH  26  27
ATOM     27  C   UNL     1       6.414   4.177  14.053  0.00  0.00    +0.000 C 
ATOM     28  O   UNL     1       5.829   3.722  13.085  0.00  0.00    +0.000 OA
BRANCH  27  29
ATOM     29  O   UNL     1       7.253   5.236  13.959  0.00  0.00    +0.000 OA
ATOM     30  H   UNL     1       7.020   5.875  13.258  0.00  0.00    +0.000 HD
ENDBRANCH  27  29
ENDBRANCH  26  27
ENDBRANCH  25  26
ENDBRANCH  17  25
ENDBRANCH   1  17
TORSDOF 11
ENDMDL
MODEL 3
REMARK VINA RESULT:      -7.0      4.093      8.129
REMARK  Name = 
REMARK  12 active torsions:
REMARK  status: ('A' for Active; 'I' for Inactive)
REMARK    1  A    between atoms: C_1  and  C_2
REMARK    2  A    between atoms: C_7  and  C_8
REMARK    3  A    between atoms: C_8  and  C_9
REMARK    4  A    between atoms: C_8  and  O_14
REMARK    5  A    between atoms: C_9  and  C_10
REMARK    6  A    between atoms: C_10  and  C_11
REMARK    7  A    between atoms: C_11  and  O_13
REMARK    8  A    between atoms: O_14  and  C_15
REMARK    9  A    between atoms: C_17  and  O_18
REMARK   10  A    between atoms: O_18  and  C_19
REMARK   11  A    between atoms: C_19  and  C_20
REMARK   12  A    between atoms: C_27  and  C_28
REMARK                            x       y       z     vdW  Elec       q    Type
REMARK                         _______ _______ _______ _____ _____    ______ ____
ROOT
ATOM      1  O   UNL     1       4.465   6.156  18.526  0.00  0.00    +0.000 OA
ENDROOT
BRANCH   1   2
ATOM      2  C   UNL     1       5.320   5.597  17.601  0.00  0.00    +0.000 A 
ATOM      3  C   UNL     1       4.919   5.254  16.305  0.00  0.00    +0.000 A 
ATOM      4  C   UNL     1       5.810   4.715  15.365  0.00  0.00    +0.000 A 
ATOM      5  C   UNL     1       7.150   4.562  15.695  0.00  0.00    +0.000 A 
ATOM      6  C   UNL     1       7.567   4.848  17.000  0.00  0.00    +0.000 A 
ATOM      7  C   UNL     1       6.653   5.301  17.972  0.00  0.00    +0.000 A 
BRANCH   7   8
ATOM      8  C   UNL     1       7.147   5.284  19.339  0.00  0.00    +0.000 C 
ATOM      9  N   UNL     1       7.654   5.334  20.375  0.00  0.00    +0.000 NA
ENDBRANCH   7   8
BRANCH   4  10
ATOM     10  O   UNL     1       5.246   4.310  14.181  0.00  0.00    +0.000 OA
BRANCH  10  11
ATOM     11  C   UNL     1       6.057   4.525  13.022  0.00  0.00    +0.000 C 
BRANCH  11  12
ATOM     12  C   UNL     1       6.232   3.291  12.199  0.00  0.00    +0.000 A 
ATOM     13  C   UNL     1       7.490   2.856  11.671  0.00  0.00    +0.000 A 
ATOM     14  N   UNL     1       7.508   1.720  10.985  0.00  0.00    +0.000 NA
ATOM     15  S   UNL     1       5.966   1.109  10.947  0.00  0.00    +0.000 S 
ATOM     16  C   UNL     1       5.260   2.363  11.872  0.00  0.00    +0.000 A 
ENDBRANCH  11  12
ENDBRANCH  10  11
ENDBRANCH   4  10
ENDBRANCH   1   2
BRANCH   1  17
ATOM     17  C   UNL     1       3.009   6.082  18.329  0.00  0.00    +0.000 C 
BRANCH  17  24
ATOM     18  C   UNL     1       2.387   3.259  17.057  0.00  0.00    +0.000 C 
ATOM     19  C   UNL     1       2.195   3.578  18.522  0.00  0.00    +0.000 A 
ATOM     20  C   UNL     1       1.777   2.507  19.348  0.00  0.00    +0.000 A 
ATOM     21  C   UNL     1       1.533   2.696  20.697  0.00  0.00    +0.000 A 
ATOM     22  C   UNL     1       1.618   3.968  21.238  0.00  0.00    +0.000 A 
ATOM     23  C   UNL     1       2.008   5.046  20.426  0.00  0.00    +0.000 A 
ATOM     24  C   UNL     1       2.400   4.868  19.086  0.00  0.00    +0.000 A 
ENDBRANCH  17  24
BRANCH  17  25
ATOM     25  C   UNL     1       2.400   7.405  18.853  0.00  0.00    +0.000 C 
BRANCH  25  26
ATOM     26  C   UNL     1       1.901   8.438  17.826  0.00  0.00    +0.000 C 
BRANCH  26  27
ATOM     27  C   UNL     1       1.050   9.540  18.409  0.00  0.00    +0.000 C 
ATOM     28  O   UNL     1       1.162   9.984  19.539  0.00  0.00    +0.000 OA
BRANCH  27  29
ATOM     29  O   UNL     1       0.125  10.006  17.537  0.00  0.00    +0.000 OA
ATOM     30  H   UNL     1      -0.534   9.342  17.254  0.00  0.00    +0.000 HD
ENDBRANCH  27  29
ENDBRANCH  26  27
ENDBRANCH  25  26
ENDBRANCH  17  25
ENDBRANCH   1  17
TORSDOF 11
ENDMDL
MODEL 4
REMARK VINA RESULT:      -6.9      2.609      3.535
REMARK  Name = 
REMARK  12 active torsions:
REMARK  status: ('A' for Active; 'I' for Inactive)
REMARK    1  A    between atoms: C_1  and  C_2
REMARK    2  A    between atoms: C_7  and  C_8
REMARK    3  A    between atoms: C_8  and  C_9
REMARK    4  A    between atoms: C_8  and  O_14
REMARK    5  A    between atoms: C_9  and  C_10
REMARK    6  A    between atoms: C_10  and  C_11
REMARK    7  A    between atoms: C_11  and  O_13
REMARK    8  A    between atoms: O_14  and  C_15
REMARK    9  A    between atoms: C_17  and  O_18
REMARK   10  A    between atoms: O_18  and  C_19
REMARK   11  A    between atoms: C_19  and  C_20
REMARK   12  A    between atoms: C_27  and  C_28
REMARK                            x       y       z     vdW  Elec       q    Type
REMARK                         _______ _______ _______ _____ _____    ______ ____
ROOT
ATOM      1  O   UNL     1       3.451   4.636  18.956  0.00  0.00    +0.000 OA
ENDROOT
BRANCH   1   2
ATOM      2  C   UNL     1       2.691   5.635  19.524  0.00  0.00    +0.000 A 
ATOM      3  C   UNL     1       2.671   6.946  19.035  0.00  0.00    +0.000 A 
ATOM      4  C   UNL     1       1.866   7.944  19.605  0.00  0.00    +0.000 A 
ATOM      5  C   UNL     1       1.014   7.626  20.655  0.00  0.00    +0.000 A 
ATOM      6  C   UNL     1       1.053   6.337  21.196  0.00  0.00    +0.000 A 
ATOM      7  C   UNL     1       1.929   5.359  20.684  0.00  0.00    +0.000 A 
BRANCH   7   8
ATOM      8  C   UNL     1       2.077   4.170  21.508  0.00  0.00    +0.000 C 
ATOM      9  N   UNL     1       2.210   3.156  22.043  0.00  0.00    +0.000 NA
ENDBRANCH   7   8
BRANCH   4  10
ATOM     10  O   UNL     1       2.047   9.208  19.101  0.00  0.00    +0.000 OA
BRANCH  10  11
ATOM     11  C   UNL     1       1.184   9.552  18.013  0.00  0.00    +0.000 C 
BRANCH  11  12
ATOM     12  C   UNL     1      -0.005  10.347  18.445  0.00  0.00    +0.000 A 
ATOM     13  C   UNL     1      -1.292  10.259  17.822  0.00  0.00    +0.000 A 
ATOM     14  N   UNL     1      -2.271  10.998  18.330  0.00  0.00    +0.000 NA
ATOM     15  S   UNL     1      -1.666  11.852  19.618  0.00  0.00    +0.000 S 
ATOM     16  C   UNL     1      -0.078  11.221  19.514  0.00  0.00    +0.000 A 
ENDBRANCH  11  12
ENDBRANCH  10  11
ENDBRANCH   4  10
ENDBRANCH   1   2
BRANCH   1  17
ATOM     17  C   UNL     1       4.061   4.830  17.632  0.00  0.00    +0.000 C 
BRANCH  17  24
ATOM     18  C   UNL     1       5.351   6.785  15.513  0.00  0.00    +0.000 C 
ATOM     19  C   UNL     1       6.004   6.425  16.827  0.00  0.00    +0.000 A 
ATOM     20  C   UNL     1       7.228   7.075  17.118  0.00  0.00    +0.000 A 
ATOM     21  C   UNL     1       7.932   6.792  18.275  0.00  0.00    +0.000 A 
ATOM     22  C   UNL     1       7.479   5.800  19.128  0.00  0.00    +0.000 A 
ATOM     23  C   UNL     1       6.278   5.129  18.842  0.00  0.00    +0.000 A 
ATOM     24  C   UNL     1       5.465   5.487  17.750  0.00  0.00    +0.000 A 
ENDBRANCH  17  24
BRANCH  17  25
ATOM     25  C   UNL     1       4.170   3.440  16.960  0.00  0.00    +0.000 C 
BRANCH  25  26
ATOM     26  C   UNL     1       3.035   2.426  17.186  0.00  0.00    +0.000 C 
BRANCH  26  27
ATOM     27  C   UNL     1       3.079   1.721  18.520  0.00  0.00    +0.000 C 
ATOM     28  O   UNL     1       4.093   1.309  19.057  0.00  0.00    +0.000 OA
BRANCH  27  29
ATOM     29  O   UNL     1       1.856   1.586  19.084  0.00  0.00    +0.000 OA
ATOM     30  H   UNL     1       1.870   1.282  20.012  0.00  0.00    +0.000 HD
ENDBRANCH  27  29
ENDBRANCH  26  27
ENDBRANCH  25  26
ENDBRANCH  17  25
ENDBRANCH   1  17
TORSDOF 11
ENDMDL
MODEL 5
REMARK VINA RESULT:      -6.9      3.258      6.762
REMARK  Name = 
REMARK  12 active torsions:
REMARK  status: ('A' for Active; 'I' for Inactive)
REMARK    1  A    between atoms: C_1  and  C_2
REMARK    2  A    between atoms: C_7  and  C_8
REMARK    3  A    between atoms: C_8  and  C_9
REMARK    4  A    between atoms: C_8  and  O_14
REMARK    5  A    between atoms: C_9  and  C_10
REMARK    6  A    between atoms: C_10  and  C_11
REMARK    7  A    between atoms: C_11  and  O_13
REMARK    8  A    between atoms: O_14  and  C_15
REMARK    9  A    between atoms: C_17  and  O_18
REMARK   10  A    between atoms: O_18  and  C_19
REMARK   11  A    between atoms: C_19  and  C_20
REMARK   12  A    between atoms: C_27  and  C_28
REMARK                            x       y       z     vdW  Elec       q    Type
REMARK                         _______ _______ _______ _____ _____    ______ ____
ROOT
ATOM      1  O   UNL     1       2.667   6.309  18.414  0.00  0.00    +0.000 OA
ENDROOT
BRANCH   1   2
ATOM      2  C   UNL     1       3.894   6.046  17.843  0.00  0.00    +0.000 A 
ATOM      3  C   UNL     1       4.904   7.009  17.738  0.00  0.00    +0.000 A 
ATOM      4  C   UNL     1       6.160   6.717  17.183  0.00  0.00    +0.000 A 
ATOM      5  C   UNL     1       6.446   5.423  16.770  0.00  0.00    +0.000 A 
ATOM      6  C   UNL     1       5.436   4.455  16.815  0.00  0.00    +0.000 A 
ATOM      7  C   UNL     1       4.146   4.771  17.286  0.00  0.00    +0.000 A 
BRANCH   7   8
ATOM      8  C   UNL     1       3.128   3.770  17.014  0.00  0.00    +0.000 C 
ATOM      9  N   UNL     1       2.257   3.018  16.916  0.00  0.00    +0.000 NA
ENDBRANCH   7   8
BRANCH   4  10
ATOM     10  O   UNL     1       7.002   7.791  17.031  0.00  0.00    +0.000 OA
BRANCH  10  11
ATOM     11  C   UNL     1       8.005   7.917  18.043  0.00  0.00    +0.000 C 
BRANCH  11  12
ATOM     12  C   UNL     1       8.426   9.332  18.270  0.00  0.00    +0.000 A 
ATOM     13  C   UNL     1       9.184   9.766  19.404  0.00  0.00    +0.000 A 
ATOM     14  N   UNL     1       9.521  11.049  19.462  0.00  0.00    +0.000 NA
ATOM     15  S   UNL     1       8.923  11.807  18.113  0.00  0.00    +0.000 S 
ATOM     16  C   UNL     1       8.217  10.408  17.426  0.00  0.00    +0.000 A 
ENDBRANCH  11  12
ENDBRANCH  10  11
ENDBRANCH   4  10
ENDBRANCH   1   2
BRANCH   1  17
ATOM     17  C   UNL     1       2.573   6.669  19.837  0.00  0.00    +0.000 C 
BRANCH  17  24
ATOM     18  C   UNL     1       2.205   9.026  17.767  0.00  0.00    +0.000 C 
ATOM     19  C   UNL     1       1.449   8.932  19.073  0.00  0.00    +0.000 A 
ATOM     20  C   UNL     1       0.482   9.938  19.311  0.00  0.00    +0.000 A 
ATOM     21  C   UNL     1      -0.241   9.971  20.490  0.00  0.00    +0.000 A 
ATOM     22  C   UNL     1       0.038   9.057  21.492  0.00  0.00    +0.000 A 
ATOM     23  C   UNL     1       1.012   8.066  21.280  0.00  0.00    +0.000 A 
ATOM     24  C   UNL     1       1.666   7.914  20.042  0.00  0.00    +0.000 A 
ENDBRANCH  17  24
BRANCH  17  25
ATOM     25  C   UNL     1       1.993   5.448  20.591  0.00  0.00    +0.000 C 
BRANCH  25  26
ATOM     26  C   UNL     1       2.826   4.155  20.639  0.00  0.00    +0.000 C 
BRANCH  26  27
ATOM     27  C   UNL     1       2.031   2.907  20.937  0.00  0.00    +0.000 C 
ATOM     28  O   UNL     1       1.694   2.080  20.108  0.00  0.00    +0.000 OA
BRANCH  27  29
ATOM     29  O   UNL     1       1.717   2.786  22.249  0.00  0.00    +0.000 OA
ATOM     30  H   UNL     1       1.597   3.635  22.716  0.00  0.00    +0.000 HD
ENDBRANCH  27  29
ENDBRANCH  26  27
ENDBRANCH  25  26
ENDBRANCH  17  25
ENDBRANCH   1  17
TORSDOF 11
ENDMDL
MODEL 6
REMARK VINA RESULT:      -6.8      1.979      2.904
REMARK  Name = 
REMARK  12 active torsions:
REMARK  status: ('A' for Active; 'I' for Inactive)
REMARK    1  A    between atoms: C_1  and  C_2
REMARK    2  A    between atoms: C_7  and  C_8
REMARK    3  A    between atoms: C_8  and  C_9
REMARK    4  A    between atoms: C_8  and  O_14
REMARK    5  A    between atoms: C_9  and  C_10
REMARK    6  A    between atoms: C_10  and  C_11
REMARK    7  A    between atoms: C_11  and  O_13
REMARK    8  A    between atoms: O_14  and  C_15
REMARK    9  A    between atoms: C_17  and  O_18
REMARK   10  A    between atoms: O_18  and  C_19
REMARK   11  A    between atoms: C_19  and  C_20
REMARK   12  A    between atoms: C_27  and  C_28
REMARK                            x       y       z     vdW  Elec       q    Type
REMARK                         _______ _______ _______ _____ _____    ______ ____
ROOT
ATOM      1  O   UNL     1       3.421   4.795  18.006  0.00  0.00    +0.000 OA
ENDROOT
BRANCH   1   2
ATOM      2  C   UNL     1       2.740   5.648  18.847  0.00  0.00    +0.000 A 
ATOM      3  C   UNL     1       2.547   7.004  18.560  0.00  0.00    +0.000 A 
ATOM      4  C   UNL     1       1.824   7.853  19.413  0.00  0.00    +0.000 A 
ATOM      5  C   UNL     1       1.226   7.335  20.555  0.00  0.00    +0.000 A 
ATOM      6  C   UNL     1       1.447   5.995  20.891  0.00  0.00    +0.000 A 
ATOM      7  C   UNL     1       2.251   5.166  20.084  0.00  0.00    +0.000 A 
BRANCH   7   8
ATOM      8  C   UNL     1       2.631   3.899  20.687  0.00  0.00    +0.000 C 
ATOM      9  N   UNL     1       2.840   2.923  21.267  0.00  0.00    +0.000 NA
ENDBRANCH   7   8
BRANCH   4  10
ATOM     10  O   UNL     1       1.828   9.181  19.066  0.00  0.00    +0.000 OA
BRANCH  10  11
ATOM     11  C   UNL     1       0.988  10.015  19.870  0.00  0.00    +0.000 C 
BRANCH  11  12
ATOM     12  C   UNL     1      -0.236  10.475  19.148  0.00  0.00    +0.000 A 
ATOM     13  C   UNL     1      -0.636   9.985  17.864  0.00  0.00    +0.000 A 
ATOM     14  N   UNL     1      -1.767  10.454  17.353  0.00  0.00    +0.000 NA
ATOM     15  S   UNL     1      -2.416  11.537  18.430  0.00  0.00    +0.000 S 
ATOM     16  C   UNL     1      -1.186  11.370  19.607  0.00  0.00    +0.000 A 
ENDBRANCH  11  12
ENDBRANCH  10  11
ENDBRANCH   4  10
ENDBRANCH   1   2
BRANCH   1  17
ATOM     17  C   UNL     1       4.335   5.332  16.985  0.00  0.00    +0.000 C 
BRANCH  17  24
ATOM     18  C   UNL     1       5.855   4.065  19.447  0.00  0.00    +0.000 C 
ATOM     19  C   UNL     1       6.347   5.278  18.692  0.00  0.00    +0.000 A 
ATOM     20  C   UNL     1       7.597   5.805  19.099  0.00  0.00    +0.000 A 
ATOM     21  C   UNL     1       8.126   6.937  18.503  0.00  0.00    +0.000 A 
ATOM     22  C   UNL     1       7.388   7.618  17.550  0.00  0.00    +0.000 A 
ATOM     23  C   UNL     1       6.135   7.122  17.153  0.00  0.00    +0.000 A 
ATOM     24  C   UNL     1       5.629   5.899  17.633  0.00  0.00    +0.000 A 
ENDBRANCH  17  24
BRANCH  17  25
ATOM     25  C   UNL     1       4.677   4.178  16.012  0.00  0.00    +0.000 C 
BRANCH  25  26
ATOM     26  C   UNL     1       6.158   3.899  15.700  0.00  0.00    +0.000 C 
BRANCH  26  27
ATOM     27  C   UNL     1       6.594   4.306  14.314  0.00  0.00    +0.000 C 
ATOM     28  O   UNL     1       7.182   5.339  14.042  0.00  0.00    +0.000 OA
BRANCH  27  29
ATOM     29  O   UNL     1       6.265   3.392  13.370  0.00  0.00    +0.000 OA
ATOM     30  H   UNL     1       5.592   3.696  12.731  0.00  0.00    +0.000 HD
ENDBRANCH  27  29
ENDBRANCH  26  27
ENDBRANCH  25  26
ENDBRANCH  17  25
ENDBRANCH   1  17
TORSDOF 11
ENDMDL
MODEL 7
REMARK VINA RESULT:      -6.8      3.664      6.608
REMARK  Name = 
REMARK  12 active torsions:
REMARK  status: ('A' for Active; 'I' for Inactive)
REMARK    1  A    between atoms: C_1  and  C_2
REMARK    2  A    between atoms: C_7  and  C_8
REMARK    3  A    between atoms: C_8  and  C_9
REMARK    4  A    between atoms: C_8  and  O_14
REMARK    5  A    between atoms: C_9  and  C_10
REMARK    6  A    between atoms: C_10  and  C_11
REMARK    7  A    between atoms: C_11  and  O_13
REMARK    8  A    between atoms: O_14  and  C_15
REMARK    9  A    between atoms: C_17  and  O_18
REMARK   10  A    between atoms: O_18  and  C_19
REMARK   11  A    between atoms: C_19  and  C_20
REMARK   12  A    between atoms: C_27  and  C_28
REMARK                            x       y       z     vdW  Elec       q    Type
REMARK                         _______ _______ _______ _____ _____    ______ ____
ROOT
ATOM      1  O   UNL     1       4.072   6.560  17.451  0.00  0.00    +0.000 OA
ENDROOT
BRANCH   1   2
ATOM      2  C   UNL     1       5.392   6.222  17.654  0.00  0.00    +0.000 A 
ATOM      3  C   UNL     1       6.354   7.143  18.083  0.00  0.00    +0.000 A 
ATOM      4  C   UNL     1       7.689   6.775  18.317  0.00  0.00    +0.000 A 
ATOM      5  C   UNL     1       8.072   5.448  18.176  0.00  0.00    +0.000 A 
ATOM      6  C   UNL     1       7.143   4.518  17.698  0.00  0.00    +0.000 A 
ATOM      7  C   UNL     1       5.827   4.905  17.375  0.00  0.00    +0.000 A 
BRANCH   7   8
ATOM      8  C   UNL     1       5.060   3.921  16.628  0.00  0.00    +0.000 C 
ATOM      9  N   UNL     1       4.364   3.244  16.003  0.00  0.00    +0.000 NA
ENDBRANCH   7   8
BRANCH   4  10
ATOM     10  O   UNL     1       8.543   7.809  18.610  0.00  0.00    +0.000 OA
BRANCH  10  11
ATOM     11  C   UNL     1       8.182   9.069  18.035  0.00  0.00    +0.000 C 
BRANCH  11  12
ATOM     12  C   UNL     1       8.987  10.205  18.575  0.00  0.00    +0.000 A 
ATOM     13  C   UNL     1       9.248  10.406  19.969  0.00  0.00    +0.000 A 
ATOM     14  N   UNL     1      10.009  11.439  20.308  0.00  0.00    +0.000 NA
ATOM     15  S   UNL     1      10.456  12.235  18.922  0.00  0.00    +0.000 S 
ATOM     16  C   UNL     1       9.641  11.183  17.847  0.00  0.00    +0.000 A 
ENDBRANCH  11  12
ENDBRANCH  10  11
ENDBRANCH   4  10
ENDBRANCH   1   2
BRANCH   1  17
ATOM     17  C   UNL     1       3.089   6.400  18.535  0.00  0.00    +0.000 C 
BRANCH  17  24
ATOM     18  C   UNL     1       1.398   7.099  21.109  0.00  0.00    +0.000 C 
ATOM     19  C   UNL     1       1.576   8.043  19.942  0.00  0.00    +0.000 A 
ATOM     20  C   UNL     1       0.994   9.326  20.079  0.00  0.00    +0.000 A 
ATOM     21  C   UNL     1       1.062  10.256  19.057  0.00  0.00    +0.000 A 
ATOM     22  C   UNL     1       1.636   9.905  17.846  0.00  0.00    +0.000 A 
ATOM     23  C   UNL     1       2.197   8.626  17.686  0.00  0.00    +0.000 A 
ATOM     24  C   UNL     1       2.272   7.705  18.748  0.00  0.00    +0.000 A 
ENDBRANCH  17  24
BRANCH  17  25
ATOM     25  C   UNL     1       2.151   5.233  18.146  0.00  0.00    +0.000 C 
BRANCH  25  26
ATOM     26  C   UNL     1       2.184   3.952  18.999  0.00  0.00    +0.000 C 
BRANCH  26  27
ATOM     27  C   UNL     1       1.402   2.796  18.425  0.00  0.00    +0.000 C 
ATOM     28  O   UNL     1       0.259   2.505  18.735  0.00  0.00    +0.000 OA
BRANCH  27  29
ATOM     29  O   UNL     1       2.104   2.092  17.506  0.00  0.00    +0.000 OA
ATOM     30  H   UNL     1       3.073   2.200  17.568  0.00  0.00    +0.000 HD
ENDBRANCH  27  29
ENDBRANCH  26  27
ENDBRANCH  25  26
ENDBRANCH  17  25
ENDBRANCH   1  17
TORSDOF 11
ENDMDL
MODEL 8
REMARK VINA RESULT:      -6.8      1.613      2.282
REMARK  Name = 
REMARK  12 active torsions:
REMARK  status: ('A' for Active; 'I' for Inactive)
REMARK    1  A    between atoms: C_1  and  C_2
REMARK    2  A    between atoms: C_7  and  C_8
REMARK    3  A    between atoms: C_8  and  C_9
REMARK    4  A    between atoms: C_8  and  O_14
REMARK    5  A    between atoms: C_9  and  C_10
REMARK    6  A    between atoms: C_10  and  C_11
REMARK    7  A    between atoms: C_11  and  O_13
REMARK    8  A    between atoms: O_14  and  C_15
REMARK    9  A    between atoms: C_17  and  O_18
REMARK   10  A    between atoms: O_18  and  C_19
REMARK   11  A    between atoms: C_19  and  C_20
REMARK   12  A    between atoms: C_27  and  C_28
REMARK                            x       y       z     vdW  Elec       q    Type
REMARK                         _______ _______ _______ _____ _____    ______ ____
ROOT
ATOM      1  O   UNL     1       3.821   5.496  17.174  0.00  0.00    +0.000 OA
ENDROOT
BRANCH   1   2
ATOM      2  C   UNL     1       3.094   5.661  18.332  0.00  0.00    +0.000 A 
ATOM      3  C   UNL     1       2.687   6.916  18.801  0.00  0.00    +0.000 A 
ATOM      4  C   UNL     1       1.919   7.065  19.967  0.00  0.00    +0.000 A 
ATOM      5  C   UNL     1       1.494   5.939  20.660  0.00  0.00    +0.000 A 
ATOM      6  C   UNL     1       1.931   4.677  20.243  0.00  0.00    +0.000 A 
ATOM      7  C   UNL     1       2.779   4.533  19.126  0.00  0.00    +0.000 A 
BRANCH   7   8
ATOM      8  C   UNL     1       3.383   3.220  18.975  0.00  0.00    +0.000 C 
ATOM      9  N   UNL     1       3.831   2.156  18.990  0.00  0.00    +0.000 NA
ENDBRANCH   7   8
BRANCH   4  10
ATOM     10  O   UNL     1       1.705   8.359  20.371  0.00  0.00    +0.000 OA
BRANCH  10  11
ATOM     11  C   UNL     1       1.405   8.514  21.761  0.00  0.00    +0.000 C 
BRANCH  11  12
ATOM     12  C   UNL     1       0.534   9.695  22.039  0.00  0.00    +0.000 A 
ATOM     13  C   UNL     1      -0.380   9.770  23.139  0.00  0.00    +0.000 A 
ATOM     14  N   UNL     1      -1.068  10.895  23.289  0.00  0.00    +0.000 NA
ATOM     15  S   UNL     1      -0.629  11.941  22.078  0.00  0.00    +0.000 S 
ATOM     16  C   UNL     1       0.509  10.892  21.347  0.00  0.00    +0.000 A 
ENDBRANCH  11  12
ENDBRANCH  10  11
ENDBRANCH   4  10
ENDBRANCH   1   2
BRANCH   1  17
ATOM     17  C   UNL     1       4.890   6.445  16.826  0.00  0.00    +0.000 C 
BRANCH  17  24
ATOM     18  C   UNL     1       7.226   8.517  17.299  0.00  0.00    +0.000 C 
ATOM     19  C   UNL     1       7.180   7.146  17.934  0.00  0.00    +0.000 A 
ATOM     20  C   UNL     1       8.225   6.839  18.839  0.00  0.00    +0.000 A 
ATOM     21  C   UNL     1       8.304   5.600  19.449  0.00  0.00    +0.000 A 
ATOM     22  C   UNL     1       7.395   4.611  19.111  0.00  0.00    +0.000 A 
ATOM     23  C   UNL     1       6.365   4.892  18.197  0.00  0.00    +0.000 A 
ATOM     24  C   UNL     1       6.171   6.181  17.666  0.00  0.00    +0.000 A 
ENDBRANCH  17  24
BRANCH  17  25
ATOM     25  C   UNL     1       5.189   6.278  15.317  0.00  0.00    +0.000 C 
BRANCH  25  26
ATOM     26  C   UNL     1       5.488   4.867  14.781  0.00  0.00    +0.000 C 
BRANCH  26  27
ATOM     27  C   UNL     1       6.781   4.749  14.012  0.00  0.00    +0.000 C 
ATOM     28  O   UNL     1       6.922   4.121  12.976  0.00  0.00    +0.000 OA
BRANCH  27  29
ATOM     29  O   UNL     1       7.800   5.425  14.592  0.00  0.00    +0.000 OA
ATOM     30  H   UNL     1       7.941   5.213  15.535  0.00  0.00    +0.000 HD
ENDBRANCH  27  29
ENDBRANCH  26  27
ENDBRANCH  25  26
ENDBRANCH  17  25
ENDBRANCH   1  17
TORSDOF 11
ENDMDL
MODEL 9
REMARK VINA RESULT:      -6.8      3.058      6.638
REMARK  Name = 
REMARK  12 active torsions:
REMARK  status: ('A' for Active; 'I' for Inactive)
REMARK    1  A    between atoms: C_1  and  C_2
REMARK    2  A    between atoms: C_7  and  C_8
REMARK    3  A    between atoms: C_8  and  C_9
REMARK    4  A    between atoms: C_8  and  O_14
REMARK    5  A    between atoms: C_9  and  C_10
REMARK    6  A    between atoms: C_10  and  C_11
REMARK    7  A    between atoms: C_11  and  O_13
REMARK    8  A    between atoms: O_14  and  C_15
REMARK    9  A    between atoms: C_17  and  O_18
REMARK   10  A    between atoms: O_18  and  C_19
REMARK   11  A    between atoms: C_19  and  C_20
REMARK   12  A    between atoms: C_27  and  C_28
REMARK                            x       y       z     vdW  Elec       q    Type
REMARK                         _______ _______ _______ _____ _____    ______ ____
ROOT
ATOM      1  O   UNL     1       1.888   5.839  18.437  0.00  0.00    +0.000 OA
ENDROOT
BRANCH   1   2
ATOM      2  C   UNL     1       2.731   4.987  17.759  0.00  0.00    +0.000 A 
ATOM      3  C   UNL     1       3.797   5.440  16.972  0.00  0.00    +0.000 A 
ATOM      4  C   UNL     1       4.667   4.557  16.313  0.00  0.00    +0.000 A 
ATOM      5  C   UNL     1       4.515   3.187  16.481  0.00  0.00    +0.000 A 
ATOM      6  C   UNL     1       3.427   2.708  17.219  0.00  0.00    +0.000 A 
ATOM      7  C   UNL     1       2.499   3.592  17.803  0.00  0.00    +0.000 A 
BRANCH   7   8
ATOM      8  C   UNL     1       1.277   2.972  18.289  0.00  0.00    +0.000 C 
ATOM      9  N   UNL     1       0.369   2.357  18.649  0.00  0.00    +0.000 NA
ENDBRANCH   7   8
BRANCH   4  10
ATOM     10  O   UNL     1       5.584   5.146  15.478  0.00  0.00    +0.000 OA
BRANCH  10  11
ATOM     11  C   UNL     1       6.950   4.843  15.776  0.00  0.00    +0.000 C 
BRANCH  11  12
ATOM     12  C   UNL     1       7.396   5.400  17.087  0.00  0.00    +0.000 A 
ATOM     13  C   UNL     1       7.579   6.798  17.339  0.00  0.00    +0.000 A 
ATOM     14  N   UNL     1       7.945   7.158  18.563  0.00  0.00    +0.000 NA
ATOM     15  S   UNL     1       8.088   5.789  19.489  0.00  0.00    +0.000 S 
ATOM     16  C   UNL     1       7.640   4.695  18.253  0.00  0.00    +0.000 A 
ENDBRANCH  11  12
ENDBRANCH  10  11
ENDBRANCH   4  10
ENDBRANCH   1   2
BRANCH   1  17
ATOM     17  C   UNL     1       2.238   6.314  19.785  0.00  0.00    +0.000 C 
BRANCH  17  24
ATOM     18  C   UNL     1       2.311   8.708  17.726  0.00  0.00    +0.000 C 
ATOM     19  C   UNL     1       1.646   8.788  19.082  0.00  0.00    +0.000 A 
ATOM     20  C   UNL     1       0.971   9.996  19.379  0.00  0.00    +0.000 A 
ATOM     21  C   UNL     1       0.360  10.193  20.605  0.00  0.00    +0.000 A 
ATOM     22  C   UNL     1       0.478   9.229  21.592  0.00  0.00    +0.000 A 
ATOM     23  C   UNL     1       1.165   8.034  21.321  0.00  0.00    +0.000 A 
ATOM     24  C   UNL     1       1.676   7.740  20.042  0.00  0.00    +0.000 A 
ENDBRANCH  17  24
BRANCH  17  25
ATOM     25  C   UNL     1       1.648   5.308  20.802  0.00  0.00    +0.000 C 
BRANCH  25  26
ATOM     26  C   UNL     1       2.619   4.505  21.686  0.00  0.00    +0.000 C 
BRANCH  26  27
ATOM     27  C   UNL     1       2.510   3.007  21.536  0.00  0.00    +0.000 C 
ATOM     28  O   UNL     1       3.337   2.300  20.986  0.00  0.00    +0.000 OA
BRANCH  27  29
ATOM     29  O   UNL     1       1.379   2.505  22.084  0.00  0.00    +0.000 OA
ATOM     30  H   UNL     1       1.428   1.556  22.313  0.00  0.00    +0.000 HD
ENDBRANCH  27  29
ENDBRANCH  26  27
ENDBRANCH  25  26
ENDBRANCH  17  25
ENDBRANCH   1  17
TORSDOF 11
ENDMDL
