MODEL 1
REMARK VINA RESULT:      -7.4      0.000      0.000
REMARK  Name = 
REMARK  10 active torsions:
REMARK  status: ('A' for Active; 'I' for Inactive)
REMARK    1  A    between atoms: C_1  and  C_2
REMARK    2  A    between atoms: C_2  and  O_3
REMARK    3  A    between atoms: O_3  and  C_4
REMARK    4  A    between atoms: C_4  and  C_6
REMARK    5  A    between atoms: N_13  and  C_14
REMARK    6  A    between atoms: C_14  and  C_15
REMARK    7  A    between atoms: C_15  and  C_17
REMARK    8  A    between atoms: C_17  and  O_18
REMARK    9  A    between atoms: O_18  and  C_19
REMARK   10  A    between atoms: C_25  and  N_26
REMARK                            x       y       z     vdW  Elec       q    Type
REMARK                         _______ _______ _______ _____ _____    ______ ____
ROOT
ATOM      1  C   UNL     1       3.694   5.094  19.234  0.00  0.00    +0.000 A 
ATOM      2  C   UNL     1       2.684   5.372  20.165  0.00  0.00    +0.000 A 
ATOM      3  N   UNL     1       1.938   6.500  20.229  0.00  0.00    +0.000 NA
ATOM      4  C   UNL     1       2.278   7.378  19.269  0.00  0.00    +0.000 A 
ATOM      5  C   UNL     1       3.231   7.208  18.267  0.00  0.00    +0.000 A 
ATOM      6  C   UNL     1       3.106   8.387  17.501  0.00  0.00    +0.000 A 
ATOM      7  N   UNL     1       2.216   9.243  17.989  0.00  0.00    +0.000 NA
ATOM      8  N   UNL     1       1.739   8.629  19.084  0.00  0.00    +0.000 N 
ATOM      9  C   UNL     1       4.005   6.018  18.198  0.00  0.00    +0.000 A 
ENDROOT
BRANCH   9  10
ATOM     10  N   UNL     1       4.917   5.808  17.182  0.00  0.00    +0.000 N 
ATOM     11  C   UNL     1       4.712   4.842  16.086  0.00  0.00    +0.000 C 
ATOM     12  C   UNL     1       5.935   3.912  15.997  0.00  0.00    +0.000 C 
ATOM     13  O   UNL     1       7.145   4.663  15.796  0.00  0.00    +0.000 OA
ATOM     14  C   UNL     1       7.348   5.585  16.880  0.00  0.00    +0.000 C 
ATOM     15  C   UNL     1       6.173   6.565  17.037  0.00  0.00    +0.000 C 
ENDBRANCH   9  10
BRANCH   1  16
ATOM     16  C   UNL     1       4.495   3.874  19.477  0.00  0.00    +0.000 C 
ATOM     17  O   UNL     1       5.714   3.827  19.462  0.00  0.00    +0.000 OA
BRANCH  16  18
ATOM     18  O   UNL     1       3.672   2.811  19.684  0.00  0.00    +0.000 OA
BRANCH  18  20
ATOM     19  C   UNL     1       2.495   2.239  17.619  0.00  0.00    +0.000 C 
ATOM     20  C   UNL     1       3.596   1.871  18.599  0.00  0.00    +0.000 C 
ENDBRANCH  18  20
ENDBRANCH  16  18
ENDBRANCH   1  16
BRANCH   8  21
ATOM     21  C   UNL     1       0.724   9.263  19.906  0.00  0.00    +0.000 C 
BRANCH  21  22
ATOM     22  C   UNL     1       0.338  10.713  19.556  0.00  0.00    +0.000 C 
ATOM     23 CL   UNL     1      -1.436  10.865  19.284  0.00  0.00    +0.000 Cl
BRANCH  22  24
ATOM     24  C   UNL     1       0.846  11.737  20.585  0.00  0.00    +0.000 C 
BRANCH  24  25
ATOM     25  O   UNL     1       0.477  11.358  21.913  0.00  0.00    +0.000 OA
BRANCH  25  26
ATOM     26  C   UNL     1      -0.626  11.996  22.420  0.00  0.00    +0.000 A 
ATOM     27  C   UNL     1      -0.561  13.390  22.372  0.00  0.00    +0.000 A 
ATOM     28  C   UNL     1      -1.594  14.169  22.897  0.00  0.00    +0.000 A 
ATOM     29  C   UNL     1      -2.711  13.554  23.457  0.00  0.00    +0.000 A 
ATOM     30  C   UNL     1      -2.804  12.163  23.473  0.00  0.00    +0.000 A 
ATOM     31  C   UNL     1      -1.767  11.385  22.951  0.00  0.00    +0.000 A 
ENDBRANCH  25  26
ENDBRANCH  24  25
ENDBRANCH  22  24
ENDBRANCH  21  22
ENDBRANCH   8  21
TORSDOF 9
ENDMDL
MODEL 2
REMARK VINA RESULT:      -7.3      0.892      1.516
REMARK  Name = 
REMARK  10 active torsions:
REMARK  status: ('A' for Active; 'I' for Inactive)
REMARK    1  A    between atoms: C_1  and  C_2
REMARK    2  A    between atoms: C_2  and  O_3
REMARK    3  A    between atoms: O_3  and  C_4
REMARK    4  A    between atoms: C_4  and  C_6
REMARK    5  A    between atoms: N_13  and  C_14
REMARK    6  A    between atoms: C_14  and  C_15
REMARK    7  A    between atoms: C_15  and  C_17
REMARK    8  A    between atoms: C_17  and  O_18
REMARK    9  A    between atoms: O_18  and  C_19
REMARK   10  A    between atoms: C_25  and  N_26
REMARK                            x       y       z     vdW  Elec       q    Type
REMARK                         _______ _______ _______ _____ _____    ______ ____
ROOT
ATOM      1  C   UNL     1       3.449   4.447  19.552  0.00  0.00    +0.000 A 
ATOM      2  C   UNL     1       2.419   4.940  20.366  0.00  0.00    +0.000 A 
ATOM      3  N   UNL     1       1.861   6.171  20.298  0.00  0.00    +0.000 NA
ATOM      4  C   UNL     1       2.420   6.920  19.331  0.00  0.00    +0.000 A 
ATOM      5  C   UNL     1       3.418   6.537  18.436  0.00  0.00    +0.000 A 
ATOM      6  C   UNL     1       3.551   7.668  17.601  0.00  0.00    +0.000 A 
ATOM      7  N   UNL     1       2.770   8.681  17.954  0.00  0.00    +0.000 NA
ATOM      8  N   UNL     1       2.107   8.224  19.029  0.00  0.00    +0.000 N 
ATOM      9  C   UNL     1       3.994   5.240  18.505  0.00  0.00    +0.000 A 
ENDROOT
BRANCH   9  10
ATOM     10  N   UNL     1       4.946   4.823  17.594  0.00  0.00    +0.000 N 
ATOM     11  C   UNL     1       6.390   5.078  17.746  0.00  0.00    +0.000 C 
ATOM     12  C   UNL     1       6.924   5.739  16.464  0.00  0.00    +0.000 C 
ATOM     13  O   UNL     1       6.669   4.919  15.311  0.00  0.00    +0.000 OA
ATOM     14  C   UNL     1       5.258   4.694  15.158  0.00  0.00    +0.000 C 
ATOM     15  C   UNL     1       4.638   4.023  16.396  0.00  0.00    +0.000 C 
ENDBRANCH   9  10
BRANCH   1  16
ATOM     16  C   UNL     1       4.020   3.136  19.935  0.00  0.00    +0.000 C 
ATOM     17  O   UNL     1       5.205   2.925  20.135  0.00  0.00    +0.000 OA
BRANCH  16  18
ATOM     18  O   UNL     1       3.035   2.200  19.998  0.00  0.00    +0.000 OA
BRANCH  18  20
ATOM     19  C   UNL     1       0.982   2.151  18.670  0.00  0.00    +0.000 C 
ATOM     20  C   UNL     1       2.464   1.823  18.734  0.00  0.00    +0.000 C 
ENDBRANCH  18  20
ENDBRANCH  16  18
ENDBRANCH   1  16
BRANCH   8  21
ATOM     21  C   UNL     1       1.139   9.061  19.714  0.00  0.00    +0.000 C 
BRANCH  21  22
ATOM     22  C   UNL     1       0.710  10.363  19.011  0.00  0.00    +0.000 C 
ATOM     23 CL   UNL     1      -1.057  10.362  18.665  0.00  0.00    +0.000 Cl
BRANCH  22  24
ATOM     24  C   UNL     1       1.141  11.628  19.772  0.00  0.00    +0.000 C 
BRANCH  24  25
ATOM     25  O   UNL     1       1.088  11.421  21.185  0.00  0.00    +0.000 OA
BRANCH  25  26
ATOM     26  C   UNL     1      -0.009  11.950  21.816  0.00  0.00    +0.000 A 
ATOM     27  C   UNL     1      -0.736  11.033  22.578  0.00  0.00    +0.000 A 
ATOM     28  C   UNL     1      -1.904  11.424  23.235  0.00  0.00    +0.000 A 
ATOM     29  C   UNL     1      -2.342  12.743  23.150  0.00  0.00    +0.000 A 
ATOM     30  C   UNL     1      -1.601  13.674  22.424  0.00  0.00    +0.000 A 
ATOM     31  C   UNL     1      -0.435  13.281  21.763  0.00  0.00    +0.000 A 
ENDBRANCH  25  26
ENDBRANCH  24  25
ENDBRANCH  22  24
ENDBRANCH  21  22
ENDBRANCH   8  21
TORSDOF 9
ENDMDL
MODEL 3
REMARK VINA RESULT:      -7.2      2.665      8.295
REMARK  Name = 
REMARK  10 active torsions:
REMARK  status: ('A' for Active; 'I' for Inactive)
REMARK    1  A    between atoms: C_1  and  C_2
REMARK    2  A    between atoms: C_2  and  O_3
REMARK    3  A    between atoms: O_3  and  C_4
REMARK    4  A    between atoms: C_4  and  C_6
REMARK    5  A    between atoms: N_13  and  C_14
REMARK    6  A    between atoms: C_14  and  C_15
REMARK    7  A    between atoms: C_15  and  C_17
REMARK    8  A    between atoms: C_17  and  O_18
REMARK    9  A    between atoms: O_18  and  C_19
REMARK   10  A    between atoms: C_25  and  N_26
REMARK                            x       y       z     vdW  Elec       q    Type
REMARK                         _______ _______ _______ _____ _____    ______ ____
ROOT
ATOM      1  C   UNL     1       1.084   8.201  20.614  0.00  0.00    +0.000 A 
ATOM      2  C   UNL     1       1.754   7.012  20.934  0.00  0.00    +0.000 A 
ATOM      3  N   UNL     1       2.656   6.364  20.159  0.00  0.00    +0.000 NA
ATOM      4  C   UNL     1       2.855   6.997  18.990  0.00  0.00    +0.000 A 
ATOM      5  C   UNL     1       2.283   8.197  18.570  0.00  0.00    +0.000 A 
ATOM      6  C   UNL     1       2.907   8.431  17.325  0.00  0.00    +0.000 A 
ATOM      7  N   UNL     1       3.740   7.464  16.960  0.00  0.00    +0.000 NA
ATOM      8  N   UNL     1       3.677   6.581  17.969  0.00  0.00    +0.000 N 
ATOM      9  C   UNL     1       1.344   8.878  19.391  0.00  0.00    +0.000 A 
ENDROOT
BRANCH   9  10
ATOM     10  N   UNL     1       0.807  10.094  19.016  0.00  0.00    +0.000 N 
ATOM     11  C   UNL     1       1.519  11.379  19.150  0.00  0.00    +0.000 C 
ATOM     12  C   UNL     1       0.629  12.373  19.915  0.00  0.00    +0.000 C 
ATOM     13  O   UNL     1      -0.635  12.555  19.253  0.00  0.00    +0.000 OA
ATOM     14  C   UNL     1      -1.332  11.303  19.148  0.00  0.00    +0.000 C 
ATOM     15  C   UNL     1      -0.515  10.246  18.383  0.00  0.00    +0.000 C 
ENDBRANCH   9  10
BRANCH   1  16
ATOM     16  C   UNL     1       0.008   8.619  21.540  0.00  0.00    +0.000 C 
ATOM     17  O   UNL     1      -1.047   8.026  21.694  0.00  0.00    +0.000 OA
BRANCH  16  18
ATOM     18  O   UNL     1       0.356   9.776  22.166  0.00  0.00    +0.000 OA
BRANCH  18  20
ATOM     19  C   UNL     1      -1.303  11.400  22.932  0.00  0.00    +0.000 C 
ATOM     20  C   UNL     1      -0.489  10.160  23.262  0.00  0.00    +0.000 C 
ENDBRANCH  18  20
ENDBRANCH  16  18
ENDBRANCH   1  16
BRANCH   8  21
ATOM     21  C   UNL     1       4.464   5.362  17.937  0.00  0.00    +0.000 C 
BRANCH  21  22
ATOM     22  C   UNL     1       4.301   4.449  16.706  0.00  0.00    +0.000 C 
ATOM     23 CL   UNL     1       5.898   3.852  16.126  0.00  0.00    +0.000 Cl
BRANCH  22  24
ATOM     24  C   UNL     1       3.312   3.296  16.938  0.00  0.00    +0.000 C 
BRANCH  24  25
ATOM     25  O   UNL     1       3.713   2.489  18.048  0.00  0.00    +0.000 OA
BRANCH  25  26
ATOM     26  C   UNL     1       2.969   2.648  19.189  0.00  0.00    +0.000 A 
ATOM     27  C   UNL     1       1.623   2.947  18.965  0.00  0.00    +0.000 A 
ATOM     28  C   UNL     1       0.760   3.182  20.036  0.00  0.00    +0.000 A 
ATOM     29  C   UNL     1       1.235   3.099  21.342  0.00  0.00    +0.000 A 
ATOM     30  C   UNL     1       2.566   2.761  21.577  0.00  0.00    +0.000 A 
ATOM     31  C   UNL     1       3.431   2.531  20.504  0.00  0.00    +0.000 A 
ENDBRANCH  25  26
ENDBRANCH  24  25
ENDBRANCH  22  24
ENDBRANCH  21  22
ENDBRANCH   8  21
TORSDOF 9
ENDMDL
MODEL 4
REMARK VINA RESULT:      -7.1      4.199     10.317
REMARK  Name = 
REMARK  10 active torsions:
REMARK  status: ('A' for Active; 'I' for Inactive)
REMARK    1  A    between atoms: C_1  and  C_2
REMARK    2  A    between atoms: C_2  and  O_3
REMARK    3  A    between atoms: O_3  and  C_4
REMARK    4  A    between atoms: C_4  and  C_6
REMARK    5  A    between atoms: N_13  and  C_14
REMARK    6  A    between atoms: C_14  and  C_15
REMARK    7  A    between atoms: C_15  and  C_17
REMARK    8  A    between atoms: C_17  and  O_18
REMARK    9  A    between atoms: O_18  and  C_19
REMARK   10  A    between atoms: C_25  and  N_26
REMARK                            x       y       z     vdW  Elec       q    Type
REMARK                         _______ _______ _______ _____ _____    ______ ____
ROOT
ATOM      1  C   UNL     1      -3.246  12.502  20.058  0.00  0.00    +0.000 A 
ATOM      2  C   UNL     1      -1.934  12.565  20.549  0.00  0.00    +0.000 A 
ATOM      3  N   UNL     1      -0.868  11.871  20.085  0.00  0.00    +0.000 NA
ATOM      4  C   UNL     1      -1.203  11.067  19.061  0.00  0.00    +0.000 A 
ATOM      5  C   UNL     1      -2.454  10.941  18.460  0.00  0.00    +0.000 A 
ATOM      6  C   UNL     1      -2.211  10.043  17.397  0.00  0.00    +0.000 A 
ATOM      7  N   UNL     1      -0.961   9.598  17.357  0.00  0.00    +0.000 NA
ATOM      8  N   UNL     1      -0.363  10.206  18.394  0.00  0.00    +0.000 N 
ATOM      9  C   UNL     1      -3.568  11.680  18.944  0.00  0.00    +0.000 A 
ENDROOT
BRANCH   9  10
ATOM     10  N   UNL     1      -4.803  11.609  18.328  0.00  0.00    +0.000 N 
ATOM     11  C   UNL     1      -5.101  12.221  17.021  0.00  0.00    +0.000 C 
ATOM     12  C   UNL     1      -6.351  13.108  17.151  0.00  0.00    +0.000 C 
ATOM     13  O   UNL     1      -7.477  12.352  17.630  0.00  0.00    +0.000 OA
ATOM     14  C   UNL     1      -7.186  11.778  18.915  0.00  0.00    +0.000 C 
ATOM     15  C   UNL     1      -5.950  10.863  18.876  0.00  0.00    +0.000 C 
ENDBRANCH   9  10
BRANCH   1  16
ATOM     16  C   UNL     1      -4.276  13.214  20.844  0.00  0.00    +0.000 C 
ATOM     17  O   UNL     1      -4.622  14.369  20.655  0.00  0.00    +0.000 OA
BRANCH  16  18
ATOM     18  O   UNL     1      -4.754  12.405  21.828  0.00  0.00    +0.000 OA
BRANCH  18  20
ATOM     19  C   UNL     1      -4.020  12.895  24.108  0.00  0.00    +0.000 C 
ATOM     20  C   UNL     1      -5.101  13.067  23.055  0.00  0.00    +0.000 C 
ENDBRANCH  18  20
ENDBRANCH  16  18
ENDBRANCH   1  16
BRANCH   8  21
ATOM     21  C   UNL     1       1.038   9.969  18.685  0.00  0.00    +0.000 C 
BRANCH  21  22
ATOM     22  C   UNL     1       1.549   8.520  18.561  0.00  0.00    +0.000 C 
ATOM     23 CL   UNL     1       2.985   8.429  17.479  0.00  0.00    +0.000 Cl
BRANCH  22  24
ATOM     24  C   UNL     1       1.818   7.858  19.922  0.00  0.00    +0.000 C 
BRANCH  24  25
ATOM     25  O   UNL     1       2.738   6.771  19.792  0.00  0.00    +0.000 OA
BRANCH  25  26
ATOM     26  C   UNL     1       2.170   5.549  19.533  0.00  0.00    +0.000 A 
ATOM     27  C   UNL     1       1.641   4.908  20.656  0.00  0.00    +0.000 A 
ATOM     28  C   UNL     1       1.075   3.636  20.546  0.00  0.00    +0.000 A 
ATOM     29  C   UNL     1       1.018   3.006  19.306  0.00  0.00    +0.000 A 
ATOM     30  C   UNL     1       1.507   3.655  18.174  0.00  0.00    +0.000 A 
ATOM     31  C   UNL     1       2.077   4.926  18.285  0.00  0.00    +0.000 A 
ENDBRANCH  25  26
ENDBRANCH  24  25
ENDBRANCH  22  24
ENDBRANCH  21  22
ENDBRANCH   8  21
TORSDOF 9
ENDMDL
MODEL 5
REMARK VINA RESULT:      -7.1      1.719      1.839
REMARK  Name = 
REMARK  10 active torsions:
REMARK  status: ('A' for Active; 'I' for Inactive)
REMARK    1  A    between atoms: C_1  and  C_2
REMARK    2  A    between atoms: C_2  and  O_3
REMARK    3  A    between atoms: O_3  and  C_4
REMARK    4  A    between atoms: C_4  and  C_6
REMARK    5  A    between atoms: N_13  and  C_14
REMARK    6  A    between atoms: C_14  and  C_15
REMARK    7  A    between atoms: C_15  and  C_17
REMARK    8  A    between atoms: C_17  and  O_18
REMARK    9  A    between atoms: O_18  and  C_19
REMARK   10  A    between atoms: C_25  and  N_26
REMARK                            x       y       z     vdW  Elec       q    Type
REMARK                         _______ _______ _______ _____ _____    ______ ____
ROOT
ATOM      1  C   UNL     1       3.667   5.034  19.281  0.00  0.00    +0.000 A 
ATOM      2  C   UNL     1       2.681   5.312  20.238  0.00  0.00    +0.000 A 
ATOM      3  N   UNL     1       1.933   6.438  20.319  0.00  0.00    +0.000 NA
ATOM      4  C   UNL     1       2.246   7.315  19.349  0.00  0.00    +0.000 A 
ATOM      5  C   UNL     1       3.174   7.145  18.323  0.00  0.00    +0.000 A 
ATOM      6  C   UNL     1       3.026   8.323  17.558  0.00  0.00    +0.000 A 
ATOM      7  N   UNL     1       2.147   9.177  18.067  0.00  0.00    +0.000 NA
ATOM      8  N   UNL     1       1.700   8.565  19.176  0.00  0.00    +0.000 N 
ATOM      9  C   UNL     1       3.949   5.956  18.236  0.00  0.00    +0.000 A 
ENDROOT
BRANCH   9  10
ATOM     10  N   UNL     1       4.834   5.746  17.197  0.00  0.00    +0.000 N 
ATOM     11  C   UNL     1       4.583   4.811  16.085  0.00  0.00    +0.000 C 
ATOM     12  C   UNL     1       5.780   3.853  15.950  0.00  0.00    +0.000 C 
ATOM     13  O   UNL     1       7.004   4.578  15.741  0.00  0.00    +0.000 OA
ATOM     14  C   UNL     1       7.253   5.471  16.840  0.00  0.00    +0.000 C 
ATOM     15  C   UNL     1       6.105   6.476  17.043  0.00  0.00    +0.000 C 
ENDBRANCH   9  10
BRANCH   1  16
ATOM     16  C   UNL     1       4.476   3.816  19.506  0.00  0.00    +0.000 C 
ATOM     17  O   UNL     1       5.696   3.780  19.496  0.00  0.00    +0.000 OA
BRANCH  16  18
ATOM     18  O   UNL     1       3.662   2.743  19.689  0.00  0.00    +0.000 OA
BRANCH  18  20
ATOM     19  C   UNL     1       2.352   2.253  17.683  0.00  0.00    +0.000 C 
ATOM     20  C   UNL     1       3.534   1.867  18.556  0.00  0.00    +0.000 C 
ENDBRANCH  18  20
ENDBRANCH  16  18
ENDBRANCH   1  16
BRANCH   8  21
ATOM     21  C   UNL     1       0.706   9.198  20.022  0.00  0.00    +0.000 C 
BRANCH  21  22
ATOM     22  C   UNL     1       0.009  10.456  19.471  0.00  0.00    +0.000 C 
ATOM     23 CL   UNL     1      -1.027  10.055  18.053  0.00  0.00    +0.000 Cl
BRANCH  22  24
ATOM     24  C   UNL     1      -0.771  11.232  20.545  0.00  0.00    +0.000 C 
BRANCH  24  25
ATOM     25  O   UNL     1      -1.444  12.360  19.978  0.00  0.00    +0.000 OA
BRANCH  25  26
ATOM     26  C   UNL     1      -2.783  12.450  20.264  0.00  0.00    +0.000 A 
ATOM     27  C   UNL     1      -3.625  12.107  19.205  0.00  0.00    +0.000 A 
ATOM     28  C   UNL     1      -5.011  12.199  19.341  0.00  0.00    +0.000 A 
ATOM     29  C   UNL     1      -5.565  12.616  20.549  0.00  0.00    +0.000 A 
ATOM     30  C   UNL     1      -4.733  12.921  21.625  0.00  0.00    +0.000 A 
ATOM     31  C   UNL     1      -3.345  12.833  21.486  0.00  0.00    +0.000 A 
ENDBRANCH  25  26
ENDBRANCH  24  25
ENDBRANCH  22  24
ENDBRANCH  21  22
ENDBRANCH   8  21
TORSDOF 9
ENDMDL
MODEL 6
REMARK VINA RESULT:      -6.9      2.742      4.512
REMARK  Name = 
REMARK  10 active torsions:
REMARK  status: ('A' for Active; 'I' for Inactive)
REMARK    1  A    between atoms: C_1  and  C_2
REMARK    2  A    between atoms: C_2  and  O_3
REMARK    3  A    between atoms: O_3  and  C_4
REMARK    4  A    between atoms: C_4  and  C_6
REMARK    5  A    between atoms: N_13  and  C_14
REMARK    6  A    between atoms: C_14  and  C_15
REMARK    7  A    between atoms: C_15  and  C_17
REMARK    8  A    between atoms: C_17  and  O_18
REMARK    9  A    between atoms: O_18  and  C_19
REMARK   10  A    between atoms: C_25  and  N_26
REMARK                            x       y       z     vdW  Elec       q    Type
REMARK                         _______ _______ _______ _____ _____    ______ ____
ROOT
ATOM      1  C   UNL     1       5.077   5.627  16.870  0.00  0.00    +0.000 A 
ATOM      2  C   UNL     1       5.121   6.987  16.533  0.00  0.00    +0.000 A 
ATOM      3  N   UNL     1       4.261   7.946  16.951  0.00  0.00    +0.000 NA
ATOM      4  C   UNL     1       3.307   7.445  17.754  0.00  0.00    +0.000 A 
ATOM      5  C   UNL     1       3.175   6.128  18.192  0.00  0.00    +0.000 A 
ATOM      6  C   UNL     1       2.071   6.191  19.070  0.00  0.00    +0.000 A 
ATOM      7  N   UNL     1       1.521   7.396  19.143  0.00  0.00    +0.000 NA
ATOM      8  N   UNL     1       2.264   8.146  18.313  0.00  0.00    +0.000 N 
ATOM      9  C   UNL     1       4.086   5.127  17.759  0.00  0.00    +0.000 A 
ENDROOT
BRANCH   9  10
ATOM     10  N   UNL     1       4.005   3.828  18.223  0.00  0.00    +0.000 N 
ATOM     11  C   UNL     1       3.251   2.762  17.538  0.00  0.00    +0.000 C 
ATOM     12  C   UNL     1       2.288   2.101  18.540  0.00  0.00    +0.000 C 
ATOM     13  O   UNL     1       2.999   1.577  19.675  0.00  0.00    +0.000 OA
ATOM     14  C   UNL     1       3.711   2.628  20.349  0.00  0.00    +0.000 C 
ATOM     15  C   UNL     1       4.710   3.340  19.421  0.00  0.00    +0.000 C 
ENDBRANCH   9  10
BRANCH   1  16
ATOM     16  C   UNL     1       6.014   4.740  16.145  0.00  0.00    +0.000 C 
ATOM     17  O   UNL     1       5.680   3.851  15.379  0.00  0.00    +0.000 OA
BRANCH  16  18
ATOM     18  O   UNL     1       7.296   5.039  16.487  0.00  0.00    +0.000 OA
BRANCH  18  20
ATOM     19  C   UNL     1       7.812   5.670  18.792  0.00  0.00    +0.000 C 
ATOM     20  C   UNL     1       7.722   4.550  17.769  0.00  0.00    +0.000 C 
ENDBRANCH  18  20
ENDBRANCH  16  18
ENDBRANCH   1  16
BRANCH   8  21
ATOM     21  C   UNL     1       1.968   9.554  18.120  0.00  0.00    +0.000 C 
BRANCH  21  22
ATOM     22  C   UNL     1       1.114  10.249  19.198  0.00  0.00    +0.000 C 
ATOM     23 CL   UNL     1       1.579  11.980  19.377  0.00  0.00    +0.000 Cl
BRANCH  22  24
ATOM     24  C   UNL     1      -0.397  10.086  18.968  0.00  0.00    +0.000 C 
BRANCH  24  25
ATOM     25  O   UNL     1      -0.697   9.983  17.573  0.00  0.00    +0.000 OA
BRANCH  25  26
ATOM     26  C   UNL     1      -1.948  10.412  17.209  0.00  0.00    +0.000 A 
ATOM     27  C   UNL     1      -2.613  11.154  18.188  0.00  0.00    +0.000 A 
ATOM     28  C   UNL     1      -3.913  11.614  17.969  0.00  0.00    +0.000 A 
ATOM     29  C   UNL     1      -4.549  11.351  16.759  0.00  0.00    +0.000 A 
ATOM     30  C   UNL     1      -3.878  10.646  15.761  0.00  0.00    +0.000 A 
ATOM     31  C   UNL     1      -2.579  10.182  15.982  0.00  0.00    +0.000 A 
ENDBRANCH  25  26
ENDBRANCH  24  25
ENDBRANCH  22  24
ENDBRANCH  21  22
ENDBRANCH   8  21
TORSDOF 9
ENDMDL
MODEL 7
REMARK VINA RESULT:      -6.9      1.135      1.254
REMARK  Name = 
REMARK  10 active torsions:
REMARK  status: ('A' for Active; 'I' for Inactive)
REMARK    1  A    between atoms: C_1  and  C_2
REMARK    2  A    between atoms: C_2  and  O_3
REMARK    3  A    between atoms: O_3  and  C_4
REMARK    4  A    between atoms: C_4  and  C_6
REMARK    5  A    between atoms: N_13  and  C_14
REMARK    6  A    between atoms: C_14  and  C_15
REMARK    7  A    between atoms: C_15  and  C_17
REMARK    8  A    between atoms: C_17  and  O_18
REMARK    9  A    between atoms: O_18  and  C_19
REMARK   10  A    between atoms: C_25  and  N_26
REMARK                            x       y       z     vdW  Elec       q    Type
REMARK                         _______ _______ _______ _____ _____    ______ ____
ROOT
ATOM      1  C   UNL     1       3.448   5.285  19.245  0.00  0.00    +0.000 A 
ATOM      2  C   UNL     1       2.437   5.677  20.134  0.00  0.00    +0.000 A 
ATOM      3  N   UNL     1       1.754   6.846  20.109  0.00  0.00    +0.000 NA
ATOM      4  C   UNL     1       2.162   7.641  19.104  0.00  0.00    +0.000 A 
ATOM      5  C   UNL     1       3.124   7.355  18.137  0.00  0.00    +0.000 A 
ATOM      6  C   UNL     1       3.081   8.488  17.296  0.00  0.00    +0.000 A 
ATOM      7  N   UNL     1       2.231   9.421  17.708  0.00  0.00    +0.000 NA
ATOM      8  N   UNL     1       1.699   8.906  18.829  0.00  0.00    +0.000 N 
ATOM      9  C   UNL     1       3.831   6.122  18.161  0.00  0.00    +0.000 A 
ENDROOT
BRANCH   9  10
ATOM     10  N   UNL     1       4.749   5.797  17.181  0.00  0.00    +0.000 N 
ATOM     11  C   UNL     1       4.516   4.768  16.152  0.00  0.00    +0.000 C 
ATOM     12  C   UNL     1       5.693   3.777  16.152  0.00  0.00    +0.000 C 
ATOM     13  O   UNL     1       6.942   4.453  15.926  0.00  0.00    +0.000 OA
ATOM     14  C   UNL     1       7.171   5.439  16.947  0.00  0.00    +0.000 C 
ATOM     15  C   UNL     1       6.043   6.482  17.010  0.00  0.00    +0.000 C 
ENDBRANCH   9  10
BRANCH   1  16
ATOM     16  C   UNL     1       4.174   4.041  19.582  0.00  0.00    +0.000 C 
ATOM     17  O   UNL     1       5.385   3.950  19.694  0.00  0.00    +0.000 OA
BRANCH  16  18
ATOM     18  O   UNL     1       3.295   3.010  19.714  0.00  0.00    +0.000 OA
BRANCH  18  20
ATOM     19  C   UNL     1       1.836   2.550  21.621  0.00  0.00    +0.000 C 
ATOM     20  C   UNL     1       3.227   2.424  21.025  0.00  0.00    +0.000 C 
ENDBRANCH  18  20
ENDBRANCH  16  18
ENDBRANCH   1  16
BRANCH   8  21
ATOM     21  C   UNL     1       0.706   9.646  19.586  0.00  0.00    +0.000 C 
BRANCH  21  22
ATOM     22  C   UNL     1      -0.091  10.729  18.833  0.00  0.00    +0.000 C 
ATOM     23 CL   UNL     1      -1.705  10.113  18.326  0.00  0.00    +0.000 Cl
BRANCH  22  24
ATOM     24  C   UNL     1      -0.205  12.047  19.618  0.00  0.00    +0.000 C 
BRANCH  24  25
ATOM     25  O   UNL     1      -0.223  11.806  21.027  0.00  0.00    +0.000 OA
BRANCH  25  26
ATOM     26  C   UNL     1      -1.417  12.062  21.651  0.00  0.00    +0.000 A 
ATOM     27  C   UNL     1      -2.373  12.679  20.840  0.00  0.00    +0.000 A 
ATOM     28  C   UNL     1      -3.618  13.040  21.358  0.00  0.00    +0.000 A 
ATOM     29  C   UNL     1      -3.922  12.767  22.690  0.00  0.00    +0.000 A 
ATOM     30  C   UNL     1      -2.989  12.116  23.495  0.00  0.00    +0.000 A 
ATOM     31  C   UNL     1      -1.742  11.759  22.977  0.00  0.00    +0.000 A 
ENDBRANCH  25  26
ENDBRANCH  24  25
ENDBRANCH  22  24
ENDBRANCH  21  22
ENDBRANCH   8  21
TORSDOF 9
ENDMDL
MODEL 8
REMARK VINA RESULT:      -6.9      0.884      1.127
REMARK  Name = 
REMARK  10 active torsions:
REMARK  status: ('A' for Active; 'I' for Inactive)
REMARK    1  A    between atoms: C_1  and  C_2
REMARK    2  A    between atoms: C_2  and  O_3
REMARK    3  A    between atoms: O_3  and  C_4
REMARK    4  A    between atoms: C_4  and  C_6
REMARK    5  A    between atoms: N_13  and  C_14
REMARK    6  A    between atoms: C_14  and  C_15
REMARK    7  A    between atoms: C_15  and  C_17
REMARK    8  A    between atoms: C_17  and  O_18
REMARK    9  A    between atoms: O_18  and  C_19
REMARK   10  A    between atoms: C_25  and  N_26
REMARK                            x       y       z     vdW  Elec       q    Type
REMARK                         _______ _______ _______ _____ _____    ______ ____
ROOT
ATOM      1  C   UNL     1       3.638   5.300  19.297  0.00  0.00    +0.000 A 
ATOM      2  C   UNL     1       2.620   5.598  20.214  0.00  0.00    +0.000 A 
ATOM      3  N   UNL     1       1.860   6.718  20.234  0.00  0.00    +0.000 NA
ATOM      4  C   UNL     1       2.194   7.566  19.246  0.00  0.00    +0.000 A 
ATOM      5  C   UNL     1       3.155   7.373  18.254  0.00  0.00    +0.000 A 
ATOM      6  C   UNL     1       3.019   8.523  17.447  0.00  0.00    +0.000 A 
ATOM      7  N   UNL     1       2.116   9.384  17.900  0.00  0.00    +0.000 NA
ATOM      8  N   UNL     1       1.641   8.803  19.014  0.00  0.00    +0.000 N 
ATOM      9  C   UNL     1       3.944   6.191  18.231  0.00  0.00    +0.000 A 
ENDROOT
BRANCH   9  10
ATOM     10  N   UNL     1       4.863   5.956  17.227  0.00  0.00    +0.000 N 
ATOM     11  C   UNL     1       4.697   4.920  16.192  0.00  0.00    +0.000 C 
ATOM     12  C   UNL     1       5.955   4.035  16.155  0.00  0.00    +0.000 C 
ATOM     13  O   UNL     1       7.134   4.820  15.907  0.00  0.00    +0.000 OA
ATOM     14  C   UNL     1       7.301   5.813  16.933  0.00  0.00    +0.000 C 
ATOM     15  C   UNL     1       6.088   6.753  17.035  0.00  0.00    +0.000 C 
ENDBRANCH   9  10
BRANCH   1  16
ATOM     16  C   UNL     1       4.453   4.099  19.586  0.00  0.00    +0.000 C 
ATOM     17  O   UNL     1       5.672   4.061  19.557  0.00  0.00    +0.000 OA
BRANCH  16  18
ATOM     18  O   UNL     1       3.642   3.040  19.855  0.00  0.00    +0.000 OA
BRANCH  18  20
ATOM     19  C   UNL     1       3.808   1.205  18.248  0.00  0.00    +0.000 C 
ATOM     20  C   UNL     1       3.031   2.427  18.708  0.00  0.00    +0.000 C 
ENDBRANCH  18  20
ENDBRANCH  16  18
ENDBRANCH   1  16
BRANCH   8  21
ATOM     21  C   UNL     1       0.614   9.453  19.808  0.00  0.00    +0.000 C 
BRANCH  21  22
ATOM     22  C   UNL     1      -0.041  10.715  19.217  0.00  0.00    +0.000 C 
ATOM     23 CL   UNL     1      -1.613  10.322  18.430  0.00  0.00    +0.000 Cl
BRANCH  22  24
ATOM     24  C   UNL     1      -0.186  11.855  20.239  0.00  0.00    +0.000 C 
BRANCH  24  25
ATOM     25  O   UNL     1      -0.771  11.383  21.456  0.00  0.00    +0.000 OA
BRANCH  25  26
ATOM     26  C   UNL     1      -1.935  12.007  21.827  0.00  0.00    +0.000 A 
ATOM     27  C   UNL     1      -2.212  11.948  23.194  0.00  0.00    +0.000 A 
ATOM     28  C   UNL     1      -3.389  12.499  23.705  0.00  0.00    +0.000 A 
ATOM     29  C   UNL     1      -4.287  13.133  22.851  0.00  0.00    +0.000 A 
ATOM     30  C   UNL     1      -4.000  13.232  21.491  0.00  0.00    +0.000 A 
ATOM     31  C   UNL     1      -2.824  12.676  20.980  0.00  0.00    +0.000 A 
ENDBRANCH  25  26
ENDBRANCH  24  25
ENDBRANCH  22  24
ENDBRANCH  21  22
ENDBRANCH   8  21
TORSDOF 9
ENDMDL
MODEL 9
REMARK VINA RESULT:      -6.9      2.227      8.936
REMARK  Name = 
REMARK  10 active torsions:
REMARK  status: ('A' for Active; 'I' for Inactive)
REMARK    1  A    between atoms: C_1  and  C_2
REMARK    2  A    between atoms: C_2  and  O_3
REMARK    3  A    between atoms: O_3  and  C_4
REMARK    4  A    between atoms: C_4  and  C_6
REMARK    5  A    between atoms: N_13  and  C_14
REMARK    6  A    between atoms: C_14  and  C_15
REMARK    7  A    between atoms: C_15  and  C_17
REMARK    8  A    between atoms: C_17  and  O_18
REMARK    9  A    between atoms: O_18  and  C_19
REMARK   10  A    between atoms: C_25  and  N_26
REMARK                            x       y       z     vdW  Elec       q    Type
REMARK                         _______ _______ _______ _____ _____    ______ ____
ROOT
ATOM      1  C   UNL     1       0.666   9.943  21.064  0.00  0.00    +0.000 A 
ATOM      2  C   UNL     1       1.129   8.813  21.753  0.00  0.00    +0.000 A 
ATOM      3  N   UNL     1       1.781   7.755  21.215  0.00  0.00    +0.000 NA
ATOM      4  C   UNL     1       1.947   7.894  19.888  0.00  0.00    +0.000 A 
ATOM      5  C   UNL     1       1.569   8.978  19.097  0.00  0.00    +0.000 A 
ATOM      6  C   UNL     1       2.062   8.631  17.820  0.00  0.00    +0.000 A 
ATOM      7  N   UNL     1       2.638   7.435  17.782  0.00  0.00    +0.000 NA
ATOM      8  N   UNL     1       2.535   6.983  19.042  0.00  0.00    +0.000 N 
ATOM      9  C   UNL     1       0.893  10.090  19.668  0.00  0.00    +0.000 A 
ENDROOT
BRANCH   9  10
ATOM     10  N   UNL     1       0.558  11.197  18.912  0.00  0.00    +0.000 N 
ATOM     11  C   UNL     1       1.530  12.222  18.489  0.00  0.00    +0.000 C 
ATOM     12  C   UNL     1       1.009  13.611  18.899  0.00  0.00    +0.000 C 
ATOM     13  O   UNL     1      -0.286  13.869  18.330  0.00  0.00    +0.000 OA
ATOM     14  C   UNL     1      -1.232  12.878  18.766  0.00  0.00    +0.000 C 
ATOM     15  C   UNL     1      -0.795  11.452  18.387  0.00  0.00    +0.000 C 
ENDBRANCH   9  10
BRANCH   1  16
ATOM     16  C   UNL     1      -0.180  10.881  21.834  0.00  0.00    +0.000 C 
ATOM     17  O   UNL     1      -1.264  10.602  22.321  0.00  0.00    +0.000 OA
BRANCH  16  18
ATOM     18  O   UNL     1       0.411  12.105  21.887  0.00  0.00    +0.000 OA
BRANCH  18  20
ATOM     19  C   UNL     1       0.284  14.519  22.256  0.00  0.00    +0.000 C 
ATOM     20  C   UNL     1      -0.462  13.196  22.221  0.00  0.00    +0.000 C 
ENDBRANCH  18  20
ENDBRANCH  16  18
ENDBRANCH   1  16
BRANCH   8  21
ATOM     21  C   UNL     1       3.060   5.680  19.407  0.00  0.00    +0.000 C 
BRANCH  21  22
ATOM     22  C   UNL     1       2.956   4.558  18.356  0.00  0.00    +0.000 C 
ATOM     23 CL   UNL     1       1.283   4.440  17.698  0.00  0.00    +0.000 Cl
BRANCH  22  24
ATOM     24  C   UNL     1       4.001   4.682  17.236  0.00  0.00    +0.000 C 
BRANCH  24  25
ATOM     25  O   UNL     1       5.305   4.332  17.708  0.00  0.00    +0.000 OA
BRANCH  25  26
ATOM     26  C   UNL     1       6.189   5.375  17.818  0.00  0.00    +0.000 A 
ATOM     27  C   UNL     1       7.152   5.214  18.816  0.00  0.00    +0.000 A 
ATOM     28  C   UNL     1       8.087   6.220  19.070  0.00  0.00    +0.000 A 
ATOM     29  C   UNL     1       8.074   7.388  18.312  0.00  0.00    +0.000 A 
ATOM     30  C   UNL     1       7.142   7.540  17.287  0.00  0.00    +0.000 A 
ATOM     31  C   UNL     1       6.204   6.535  17.036  0.00  0.00    +0.000 A 
ENDBRANCH  25  26
ENDBRANCH  24  25
ENDBRANCH  22  24
ENDBRANCH  21  22
ENDBRANCH   8  21
TORSDOF 9
ENDMDL
