MODEL 1
REMARK VINA RESULT:      -9.3      0.000      0.000
REMARK  Name = 
REMARK  2 active torsions:
REMARK  status: ('A' for Active; 'I' for Inactive)
REMARK    1  A    between atoms: C_15  and  C_16
REMARK    2  A    between atoms: C_16  and  C_17
REMARK                            x       y       z     vdW  Elec       q    Type
REMARK                         _______ _______ _______ _____ _____    ______ ____
ROOT
ATOM      1  O   UNL     1      -1.294  12.686  18.721  0.00  0.00    +0.000 OA
ATOM      2  C   UNL     1      -1.068  11.986  19.700  0.00  0.00    +0.000 C 
ATOM      3  C   UNL     1      -1.736  12.279  21.018  0.00  0.00    +0.000 A 
ATOM      4  C   UNL     1      -2.656  13.319  21.189  0.00  0.00    +0.000 A 
ATOM      5  C   UNL     1      -3.247  13.552  22.449  0.00  0.00    +0.000 A 
ATOM      6  C   UNL     1      -2.927  12.759  23.550  0.00  0.00    +0.000 A 
ATOM      7  C   UNL     1      -2.023  11.728  23.391  0.00  0.00    +0.000 A 
ATOM      8  C   UNL     1      -1.446  11.497  22.135  0.00  0.00    +0.000 A 
ATOM      9  C   UNL     1      -0.526  10.380  22.030  0.00  0.00    +0.000 C 
ATOM     10  O   UNL     1      -0.238   9.722  23.024  0.00  0.00    +0.000 OA
ATOM     11  C   UNL     1       0.056  10.045  20.733  0.00  0.00    +0.000 A 
ATOM     12  C   UNL     1       0.837   8.903  20.739  0.00  0.00    +0.000 A 
ATOM     13  C   UNL     1       1.472   8.621  19.564  0.00  0.00    +0.000 A 
ATOM     14  O   UNL     1       2.290   7.578  19.429  0.00  0.00    +0.000 OA
ATOM     15  C   UNL     1       2.798   7.679  18.171  0.00  0.00    +0.000 A 
ATOM     16  N   UNL     1       2.289   8.699  17.477  0.00  0.00    +0.000 NA
ATOM     17  C   UNL     1       1.417   9.332  18.385  0.00  0.00    +0.000 A 
ATOM     18  C   UNL     1       0.558  10.472  18.373  0.00  0.00    +0.000 A 
ATOM     19  C   UNL     1      -0.132  10.820  19.584  0.00  0.00    +0.000 A 
ENDROOT
BRANCH  15  20
ATOM     20  C   UNL     1       3.795   6.580  18.016  0.00  0.00    +0.000 C 
BRANCH  20  21
ATOM     21  C   UNL     1       3.515   5.115  18.128  0.00  0.00    +0.000 A 
ATOM     22  C   UNL     1       2.386   4.457  17.653  0.00  0.00    +0.000 A 
ATOM     23  C   UNL     1       2.267   3.076  17.851  0.00  0.00    +0.000 A 
ATOM     24  C   UNL     1       3.266   2.360  18.514  0.00  0.00    +0.000 A 
ATOM     25  F   UNL     1       3.130   1.047  18.700  0.00  0.00    +0.000 F 
ATOM     26  C   UNL     1       4.399   2.998  18.989  0.00  0.00    +0.000 A 
ATOM     27  C   UNL     1       4.509   4.361  18.792  0.00  0.00    +0.000 A 
ATOM     28  F   UNL     1       5.610   4.985  19.249  0.00  0.00    +0.000 F 
ENDBRANCH  20  21
ENDBRANCH  15  20
TORSDOF 2
ENDMDL
MODEL 2
REMARK VINA RESULT:      -9.3      1.829      2.383
REMARK  Name = 
REMARK  2 active torsions:
REMARK  status: ('A' for Active; 'I' for Inactive)
REMARK    1  A    between atoms: C_15  and  C_16
REMARK    2  A    between atoms: C_16  and  C_17
REMARK                            x       y       z     vdW  Elec       q    Type
REMARK                         _______ _______ _______ _____ _____    ______ ____
ROOT
ATOM      1  O   UNL     1      -1.096  11.977  18.513  0.00  0.00    +0.000 OA
ATOM      2  C   UNL     1      -0.850  11.468  19.599  0.00  0.00    +0.000 C 
ATOM      3  C   UNL     1      -1.480  12.012  20.856  0.00  0.00    +0.000 A 
ATOM      4  C   UNL     1      -2.385  13.079  20.852  0.00  0.00    +0.000 A 
ATOM      5  C   UNL     1      -2.940  13.552  22.061  0.00  0.00    +0.000 A 
ATOM      6  C   UNL     1      -2.597  12.973  23.282  0.00  0.00    +0.000 A 
ATOM      7  C   UNL     1      -1.708  11.918  23.296  0.00  0.00    +0.000 A 
ATOM      8  C   UNL     1      -1.167  11.448  22.091  0.00  0.00    +0.000 A 
ATOM      9  C   UNL     1      -0.261  10.318  22.175  0.00  0.00    +0.000 C 
ATOM     10  O   UNL     1       0.047   9.853  23.267  0.00  0.00    +0.000 OA
ATOM     11  C   UNL     1       0.282   9.739  20.949  0.00  0.00    +0.000 A 
ATOM     12  C   UNL     1       1.052   8.607  21.149  0.00  0.00    +0.000 A 
ATOM     13  C   UNL     1       1.653   8.101  20.032  0.00  0.00    +0.000 A 
ATOM     14  O   UNL     1       2.456   7.039  20.075  0.00  0.00    +0.000 OA
ATOM     15  C   UNL     1       2.931   6.897  18.808  0.00  0.00    +0.000 A 
ATOM     16  N   UNL     1       2.414   7.777  17.948  0.00  0.00    +0.000 NA
ATOM     17  C   UNL     1       1.572   8.580  18.743  0.00  0.00    +0.000 A 
ATOM     18  C   UNL     1       0.724   9.710  18.539  0.00  0.00    +0.000 A 
ATOM     19  C   UNL     1       0.070  10.288  19.680  0.00  0.00    +0.000 A 
ENDROOT
BRANCH  15  20
ATOM     20  C   UNL     1       3.913   5.774  18.836  0.00  0.00    +0.000 C 
BRANCH  20  21
ATOM     21  C   UNL     1       4.943   5.478  17.792  0.00  0.00    +0.000 A 
ATOM     22  C   UNL     1       6.211   6.044  17.708  0.00  0.00    +0.000 A 
ATOM     23  C   UNL     1       7.056   5.670  16.657  0.00  0.00    +0.000 A 
ATOM     24  C   UNL     1       6.642   4.739  15.702  0.00  0.00    +0.000 A 
ATOM     25  F   UNL     1       7.458   4.402  14.703  0.00  0.00    +0.000 F 
ATOM     26  C   UNL     1       5.385   4.161  15.774  0.00  0.00    +0.000 A 
ATOM     27  C   UNL     1       4.555   4.537  16.812  0.00  0.00    +0.000 A 
ATOM     28  F   UNL     1       3.334   3.976  16.888  0.00  0.00    +0.000 F 
ENDBRANCH  20  21
ENDBRANCH  15  20
TORSDOF 2
ENDMDL
MODEL 3
REMARK VINA RESULT:      -9.2      0.986      1.006
REMARK  Name = 
REMARK  2 active torsions:
REMARK  status: ('A' for Active; 'I' for Inactive)
REMARK    1  A    between atoms: C_15  and  C_16
REMARK    2  A    between atoms: C_16  and  C_17
REMARK                            x       y       z     vdW  Elec       q    Type
REMARK                         _______ _______ _______ _____ _____    ______ ____
ROOT
ATOM      1  O   UNL     1      -2.375  12.581  18.809  0.00  0.00    +0.000 OA
ATOM      2  C   UNL     1      -1.896  12.064  19.811  0.00  0.00    +0.000 C 
ATOM      3  C   UNL     1      -2.394  12.448  21.180  0.00  0.00    +0.000 A 
ATOM      4  C   UNL     1      -3.429  13.368  21.381  0.00  0.00    +0.000 A 
ATOM      5  C   UNL     1      -3.851  13.696  22.687  0.00  0.00    +0.000 A 
ATOM      6  C   UNL     1      -3.248  13.118  23.803  0.00  0.00    +0.000 A 
ATOM      7  C   UNL     1      -2.228  12.207  23.615  0.00  0.00    +0.000 A 
ATOM      8  C   UNL     1      -1.819  11.880  22.315  0.00  0.00    +0.000 A 
ATOM      9  C   UNL     1      -0.762  10.894  22.187  0.00  0.00    +0.000 C 
ATOM     10  O   UNL     1      -0.227  10.429  23.189  0.00  0.00    +0.000 OA
ATOM     11  C   UNL     1      -0.338  10.461  20.859  0.00  0.00    +0.000 A 
ATOM     12  C   UNL     1       0.604   9.447  20.867  0.00  0.00    +0.000 A 
ATOM     13  C   UNL     1       1.090   9.089  19.642  0.00  0.00    +0.000 A 
ATOM     14  O   UNL     1       2.032   8.158  19.494  0.00  0.00    +0.000 OA
ATOM     15  C   UNL     1       2.321   8.148  18.164  0.00  0.00    +0.000 A 
ATOM     16  N   UNL     1       1.559   8.980  17.452  0.00  0.00    +0.000 NA
ATOM     17  C   UNL     1       0.746   9.611  18.414  0.00  0.00    +0.000 A 
ATOM     18  C   UNL     1      -0.273  10.611  18.414  0.00  0.00    +0.000 A 
ATOM     19  C   UNL     1      -0.817  11.031  19.675  0.00  0.00    +0.000 A 
ENDROOT
BRANCH  15  20
ATOM     20  C   UNL     1       3.442   7.183  17.972  0.00  0.00    +0.000 C 
BRANCH  20  21
ATOM     21  C   UNL     1       3.321   5.693  17.907  0.00  0.00    +0.000 A 
ATOM     22  C   UNL     1       2.285   4.931  18.434  0.00  0.00    +0.000 A 
ATOM     23  C   UNL     1       2.326   3.537  18.301  0.00  0.00    +0.000 A 
ATOM     24  C   UNL     1       3.391   2.913  17.647  0.00  0.00    +0.000 A 
ATOM     25  F   UNL     1       3.416   1.584  17.537  0.00  0.00    +0.000 F 
ATOM     26  C   UNL     1       4.429   3.657  17.111  0.00  0.00    +0.000 A 
ATOM     27  C   UNL     1       4.382   5.031  17.248  0.00  0.00    +0.000 A 
ATOM     28  F   UNL     1       5.387   5.759  16.727  0.00  0.00    +0.000 F 
ENDBRANCH  20  21
ENDBRANCH  15  20
TORSDOF 2
ENDMDL
MODEL 4
REMARK VINA RESULT:      -9.1      1.921      3.098
REMARK  Name = 
REMARK  2 active torsions:
REMARK  status: ('A' for Active; 'I' for Inactive)
REMARK    1  A    between atoms: C_15  and  C_16
REMARK    2  A    between atoms: C_16  and  C_17
REMARK                            x       y       z     vdW  Elec       q    Type
REMARK                         _______ _______ _______ _____ _____    ______ ____
ROOT
ATOM      1  O   UNL     1      -0.509  10.458  23.535  0.00  0.00    +0.000 OA
ATOM      2  C   UNL     1      -0.721  10.860  22.399  0.00  0.00    +0.000 C 
ATOM      3  C   UNL     1      -1.663  12.012  22.161  0.00  0.00    +0.000 A 
ATOM      4  C   UNL     1      -2.308  12.694  23.200  0.00  0.00    +0.000 A 
ATOM      5  C   UNL     1      -3.186  13.762  22.919  0.00  0.00    +0.000 A 
ATOM      6  C   UNL     1      -3.435  14.159  21.606  0.00  0.00    +0.000 A 
ATOM      7  C   UNL     1      -2.802  13.496  20.575  0.00  0.00    +0.000 A 
ATOM      8  C   UNL     1      -1.924  12.441  20.861  0.00  0.00    +0.000 A 
ATOM      9  C   UNL     1      -1.271  11.805  19.733  0.00  0.00    +0.000 C 
ATOM     10  O   UNL     1      -1.537  12.155  18.588  0.00  0.00    +0.000 OA
ATOM     11  C   UNL     1      -0.294  10.745  19.970  0.00  0.00    +0.000 A 
ATOM     12  C   UNL     1       0.334  10.288  18.826  0.00  0.00    +0.000 A 
ATOM     13  C   UNL     1       1.180   9.230  19.004  0.00  0.00    +0.000 A 
ATOM     14  O   UNL     1       1.825   8.655  17.991  0.00  0.00    +0.000 OA
ATOM     15  C   UNL     1       2.483   7.597  18.538  0.00  0.00    +0.000 A 
ATOM     16  N   UNL     1       2.342   7.515  19.862  0.00  0.00    +0.000 NA
ATOM     17  C   UNL     1       1.481   8.583  20.183  0.00  0.00    +0.000 A 
ATOM     18  C   UNL     1       0.875   9.106  21.366  0.00  0.00    +0.000 A 
ATOM     19  C   UNL     1      -0.029  10.215  21.236  0.00  0.00    +0.000 A 
ENDROOT
BRANCH  15  20
ATOM     20  C   UNL     1       3.142   6.868  17.415  0.00  0.00    +0.000 C 
BRANCH  20  21
ATOM     21  C   UNL     1       4.424   6.101  17.494  0.00  0.00    +0.000 A 
ATOM     22  C   UNL     1       4.840   5.309  18.558  0.00  0.00    +0.000 A 
ATOM     23  C   UNL     1       6.081   4.664  18.483  0.00  0.00    +0.000 A 
ATOM     24  C   UNL     1       6.895   4.807  17.357  0.00  0.00    +0.000 A 
ATOM     25  F   UNL     1       8.077   4.191  17.308  0.00  0.00    +0.000 F 
ATOM     26  C   UNL     1       6.493   5.587  16.286  0.00  0.00    +0.000 A 
ATOM     27  C   UNL     1       5.269   6.223  16.368  0.00  0.00    +0.000 A 
ATOM     28  F   UNL     1       4.873   6.980  15.329  0.00  0.00    +0.000 F 
ENDBRANCH  20  21
ENDBRANCH  15  20
TORSDOF 2
ENDMDL
MODEL 5
REMARK VINA RESULT:      -9.1      1.548      3.042
REMARK  Name = 
REMARK  2 active torsions:
REMARK  status: ('A' for Active; 'I' for Inactive)
REMARK    1  A    between atoms: C_15  and  C_16
REMARK    2  A    between atoms: C_16  and  C_17
REMARK                            x       y       z     vdW  Elec       q    Type
REMARK                         _______ _______ _______ _____ _____    ______ ____
ROOT
ATOM      1  O   UNL     1      -0.642  10.178  23.615  0.00  0.00    +0.000 OA
ATOM      2  C   UNL     1      -0.776  10.662  22.498  0.00  0.00    +0.000 C 
ATOM      3  C   UNL     1      -1.670  11.857  22.288  0.00  0.00    +0.000 A 
ATOM      4  C   UNL     1      -2.355  12.487  23.333  0.00  0.00    +0.000 A 
ATOM      5  C   UNL     1      -3.186  13.599  23.077  0.00  0.00    +0.000 A 
ATOM      6  C   UNL     1      -3.347  14.091  21.783  0.00  0.00    +0.000 A 
ATOM      7  C   UNL     1      -2.673  13.479  20.745  0.00  0.00    +0.000 A 
ATOM      8  C   UNL     1      -1.843  12.379  21.008  0.00  0.00    +0.000 A 
ATOM      9  C   UNL     1      -1.142  11.801  19.877  0.00  0.00    +0.000 C 
ATOM     10  O   UNL     1      -1.332  12.235  18.745  0.00  0.00    +0.000 OA
ATOM     11  C   UNL     1      -0.211  10.697  20.095  0.00  0.00    +0.000 A 
ATOM     12  C   UNL     1       0.470  10.297  18.960  0.00  0.00    +0.000 A 
ATOM     13  C   UNL     1       1.275   9.205  19.113  0.00  0.00    +0.000 A 
ATOM     14  O   UNL     1       1.962   8.678  18.100  0.00  0.00    +0.000 OA
ATOM     15  C   UNL     1       2.558   7.566  18.609  0.00  0.00    +0.000 A 
ATOM     16  N   UNL     1       2.337   7.399  19.915  0.00  0.00    +0.000 NA
ATOM     17  C   UNL     1       1.488   8.471  20.259  0.00  0.00    +0.000 A 
ATOM     18  C   UNL     1       0.830   8.932  21.439  0.00  0.00    +0.000 A 
ATOM     19  C   UNL     1      -0.034  10.075  21.335  0.00  0.00    +0.000 A 
ENDROOT
BRANCH  15  20
ATOM     20  C   UNL     1       3.260   6.894  17.478  0.00  0.00    +0.000 C 
BRANCH  20  21
ATOM     21  C   UNL     1       4.635   6.304  17.520  0.00  0.00    +0.000 A 
ATOM     22  C   UNL     1       5.785   6.867  16.980  0.00  0.00    +0.000 A 
ATOM     23  C   UNL     1       6.999   6.178  17.092  0.00  0.00    +0.000 A 
ATOM     24  C   UNL     1       7.063   4.941  17.737  0.00  0.00    +0.000 A 
ATOM     25  F   UNL     1       8.227   4.297  17.826  0.00  0.00    +0.000 F 
ATOM     26  C   UNL     1       5.927   4.369  18.286  0.00  0.00    +0.000 A 
ATOM     27  C   UNL     1       4.733   5.052  18.170  0.00  0.00    +0.000 A 
ATOM     28  F   UNL     1       3.627   4.501  18.703  0.00  0.00    +0.000 F 
ENDBRANCH  20  21
ENDBRANCH  15  20
TORSDOF 2
ENDMDL
MODEL 6
REMARK VINA RESULT:      -9.1      1.630      1.932
REMARK  Name = 
REMARK  2 active torsions:
REMARK  status: ('A' for Active; 'I' for Inactive)
REMARK    1  A    between atoms: C_15  and  C_16
REMARK    2  A    between atoms: C_16  and  C_17
REMARK                            x       y       z     vdW  Elec       q    Type
REMARK                         _______ _______ _______ _____ _____    ______ ____
ROOT
ATOM      1  O   UNL     1      -1.073  12.115  18.646  0.00  0.00    +0.000 OA
ATOM      2  C   UNL     1      -0.884  11.608  19.744  0.00  0.00    +0.000 C 
ATOM      3  C   UNL     1      -1.531  12.190  20.974  0.00  0.00    +0.000 A 
ATOM      4  C   UNL     1      -2.391  13.293  20.932  0.00  0.00    +0.000 A 
ATOM      5  C   UNL     1      -2.963  13.801  22.117  0.00  0.00    +0.000 A 
ATOM      6  C   UNL     1      -2.685  13.221  23.354  0.00  0.00    +0.000 A 
ATOM      7  C   UNL     1      -1.842  12.130  23.406  0.00  0.00    +0.000 A 
ATOM      8  C   UNL     1      -1.282  11.625  22.224  0.00  0.00    +0.000 A 
ATOM      9  C   UNL     1      -0.427  10.460  22.347  0.00  0.00    +0.000 C 
ATOM     10  O   UNL     1      -0.174   9.993  23.453  0.00  0.00    +0.000 OA
ATOM     11  C   UNL     1       0.131   9.847  21.145  0.00  0.00    +0.000 A 
ATOM     12  C   UNL     1       0.846   8.686  21.380  0.00  0.00    +0.000 A 
ATOM     13  C   UNL     1       1.461   8.144  20.288  0.00  0.00    +0.000 A 
ATOM     14  O   UNL     1       2.218   7.051  20.365  0.00  0.00    +0.000 OA
ATOM     15  C   UNL     1       2.727   6.876  19.116  0.00  0.00    +0.000 A 
ATOM     16  N   UNL     1       2.275   7.768  18.232  0.00  0.00    +0.000 NA
ATOM     17  C   UNL     1       1.442   8.614  18.992  0.00  0.00    +0.000 A 
ATOM     18  C   UNL     1       0.649   9.776  18.750  0.00  0.00    +0.000 A 
ATOM     19  C   UNL     1      -0.017  10.391  19.865  0.00  0.00    +0.000 A 
ENDROOT
BRANCH  15  20
ATOM     20  C   UNL     1       3.660   5.714  19.186  0.00  0.00    +0.000 C 
BRANCH  20  21
ATOM     21  C   UNL     1       4.580   5.256  18.099  0.00  0.00    +0.000 A 
ATOM     22  C   UNL     1       4.209   4.898  16.808  0.00  0.00    +0.000 A 
ATOM     23  C   UNL     1       5.195   4.475  15.907  0.00  0.00    +0.000 A 
ATOM     24  C   UNL     1       6.536   4.413  16.292  0.00  0.00    +0.000 A 
ATOM     25  F   UNL     1       7.458   3.999  15.423  0.00  0.00    +0.000 F 
ATOM     26  C   UNL     1       6.923   4.771  17.573  0.00  0.00    +0.000 A 
ATOM     27  C   UNL     1       5.946   5.185  18.456  0.00  0.00    +0.000 A 
ATOM     28  F   UNL     1       6.318   5.537  19.701  0.00  0.00    +0.000 F 
ENDBRANCH  20  21
ENDBRANCH  15  20
TORSDOF 2
ENDMDL
MODEL 7
REMARK VINA RESULT:      -9.0      2.551      4.017
REMARK  Name = 
REMARK  2 active torsions:
REMARK  status: ('A' for Active; 'I' for Inactive)
REMARK    1  A    between atoms: C_15  and  C_16
REMARK    2  A    between atoms: C_16  and  C_17
REMARK                            x       y       z     vdW  Elec       q    Type
REMARK                         _______ _______ _______ _____ _____    ______ ____
ROOT
ATOM      1  O   UNL     1      -0.254   8.633  22.239  0.00  0.00    +0.000 OA
ATOM      2  C   UNL     1       0.198   9.024  21.171  0.00  0.00    +0.000 C 
ATOM      3  C   UNL     1      -0.160  10.391  20.646  0.00  0.00    +0.000 A 
ATOM      4  C   UNL     1      -0.979  11.283  21.345  0.00  0.00    +0.000 A 
ATOM      5  C   UNL     1      -1.287  12.549  20.802  0.00  0.00    +0.000 A 
ATOM      6  C   UNL     1      -0.788  12.937  19.560  0.00  0.00    +0.000 A 
ATOM      7  C   UNL     1       0.025  12.066  18.864  0.00  0.00    +0.000 A 
ATOM      8  C   UNL     1       0.333  10.813  19.412  0.00  0.00    +0.000 A 
ATOM      9  C   UNL     1       1.215   9.957  18.641  0.00  0.00    +0.000 C 
ATOM     10  O   UNL     1       1.610  10.313  17.536  0.00  0.00    +0.000 OA
ATOM     11  C   UNL     1       1.627   8.668  19.190  0.00  0.00    +0.000 A 
ATOM     12  C   UNL     1       2.546   7.988  18.410  0.00  0.00    +0.000 A 
ATOM     13  C   UNL     1       2.876   6.737  18.849  0.00  0.00    +0.000 A 
ATOM     14  O   UNL     1       3.715   5.947  18.181  0.00  0.00    +0.000 OA
ATOM     15  C   UNL     1       3.720   4.770  18.864  0.00  0.00    +0.000 A 
ATOM     16  N   UNL     1       2.976   4.799  19.971  0.00  0.00    +0.000 NA
ATOM     17  C   UNL     1       2.409   6.089  19.972  0.00  0.00    +0.000 A 
ATOM     18  C   UNL     1       1.512   6.826  20.802  0.00  0.00    +0.000 A 
ATOM     19  C   UNL     1       1.125   8.146  20.386  0.00  0.00    +0.000 A 
ENDROOT
BRANCH  15  20
ATOM     20  C   UNL     1       4.576   3.824  18.091  0.00  0.00    +0.000 C 
BRANCH  20  21
ATOM     21  C   UNL     1       5.314   4.135  16.827  0.00  0.00    +0.000 A 
ATOM     22  C   UNL     1       4.819   4.000  15.535  0.00  0.00    +0.000 A 
ATOM     23  C   UNL     1       5.646   4.321  14.451  0.00  0.00    +0.000 A 
ATOM     24  C   UNL     1       6.951   4.774  14.657  0.00  0.00    +0.000 A 
ATOM     25  F   UNL     1       7.725   5.068  13.611  0.00  0.00    +0.000 F 
ATOM     26  C   UNL     1       7.457   4.920  15.938  0.00  0.00    +0.000 A 
ATOM     27  C   UNL     1       6.638   4.598  17.002  0.00  0.00    +0.000 A 
ATOM     28  F   UNL     1       7.124   4.741  18.248  0.00  0.00    +0.000 F 
ENDBRANCH  20  21
ENDBRANCH  15  20
TORSDOF 2
ENDMDL
MODEL 8
REMARK VINA RESULT:      -9.0      1.321      2.640
REMARK  Name = 
REMARK  2 active torsions:
REMARK  status: ('A' for Active; 'I' for Inactive)
REMARK    1  A    between atoms: C_15  and  C_16
REMARK    2  A    between atoms: C_16  and  C_17
REMARK                            x       y       z     vdW  Elec       q    Type
REMARK                         _______ _______ _______ _____ _____    ______ ____
ROOT
ATOM      1  O   UNL     1      -0.852  10.686  23.630  0.00  0.00    +0.000 OA
ATOM      2  C   UNL     1      -0.852  11.083  22.471  0.00  0.00    +0.000 C 
ATOM      3  C   UNL     1      -1.576  12.351  22.100  0.00  0.00    +0.000 A 
ATOM      4  C   UNL     1      -2.244  13.148  23.038  0.00  0.00    +0.000 A 
ATOM      5  C   UNL     1      -2.911  14.323  22.632  0.00  0.00    +0.000 A 
ATOM      6  C   UNL     1      -2.925  14.715  21.295  0.00  0.00    +0.000 A 
ATOM      7  C   UNL     1      -2.267  13.939  20.363  0.00  0.00    +0.000 A 
ATOM      8  C   UNL     1      -1.599  12.776  20.773  0.00  0.00    +0.000 A 
ATOM      9  C   UNL     1      -0.903  12.022  19.748  0.00  0.00    +0.000 C 
ATOM     10  O   UNL     1      -0.963  12.374  18.575  0.00  0.00    +0.000 OA
ATOM     11  C   UNL     1      -0.132  10.839  20.122  0.00  0.00    +0.000 A 
ATOM     12  C   UNL     1       0.566  10.263  19.077  0.00  0.00    +0.000 A 
ATOM     13  C   UNL     1       1.218   9.101  19.376  0.00  0.00    +0.000 A 
ATOM     14  O   UNL     1       1.898   8.410  18.463  0.00  0.00    +0.000 OA
ATOM     15  C   UNL     1       2.317   7.284  19.102  0.00  0.00    +0.000 A 
ATOM     16  N   UNL     1       1.992   7.260  20.396  0.00  0.00    +0.000 NA
ATOM     17  C   UNL     1       1.263   8.450  20.590  0.00  0.00    +0.000 A 
ATOM     18  C   UNL     1       0.591   9.088  21.676  0.00  0.00    +0.000 A 
ATOM     19  C   UNL     1      -0.115  10.312  21.418  0.00  0.00    +0.000 A 
ENDROOT
BRANCH  15  20
ATOM     20  C   UNL     1       3.002   6.436  18.083  0.00  0.00    +0.000 C 
BRANCH  20  21
ATOM     21  C   UNL     1       3.282   4.971  18.201  0.00  0.00    +0.000 A 
ATOM     22  C   UNL     1       4.444   4.397  18.703  0.00  0.00    +0.000 A 
ATOM     23  C   UNL     1       4.557   3.001  18.733  0.00  0.00    +0.000 A 
ATOM     24  C   UNL     1       3.520   2.189  18.267  0.00  0.00    +0.000 A 
ATOM     25  F   UNL     1       3.651   0.863  18.296  0.00  0.00    +0.000 F 
ATOM     26  C   UNL     1       2.354   2.745  17.768  0.00  0.00    +0.000 A 
ATOM     27  C   UNL     1       2.250   4.122  17.740  0.00  0.00    +0.000 A 
ATOM     28  F   UNL     1       1.118   4.667  17.259  0.00  0.00    +0.000 F 
ENDBRANCH  20  21
ENDBRANCH  15  20
TORSDOF 2
ENDMDL
MODEL 9
REMARK VINA RESULT:      -8.9      1.670      2.079
REMARK  Name = 
REMARK  2 active torsions:
REMARK  status: ('A' for Active; 'I' for Inactive)
REMARK    1  A    between atoms: C_15  and  C_16
REMARK    2  A    between atoms: C_16  and  C_17
REMARK                            x       y       z     vdW  Elec       q    Type
REMARK                         _______ _______ _______ _____ _____    ______ ____
ROOT
ATOM      1  O   UNL     1      -0.687  13.183  18.596  0.00  0.00    +0.000 OA
ATOM      2  C   UNL     1      -0.598  12.557  19.644  0.00  0.00    +0.000 C 
ATOM      3  C   UNL     1      -1.226  13.089  20.906  0.00  0.00    +0.000 A 
ATOM      4  C   UNL     1      -1.957  14.282  20.946  0.00  0.00    +0.000 A 
ATOM      5  C   UNL     1      -2.518  14.737  22.159  0.00  0.00    +0.000 A 
ATOM      6  C   UNL     1      -2.355  14.016  23.340  0.00  0.00    +0.000 A 
ATOM      7  C   UNL     1      -1.638  12.836  23.310  0.00  0.00    +0.000 A 
ATOM      8  C   UNL     1      -1.090  12.386  22.101  0.00  0.00    +0.000 A 
ATOM      9  C   UNL     1      -0.373  11.125  22.135  0.00  0.00    +0.000 C 
ATOM     10  O   UNL     1      -0.217  10.531  23.196  0.00  0.00    +0.000 OA
ATOM     11  C   UNL     1       0.163  10.569  20.895  0.00  0.00    +0.000 A 
ATOM     12  C   UNL     1       0.736   9.318  21.037  0.00  0.00    +0.000 A 
ATOM     13  C   UNL     1       1.332   8.815  19.915  0.00  0.00    +0.000 A 
ATOM     14  O   UNL     1       1.962   7.642  19.908  0.00  0.00    +0.000 OA
ATOM     15  C   UNL     1       2.498   7.529  18.662  0.00  0.00    +0.000 A 
ATOM     16  N   UNL     1       2.182   8.545  17.857  0.00  0.00    +0.000 NA
ATOM     17  C   UNL     1       1.416   9.404  18.672  0.00  0.00    +0.000 A 
ATOM     18  C   UNL     1       0.765  10.665  18.522  0.00  0.00    +0.000 A 
ATOM     19  C   UNL     1       0.126  11.244  19.671  0.00  0.00    +0.000 A 
ENDROOT
BRANCH  15  20
ATOM     20  C   UNL     1       3.295   6.268  18.646  0.00  0.00    +0.000 C 
BRANCH  20  21
ATOM     21  C   UNL     1       4.111   5.757  17.501  0.00  0.00    +0.000 A 
ATOM     22  C   UNL     1       4.757   6.532  16.544  0.00  0.00    +0.000 A 
ATOM     23  C   UNL     1       5.474   5.897  15.522  0.00  0.00    +0.000 A 
ATOM     24  C   UNL     1       5.546   4.503  15.458  0.00  0.00    +0.000 A 
ATOM     25  F   UNL     1       6.227   3.918  14.473  0.00  0.00    +0.000 F 
ATOM     26  C   UNL     1       4.914   3.717  16.407  0.00  0.00    +0.000 A 
ATOM     27  C   UNL     1       4.206   4.349  17.410  0.00  0.00    +0.000 A 
ATOM     28  F   UNL     1       3.593   3.589  18.336  0.00  0.00    +0.000 F 
ENDBRANCH  20  21
ENDBRANCH  15  20
TORSDOF 2
ENDMDL
