MODEL 1
REMARK VINA RESULT:     -10.0      0.000      0.000
REMARK  Name = 
REMARK  8 active torsions:
REMARK  status: ('A' for Active; 'I' for Inactive)
REMARK    1  A    between atoms: C_1  and  C_2
REMARK    2  A    between atoms: C_8  and  C_9
REMARK    3  A    between atoms: C_12  and  C_13
REMARK    4  A    between atoms: C_17  and  N_18
REMARK    5  A    between atoms: C_19  and  C_21
REMARK    6  A    between atoms: C_21  and  O_22
REMARK    7  A    between atoms: O_22  and  C_23
REMARK    8  A    between atoms: C_28  and  C_29
REMARK                            x       y       z     vdW  Elec       q    Type
REMARK                         _______ _______ _______ _____ _____    ______ ____
ROOT
ATOM      1  C   UNL     1       1.249   8.929  20.040  0.00  0.00    +0.000 A 
ATOM      2  C   UNL     1       1.197   9.385  18.713  0.00  0.00    +0.000 A 
ATOM      3  C   UNL     1       1.892   8.715  17.700  0.00  0.00    +0.000 A 
ATOM      4  C   UNL     1       2.670   7.598  18.002  0.00  0.00    +0.000 A 
ATOM      5  C   UNL     1       2.709   7.132  19.311  0.00  0.00    +0.000 A 
ATOM      6  C   UNL     1       2.001   7.780  20.320  0.00  0.00    +0.000 A 
ENDROOT
BRANCH   1  10
ATOM      7  C   UNL     1      -0.718  11.212  22.539  0.00  0.00    +0.000 A 
ATOM      8  C   UNL     1      -0.619   9.973  23.135  0.00  0.00    +0.000 A 
ATOM      9  C   UNL     1       0.129   9.055  22.345  0.00  0.00    +0.000 A 
ATOM     10  C   UNL     1       0.557   9.602  21.148  0.00  0.00    +0.000 A 
ATOM     11  S   UNL     1       0.102  11.248  21.037  0.00  0.00    +0.000 S 
BRANCH   7  19
ATOM     12  C   UNL     1      -5.643  13.568  23.727  0.00  0.00    +0.000 C 
ATOM     13  C   UNL     1      -4.333  14.249  23.976  0.00  0.00    +0.000 A 
ATOM     14  C   UNL     1      -4.264  15.546  24.515  0.00  0.00    +0.000 A 
ATOM     15  C   UNL     1      -3.042  16.188  24.744  0.00  0.00    +0.000 A 
ATOM     16  C   UNL     1      -1.831  15.558  24.440  0.00  0.00    +0.000 A 
ATOM     17  C   UNL     1      -1.869  14.269  23.895  0.00  0.00    +0.000 A 
ATOM     18  N   UNL     1      -0.835  13.450  23.505  0.00  0.00    +0.000 NA
ATOM     19  C   UNL     1      -1.407  12.352  23.058  0.00  0.00    +0.000 A 
ATOM     20  N   UNL     1      -2.770  12.439  23.155  0.00  0.00    +0.000 N 
ATOM     21  C   UNL     1      -3.099  13.659  23.683  0.00  0.00    +0.000 A 
ATOM     22  H   UNL     1      -3.413  11.713  22.877  0.00  0.00    +0.000 HD
ENDBRANCH   7  19
ENDBRANCH   1  10
BRANCH   5  23
ATOM     23  N   UNL     1       3.484   6.010  19.647  0.00  0.00    +0.000 N 
ATOM     24  C   UNL     1       3.093   4.765  19.170  0.00  0.00    +0.000 C 
ATOM     25  O   UNL     1       2.065   4.543  18.534  0.00  0.00    +0.000 OA
ATOM     26  H   UNL     1       4.489   6.148  19.646  0.00  0.00    +0.000 HD
BRANCH  24  27
ATOM     27  C   UNL     1       4.081   3.659  19.501  0.00  0.00    +0.000 C 
BRANCH  27  28
ATOM     28  O   UNL     1       5.409   4.142  19.300  0.00  0.00    +0.000 OA
BRANCH  28  29
ATOM     29  C   UNL     1       5.747   4.385  17.988  0.00  0.00    +0.000 A 
ATOM     30  C   UNL     1       5.051   3.792  16.922  0.00  0.00    +0.000 A 
ATOM     31  C   UNL     1       5.415   4.043  15.596  0.00  0.00    +0.000 A 
ATOM     32  C   UNL     1       6.461   4.911  15.313  0.00  0.00    +0.000 A 
ATOM     33  C   UNL     1       7.134   5.539  16.363  0.00  0.00    +0.000 A 
ATOM     34  C   UNL     1       6.791   5.290  17.705  0.00  0.00    +0.000 A 
BRANCH  34  35
ATOM     35  C   UNL     1       7.612   6.000  18.736  0.00  0.00    +0.000 C 
ATOM     36  N   UNL     1       7.841   5.382  19.930  0.00  0.00    +0.000 N 
ATOM     37  O   UNL     1       8.058   7.124  18.540  0.00  0.00    +0.000 OA
ATOM     38  H   UNL     1       7.318   4.554  20.189  0.00  0.00    +0.000 HD
ATOM     39  H   UNL     1       8.287   5.929  20.652  0.00  0.00    +0.000 HD
ENDBRANCH  34  35
ENDBRANCH  28  29
ENDBRANCH  27  28
ENDBRANCH  24  27
ENDBRANCH   5  23
TORSDOF 7
ENDMDL
MODEL 2
REMARK VINA RESULT:      -9.5      0.764      1.366
REMARK  Name = 
REMARK  8 active torsions:
REMARK  status: ('A' for Active; 'I' for Inactive)
REMARK    1  A    between atoms: C_1  and  C_2
REMARK    2  A    between atoms: C_8  and  C_9
REMARK    3  A    between atoms: C_12  and  C_13
REMARK    4  A    between atoms: C_17  and  N_18
REMARK    5  A    between atoms: C_19  and  C_21
REMARK    6  A    between atoms: C_21  and  O_22
REMARK    7  A    between atoms: O_22  and  C_23
REMARK    8  A    between atoms: C_28  and  C_29
REMARK                            x       y       z     vdW  Elec       q    Type
REMARK                         _______ _______ _______ _____ _____    ______ ____
ROOT
ATOM      1  C   UNL     1       1.222   8.978  19.901  0.00  0.00    +0.000 A 
ATOM      2  C   UNL     1       1.287   9.438  18.575  0.00  0.00    +0.000 A 
ATOM      3  C   UNL     1       2.064   8.766  17.623  0.00  0.00    +0.000 A 
ATOM      4  C   UNL     1       2.805   7.643  17.988  0.00  0.00    +0.000 A 
ATOM      5  C   UNL     1       2.729   7.173  19.293  0.00  0.00    +0.000 A 
ATOM      6  C   UNL     1       1.940   7.823  20.240  0.00  0.00    +0.000 A 
ENDROOT
BRANCH   1  10
ATOM      7  C   UNL     1      -1.109  11.144  22.180  0.00  0.00    +0.000 A 
ATOM      8  C   UNL     1      -0.706  10.069  22.942  0.00  0.00    +0.000 A 
ATOM      9  C   UNL     1       0.198   9.222  22.240  0.00  0.00    +0.000 A 
ATOM     10  C   UNL     1       0.441   9.651  20.948  0.00  0.00    +0.000 A 
ATOM     11  S   UNL     1      -0.381  11.118  20.631  0.00  0.00    +0.000 S 
BRANCH   7  19
ATOM     12  C   UNL     1      -2.331  16.596  22.109  0.00  0.00    +0.000 C 
ATOM     13  C   UNL     1      -3.193  15.577  22.787  0.00  0.00    +0.000 A 
ATOM     14  C   UNL     1      -4.369  15.938  23.469  0.00  0.00    +0.000 A 
ATOM     15  C   UNL     1      -5.175  14.989  24.108  0.00  0.00    +0.000 A 
ATOM     16  C   UNL     1      -4.836  13.632  24.094  0.00  0.00    +0.000 A 
ATOM     17  C   UNL     1      -3.667  13.244  23.428  0.00  0.00    +0.000 A 
ATOM     18  N   UNL     1      -3.116  11.992  23.280  0.00  0.00    +0.000 NA
ATOM     19  C   UNL     1      -2.018  12.174  22.577  0.00  0.00    +0.000 A 
ATOM     20  N   UNL     1      -1.853  13.497  22.264  0.00  0.00    +0.000 N 
ATOM     21  C   UNL     1      -2.891  14.211  22.802  0.00  0.00    +0.000 A 
ATOM     22  H   UNL     1      -1.085  13.868  21.727  0.00  0.00    +0.000 HD
ENDBRANCH   7  19
ENDBRANCH   1  10
BRANCH   5  23
ATOM     23  N   UNL     1       3.465   6.045  19.691  0.00  0.00    +0.000 N 
ATOM     24  C   UNL     1       3.156   4.816  19.122  0.00  0.00    +0.000 C 
ATOM     25  O   UNL     1       2.225   4.610  18.347  0.00  0.00    +0.000 OA
ATOM     26  H   UNL     1       4.459   6.191  19.830  0.00  0.00    +0.000 HD
BRANCH  24  27
ATOM     27  C   UNL     1       4.104   3.705  19.543  0.00  0.00    +0.000 C 
BRANCH  27  28
ATOM     28  O   UNL     1       5.450   4.138  19.344  0.00  0.00    +0.000 OA
BRANCH  28  29
ATOM     29  C   UNL     1       5.794   4.385  18.035  0.00  0.00    +0.000 A 
ATOM     30  C   UNL     1       5.100   3.799  16.964  0.00  0.00    +0.000 A 
ATOM     31  C   UNL     1       5.469   4.053  15.641  0.00  0.00    +0.000 A 
ATOM     32  C   UNL     1       6.520   4.918  15.365  0.00  0.00    +0.000 A 
ATOM     33  C   UNL     1       7.191   5.540  16.420  0.00  0.00    +0.000 A 
ATOM     34  C   UNL     1       6.842   5.287  17.760  0.00  0.00    +0.000 A 
BRANCH  34  35
ATOM     35  C   UNL     1       7.661   5.991  18.796  0.00  0.00    +0.000 C 
ATOM     36  N   UNL     1       7.898   5.361  19.982  0.00  0.00    +0.000 N 
ATOM     37  O   UNL     1       8.099   7.120  18.612  0.00  0.00    +0.000 OA
ATOM     38  H   UNL     1       7.381   4.526  20.233  0.00  0.00    +0.000 HD
ATOM     39  H   UNL     1       8.342   5.902  20.710  0.00  0.00    +0.000 HD
ENDBRANCH  34  35
ENDBRANCH  28  29
ENDBRANCH  27  28
ENDBRANCH  24  27
ENDBRANCH   5  23
TORSDOF 7
ENDMDL
MODEL 3
REMARK VINA RESULT:      -9.4      1.375      1.975
REMARK  Name = 
REMARK  8 active torsions:
REMARK  status: ('A' for Active; 'I' for Inactive)
REMARK    1  A    between atoms: C_1  and  C_2
REMARK    2  A    between atoms: C_8  and  C_9
REMARK    3  A    between atoms: C_12  and  C_13
REMARK    4  A    between atoms: C_17  and  N_18
REMARK    5  A    between atoms: C_19  and  C_21
REMARK    6  A    between atoms: C_21  and  O_22
REMARK    7  A    between atoms: O_22  and  C_23
REMARK    8  A    between atoms: C_28  and  C_29
REMARK                            x       y       z     vdW  Elec       q    Type
REMARK                         _______ _______ _______ _____ _____    ______ ____
ROOT
ATOM      1  C   UNL     1       1.008   9.254  19.970  0.00  0.00    +0.000 A 
ATOM      2  C   UNL     1       1.050   9.795  18.675  0.00  0.00    +0.000 A 
ATOM      3  C   UNL     1       1.784   9.167  17.662  0.00  0.00    +0.000 A 
ATOM      4  C   UNL     1       2.506   8.006  17.935  0.00  0.00    +0.000 A 
ATOM      5  C   UNL     1       2.453   7.456  19.210  0.00  0.00    +0.000 A 
ATOM      6  C   UNL     1       1.706   8.063  20.217  0.00  0.00    +0.000 A 
ENDROOT
BRANCH   1  10
ATOM      7  C   UNL     1      -1.191  11.339  22.448  0.00  0.00    +0.000 A 
ATOM      8  C   UNL     1      -0.829  10.190  23.118  0.00  0.00    +0.000 A 
ATOM      9  C   UNL     1       0.026   9.360  22.338  0.00  0.00    +0.000 A 
ATOM     10  C   UNL     1       0.272   9.878  21.079  0.00  0.00    +0.000 A 
ATOM     11  S   UNL     1      -0.485  11.401  20.890  0.00  0.00    +0.000 S 
BRANCH   7  19
ATOM     12  C   UNL     1      -6.434  13.062  23.322  0.00  0.00    +0.000 C 
ATOM     13  C   UNL     1      -5.236  13.886  23.679  0.00  0.00    +0.000 A 
ATOM     14  C   UNL     1      -5.360  15.166  24.248  0.00  0.00    +0.000 A 
ATOM     15  C   UNL     1      -4.243  15.941  24.578  0.00  0.00    +0.000 A 
ATOM     16  C   UNL     1      -2.946  15.467  24.349  0.00  0.00    +0.000 A 
ATOM     17  C   UNL     1      -2.792  14.198  23.778  0.00  0.00    +0.000 A 
ATOM     18  N   UNL     1      -1.643  13.519  23.448  0.00  0.00    +0.000 NA
ATOM     19  C   UNL     1      -2.047  12.375  22.938  0.00  0.00    +0.000 A 
ATOM     20  N   UNL     1      -3.414  12.297  22.937  0.00  0.00    +0.000 N 
ATOM     21  C   UNL     1      -3.922  13.454  23.465  0.00  0.00    +0.000 A 
ATOM     22  H   UNL     1      -3.944  11.509  22.599  0.00  0.00    +0.000 HD
ENDBRANCH   7  19
ENDBRANCH   1  10
BRANCH   5  23
ATOM     23  N   UNL     1       3.171   6.289  19.515  0.00  0.00    +0.000 N 
ATOM     24  C   UNL     1       2.945   5.151  18.750  0.00  0.00    +0.000 C 
ATOM     25  O   UNL     1       2.100   5.052  17.864  0.00  0.00    +0.000 OA
ATOM     26  H   UNL     1       4.143   6.420  19.772  0.00  0.00    +0.000 HD
BRANCH  24  27
ATOM     27  C   UNL     1       3.872   3.999  19.102  0.00  0.00    +0.000 C 
BRANCH  27  28
ATOM     28  O   UNL     1       4.896   3.903  18.114  0.00  0.00    +0.000 OA
BRANCH  28  29
ATOM     29  C   UNL     1       5.911   4.824  18.236  0.00  0.00    +0.000 A 
ATOM     30  C   UNL     1       6.684   4.923  19.405  0.00  0.00    +0.000 A 
ATOM     31  C   UNL     1       7.704   5.872  19.515  0.00  0.00    +0.000 A 
ATOM     32  C   UNL     1       7.987   6.717  18.451  0.00  0.00    +0.000 A 
ATOM     33  C   UNL     1       7.254   6.600  17.268  0.00  0.00    +0.000 A 
ATOM     34  C   UNL     1       6.214   5.660  17.142  0.00  0.00    +0.000 A 
BRANCH  34  35
ATOM     35  C   UNL     1       5.484   5.660  15.835  0.00  0.00    +0.000 C 
ATOM     36  N   UNL     1       4.993   6.840  15.360  0.00  0.00    +0.000 N 
ATOM     37  O   UNL     1       5.299   4.628  15.202  0.00  0.00    +0.000 OA
ATOM     38  H   UNL     1       4.954   7.658  15.956  0.00  0.00    +0.000 HD
ATOM     39  H   UNL     1       4.398   6.795  14.545  0.00  0.00    +0.000 HD
ENDBRANCH  34  35
ENDBRANCH  28  29
ENDBRANCH  27  28
ENDBRANCH  24  27
ENDBRANCH   5  23
TORSDOF 7
ENDMDL
MODEL 4
REMARK VINA RESULT:      -9.3      1.319      2.323
REMARK  Name = 
REMARK  8 active torsions:
REMARK  status: ('A' for Active; 'I' for Inactive)
REMARK    1  A    between atoms: C_1  and  C_2
REMARK    2  A    between atoms: C_8  and  C_9
REMARK    3  A    between atoms: C_12  and  C_13
REMARK    4  A    between atoms: C_17  and  N_18
REMARK    5  A    between atoms: C_19  and  C_21
REMARK    6  A    between atoms: C_21  and  O_22
REMARK    7  A    between atoms: O_22  and  C_23
REMARK    8  A    between atoms: C_28  and  C_29
REMARK                            x       y       z     vdW  Elec       q    Type
REMARK                         _______ _______ _______ _____ _____    ______ ____
ROOT
ATOM      1  C   UNL     1       0.963   9.046  20.170  0.00  0.00    +0.000 A 
ATOM      2  C   UNL     1       0.970   9.476  18.833  0.00  0.00    +0.000 A 
ATOM      3  C   UNL     1       1.719   8.794  17.867  0.00  0.00    +0.000 A 
ATOM      4  C   UNL     1       2.492   7.690  18.228  0.00  0.00    +0.000 A 
ATOM      5  C   UNL     1       2.473   7.249  19.546  0.00  0.00    +0.000 A 
ATOM      6  C   UNL     1       1.711   7.909  20.507  0.00  0.00    +0.000 A 
ENDROOT
BRANCH   1  10
ATOM      7  C   UNL     1      -1.281  11.258  22.492  0.00  0.00    +0.000 A 
ATOM      8  C   UNL     1      -0.901  10.165  23.241  0.00  0.00    +0.000 A 
ATOM      9  C   UNL     1      -0.030   9.298  22.522  0.00  0.00    +0.000 A 
ATOM     10  C   UNL     1       0.212   9.732  21.231  0.00  0.00    +0.000 A 
ATOM     11  S   UNL     1      -0.570  11.225  20.936  0.00  0.00    +0.000 S 
BRANCH   7  19
ATOM     12  C   UNL     1      -1.752  16.287  24.881  0.00  0.00    +0.000 C 
ATOM     13  C   UNL     1      -2.929  15.510  24.380  0.00  0.00    +0.000 A 
ATOM     14  C   UNL     1      -4.243  15.998  24.498  0.00  0.00    +0.000 A 
ATOM     15  C   UNL     1      -5.347  15.273  24.036  0.00  0.00    +0.000 A 
ATOM     16  C   UNL     1      -5.182  14.019  23.435  0.00  0.00    +0.000 A 
ATOM     17  C   UNL     1      -3.886  13.505  23.311  0.00  0.00    +0.000 A 
ATOM     18  N   UNL     1      -3.464  12.310  22.777  0.00  0.00    +0.000 NA
ATOM     19  C   UNL     1      -2.155  12.310  22.908  0.00  0.00    +0.000 A 
ATOM     20  N   UNL     1      -1.725  13.467  23.501  0.00  0.00    +0.000 N 
ATOM     21  C   UNL     1      -2.813  14.253  23.778  0.00  0.00    +0.000 A 
ATOM     22  H   UNL     1      -0.761  13.689  23.697  0.00  0.00    +0.000 HD
ENDBRANCH   7  19
ENDBRANCH   1  10
BRANCH   5  23
ATOM     23  N   UNL     1       3.241   6.142  19.939  0.00  0.00    +0.000 N 
ATOM     24  C   UNL     1       2.984   4.911  19.348  0.00  0.00    +0.000 C 
ATOM     25  O   UNL     1       2.073   4.685  18.555  0.00  0.00    +0.000 OA
ATOM     26  H   UNL     1       4.227   6.319  20.097  0.00  0.00    +0.000 HD
BRANCH  24  27
ATOM     27  C   UNL     1       3.963   3.827  19.770  0.00  0.00    +0.000 C 
BRANCH  27  28
ATOM     28  O   UNL     1       4.834   3.533  18.678  0.00  0.00    +0.000 OA
BRANCH  28  29
ATOM     29  C   UNL     1       5.760   4.511  18.394  0.00  0.00    +0.000 A 
ATOM     30  C   UNL     1       6.584   5.062  19.389  0.00  0.00    +0.000 A 
ATOM     31  C   UNL     1       7.513   6.060  19.083  0.00  0.00    +0.000 A 
ATOM     32  C   UNL     1       7.653   6.505  17.775  0.00  0.00    +0.000 A 
ATOM     33  C   UNL     1       6.868   5.935  16.770  0.00  0.00    +0.000 A 
ATOM     34  C   UNL     1       5.919   4.937  17.059  0.00  0.00    +0.000 A 
BRANCH  34  35
ATOM     35  C   UNL     1       5.120   4.434  15.898  0.00  0.00    +0.000 C 
ATOM     36  N   UNL     1       3.838   4.025  16.115  0.00  0.00    +0.000 N 
ATOM     37  O   UNL     1       5.598   4.361  14.772  0.00  0.00    +0.000 OA
ATOM     38  H   UNL     1       3.495   3.884  17.057  0.00  0.00    +0.000 HD
ATOM     39  H   UNL     1       3.363   3.573  15.346  0.00  0.00    +0.000 HD
ENDBRANCH  34  35
ENDBRANCH  28  29
ENDBRANCH  27  28
ENDBRANCH  24  27
ENDBRANCH   5  23
TORSDOF 7
ENDMDL
MODEL 5
REMARK VINA RESULT:      -8.7      4.536     11.503
REMARK  Name = 
REMARK  8 active torsions:
REMARK  status: ('A' for Active; 'I' for Inactive)
REMARK    1  A    between atoms: C_1  and  C_2
REMARK    2  A    between atoms: C_8  and  C_9
REMARK    3  A    between atoms: C_12  and  C_13
REMARK    4  A    between atoms: C_17  and  N_18
REMARK    5  A    between atoms: C_19  and  C_21
REMARK    6  A    between atoms: C_21  and  O_22
REMARK    7  A    between atoms: O_22  and  C_23
REMARK    8  A    between atoms: C_28  and  C_29
REMARK                            x       y       z     vdW  Elec       q    Type
REMARK                         _______ _______ _______ _____ _____    ______ ____
ROOT
ATOM      1  C   UNL     1       0.176  11.665  20.084  0.00  0.00    +0.000 A 
ATOM      2  C   UNL     1       0.998  12.803  20.141  0.00  0.00    +0.000 A 
ATOM      3  C   UNL     1       0.440  14.084  20.215  0.00  0.00    +0.000 A 
ATOM      4  C   UNL     1      -0.945  14.249  20.207  0.00  0.00    +0.000 A 
ATOM      5  C   UNL     1      -1.762  13.126  20.171  0.00  0.00    +0.000 A 
ATOM      6  C   UNL     1      -1.214  11.846  20.120  0.00  0.00    +0.000 A 
ENDROOT
BRANCH   1  10
ATOM      7  C   UNL     1       1.887   8.244  19.257  0.00  0.00    +0.000 A 
ATOM      8  C   UNL     1       1.438   8.152  20.557  0.00  0.00    +0.000 A 
ATOM      9  C   UNL     1       0.742   9.324  20.968  0.00  0.00    +0.000 A 
ATOM     10  C   UNL     1       0.702  10.297  19.985  0.00  0.00    +0.000 A 
ATOM     11  S   UNL     1       1.453   9.741  18.551  0.00  0.00    +0.000 S 
BRANCH   7  19
ATOM     12  C   UNL     1       2.728   2.801  18.314  0.00  0.00    +0.000 C 
ATOM     13  C   UNL     1       3.512   3.877  17.629  0.00  0.00    +0.000 A 
ATOM     14  C   UNL     1       4.531   3.577  16.708  0.00  0.00    +0.000 A 
ATOM     15  C   UNL     1       5.270   4.580  16.069  0.00  0.00    +0.000 A 
ATOM     16  C   UNL     1       5.020   5.932  16.328  0.00  0.00    +0.000 A 
ATOM     17  C   UNL     1       4.016   6.259  17.247  0.00  0.00    +0.000 A 
ATOM     18  N   UNL     1       3.589   7.495  17.677  0.00  0.00    +0.000 NA
ATOM     19  C   UNL     1       2.628   7.251  18.543  0.00  0.00    +0.000 A 
ATOM     20  N   UNL     1       2.421   5.904  18.675  0.00  0.00    +0.000 N 
ATOM     21  C   UNL     1       3.300   5.240  17.861  0.00  0.00    +0.000 A 
ATOM     22  H   UNL     1       1.730   5.486  19.279  0.00  0.00    +0.000 HD
ENDBRANCH   7  19
ENDBRANCH   1  10
BRANCH   5  23
ATOM     23  N   UNL     1      -3.160  13.260  20.160  0.00  0.00    +0.000 N 
ATOM     24  C   UNL     1      -3.827  13.354  21.375  0.00  0.00    +0.000 C 
ATOM     25  O   UNL     1      -3.301  13.248  22.480  0.00  0.00    +0.000 OA
ATOM     26  H   UNL     1      -3.543  13.861  19.439  0.00  0.00    +0.000 HD
BRANCH  24  27
ATOM     27  C   UNL     1      -5.316  13.619  21.223  0.00  0.00    +0.000 C 
BRANCH  27  28
ATOM     28  O   UNL     1      -5.756  13.105  19.966  0.00  0.00    +0.000 OA
BRANCH  28  29
ATOM     29  C   UNL     1      -6.378  11.879  20.024  0.00  0.00    +0.000 A 
ATOM     30  C   UNL     1      -7.302  11.564  21.034  0.00  0.00    +0.000 A 
ATOM     31  C   UNL     1      -7.916  10.310  21.083  0.00  0.00    +0.000 A 
ATOM     32  C   UNL     1      -7.640   9.361  20.108  0.00  0.00    +0.000 A 
ATOM     33  C   UNL     1      -6.755   9.676  19.075  0.00  0.00    +0.000 A 
ATOM     34  C   UNL     1      -6.116  10.929  19.016  0.00  0.00    +0.000 A 
BRANCH  34  35
ATOM     35  C   UNL     1      -5.166  11.128  17.876  0.00  0.00    +0.000 C 
ATOM     36  N   UNL     1      -3.969  10.475  17.901  0.00  0.00    +0.000 N 
ATOM     37  O   UNL     1      -5.429  11.877  16.943  0.00  0.00    +0.000 OA
ATOM     38  H   UNL     1      -3.649  10.021  18.748  0.00  0.00    +0.000 HD
ATOM     39  H   UNL     1      -3.296  10.722  17.190  0.00  0.00    +0.000 HD
ENDBRANCH  34  35
ENDBRANCH  28  29
ENDBRANCH  27  28
ENDBRANCH  24  27
ENDBRANCH   5  23
TORSDOF 7
ENDMDL
MODEL 6
REMARK VINA RESULT:      -8.6      3.911     12.217
REMARK  Name = 
REMARK  8 active torsions:
REMARK  status: ('A' for Active; 'I' for Inactive)
REMARK    1  A    between atoms: C_1  and  C_2
REMARK    2  A    between atoms: C_8  and  C_9
REMARK    3  A    between atoms: C_12  and  C_13
REMARK    4  A    between atoms: C_17  and  N_18
REMARK    5  A    between atoms: C_19  and  C_21
REMARK    6  A    between atoms: C_21  and  O_22
REMARK    7  A    between atoms: O_22  and  C_23
REMARK    8  A    between atoms: C_28  and  C_29
REMARK                            x       y       z     vdW  Elec       q    Type
REMARK                         _______ _______ _______ _____ _____    ______ ____
ROOT
ATOM      1  C   UNL     1       0.201   9.904  21.024  0.00  0.00    +0.000 A 
ATOM      2  C   UNL     1       0.073   9.203  22.235  0.00  0.00    +0.000 A 
ATOM      3  C   UNL     1      -0.699   9.720  23.281  0.00  0.00    +0.000 A 
ATOM      4  C   UNL     1      -1.332  10.955  23.143  0.00  0.00    +0.000 A 
ATOM      5  C   UNL     1      -1.225  11.643  21.941  0.00  0.00    +0.000 A 
ATOM      6  C   UNL     1      -0.477  11.123  20.887  0.00  0.00    +0.000 A 
ENDROOT
BRANCH   1  10
ATOM      7  C   UNL     1       2.409   8.042  18.382  0.00  0.00    +0.000 A 
ATOM      8  C   UNL     1       1.901   9.158  17.751  0.00  0.00    +0.000 A 
ATOM      9  C   UNL     1       1.114   9.959  18.628  0.00  0.00    +0.000 A 
ATOM     10  C   UNL     1       1.013   9.422  19.899  0.00  0.00    +0.000 A 
ATOM     11  S   UNL     1       1.935   7.985  20.026  0.00  0.00    +0.000 S 
BRANCH   7  19
ATOM     12  C   UNL     1       3.377   2.574  17.763  0.00  0.00    +0.000 C 
ATOM     13  C   UNL     1       4.219   3.629  17.116  0.00  0.00    +0.000 A 
ATOM     14  C   UNL     1       5.329   3.303  16.315  0.00  0.00    +0.000 A 
ATOM     15  C   UNL     1       6.121   4.285  15.711  0.00  0.00    +0.000 A 
ATOM     16  C   UNL     1       5.838   5.644  15.886  0.00  0.00    +0.000 A 
ATOM     17  C   UNL     1       4.743   5.999  16.683  0.00  0.00    +0.000 A 
ATOM     18  N   UNL     1       4.267   7.247  17.015  0.00  0.00    +0.000 NA
ATOM     19  C   UNL     1       3.225   7.029  17.789  0.00  0.00    +0.000 A 
ATOM     20  N   UNL     1       3.015   5.687  17.958  0.00  0.00    +0.000 N 
ATOM     21  C   UNL     1       3.976   4.998  17.265  0.00  0.00    +0.000 A 
ATOM     22  H   UNL     1       2.269   5.287  18.506  0.00  0.00    +0.000 HD
ENDBRANCH   7  19
ENDBRANCH   1  10
BRANCH   5  23
ATOM     23  N   UNL     1      -1.850  12.889  21.772  0.00  0.00    +0.000 N 
ATOM     24  C   UNL     1      -1.538  13.914  22.657  0.00  0.00    +0.000 C 
ATOM     25  O   UNL     1      -0.811  13.801  23.641  0.00  0.00    +0.000 OA
ATOM     26  H   UNL     1      -1.967  13.200  20.814  0.00  0.00    +0.000 HD
BRANCH  24  27
ATOM     27  C   UNL     1      -2.185  15.240  22.291  0.00  0.00    +0.000 C 
BRANCH  27  28
ATOM     28  O   UNL     1      -3.316  15.457  23.133  0.00  0.00    +0.000 OA
BRANCH  28  29
ATOM     29  C   UNL     1      -4.503  14.950  22.656  0.00  0.00    +0.000 A 
ATOM     30  C   UNL     1      -5.169  15.527  21.563  0.00  0.00    +0.000 A 
ATOM     31  C   UNL     1      -6.378  15.005  21.098  0.00  0.00    +0.000 A 
ATOM     32  C   UNL     1      -6.928  13.880  21.698  0.00  0.00    +0.000 A 
ATOM     33  C   UNL     1      -6.254  13.271  22.760  0.00  0.00    +0.000 A 
ATOM     34  C   UNL     1      -5.042  13.790  23.251  0.00  0.00    +0.000 A 
BRANCH  34  35
ATOM     35  C   UNL     1      -4.439  13.064  24.413  0.00  0.00    +0.000 C 
ATOM     36  N   UNL     1      -3.763  13.782  25.354  0.00  0.00    +0.000 N 
ATOM     37  O   UNL     1      -4.520  11.847  24.522  0.00  0.00    +0.000 OA
ATOM     38  H   UNL     1      -3.510  14.748  25.180  0.00  0.00    +0.000 HD
ATOM     39  H   UNL     1      -3.260  13.260  26.057  0.00  0.00    +0.000 HD
ENDBRANCH  34  35
ENDBRANCH  28  29
ENDBRANCH  27  28
ENDBRANCH  24  27
ENDBRANCH   5  23
TORSDOF 7
ENDMDL
MODEL 7
REMARK VINA RESULT:      -8.6      1.731      2.348
REMARK  Name = 
REMARK  8 active torsions:
REMARK  status: ('A' for Active; 'I' for Inactive)
REMARK    1  A    between atoms: C_1  and  C_2
REMARK    2  A    between atoms: C_8  and  C_9
REMARK    3  A    between atoms: C_12  and  C_13
REMARK    4  A    between atoms: C_17  and  N_18
REMARK    5  A    between atoms: C_19  and  C_21
REMARK    6  A    between atoms: C_21  and  O_22
REMARK    7  A    between atoms: O_22  and  C_23
REMARK    8  A    between atoms: C_28  and  C_29
REMARK                            x       y       z     vdW  Elec       q    Type
REMARK                         _______ _______ _______ _____ _____    ______ ____
ROOT
ATOM      1  C   UNL     1       0.943   9.264  19.352  0.00  0.00    +0.000 A 
ATOM      2  C   UNL     1       1.512   9.326  18.070  0.00  0.00    +0.000 A 
ATOM      3  C   UNL     1       2.413   8.344  17.640  0.00  0.00    +0.000 A 
ATOM      4  C   UNL     1       2.778   7.304  18.493  0.00  0.00    +0.000 A 
ATOM      5  C   UNL     1       2.203   7.228  19.756  0.00  0.00    +0.000 A 
ATOM      6  C   UNL     1       1.288   8.188  20.182  0.00  0.00    +0.000 A 
ENDROOT
BRANCH   1  10
ATOM      7  C   UNL     1      -1.094  12.034  21.221  0.00  0.00    +0.000 A 
ATOM      8  C   UNL     1      -1.655  11.915  19.968  0.00  0.00    +0.000 A 
ATOM      9  C   UNL     1      -1.033  10.892  19.197  0.00  0.00    +0.000 A 
ATOM     10  C   UNL     1       0.008  10.274  19.866  0.00  0.00    +0.000 A 
ATOM     11  S   UNL     1       0.169  10.902  21.450  0.00  0.00    +0.000 S 
BRANCH   7  19
ATOM     12  C   UNL     1      -5.258  14.783  23.737  0.00  0.00    +0.000 C 
ATOM     13  C   UNL     1      -3.822  14.939  24.134  0.00  0.00    +0.000 A 
ATOM     14  C   UNL     1      -3.430  15.809  25.166  0.00  0.00    +0.000 A 
ATOM     15  C   UNL     1      -2.089  15.961  25.537  0.00  0.00    +0.000 A 
ATOM     16  C   UNL     1      -1.078  15.246  24.885  0.00  0.00    +0.000 A 
ATOM     17  C   UNL     1      -1.439  14.377  23.849  0.00  0.00    +0.000 A 
ATOM     18  N   UNL     1      -0.646  13.580  23.056  0.00  0.00    +0.000 NA
ATOM     19  C   UNL     1      -1.474  12.967  22.236  0.00  0.00    +0.000 A 
ATOM     20  N   UNL     1      -2.768  13.340  22.483  0.00  0.00    +0.000 N 
ATOM     21  C   UNL     1      -2.779  14.248  23.508  0.00  0.00    +0.000 A 
ATOM     22  H   UNL     1      -3.571  12.993  21.981  0.00  0.00    +0.000 HD
ENDBRANCH   7  19
ENDBRANCH   1  10
BRANCH   5  23
ATOM     23  N   UNL     1       2.551   6.193  20.639  0.00  0.00    +0.000 N 
ATOM     24  C   UNL     1       1.727   5.075  20.710  0.00  0.00    +0.000 C 
ATOM     25  O   UNL     1       0.659   4.946  20.117  0.00  0.00    +0.000 OA
ATOM     26  H   UNL     1       3.539   5.974  20.698  0.00  0.00    +0.000 HD
BRANCH  24  27
ATOM     27  C   UNL     1       2.280   3.980  21.607  0.00  0.00    +0.000 C 
BRANCH  27  28
ATOM     28  O   UNL     1       3.441   3.416  20.996  0.00  0.00    +0.000 OA
BRANCH  28  29
ATOM     29  C   UNL     1       3.290   3.064  19.675  0.00  0.00    +0.000 A 
ATOM     30  C   UNL     1       2.232   2.248  19.242  0.00  0.00    +0.000 A 
ATOM     31  C   UNL     1       2.100   1.893  17.897  0.00  0.00    +0.000 A 
ATOM     32  C   UNL     1       3.005   2.370  16.958  0.00  0.00    +0.000 A 
ATOM     33  C   UNL     1       4.037   3.216  17.369  0.00  0.00    +0.000 A 
ATOM     34  C   UNL     1       4.194   3.575  18.721  0.00  0.00    +0.000 A 
BRANCH  34  35
ATOM     35  C   UNL     1       5.360   4.461  19.034  0.00  0.00    +0.000 C 
ATOM     36  N   UNL     1       6.587   4.125  18.543  0.00  0.00    +0.000 N 
ATOM     37  O   UNL     1       5.240   5.458  19.735  0.00  0.00    +0.000 OA
ATOM     38  H   UNL     1       6.746   3.209  18.140  0.00  0.00    +0.000 HD
ATOM     39  H   UNL     1       7.376   4.664  18.870  0.00  0.00    +0.000 HD
ENDBRANCH  34  35
ENDBRANCH  28  29
ENDBRANCH  27  28
ENDBRANCH  24  27
ENDBRANCH   5  23
TORSDOF 7
ENDMDL
MODEL 8
REMARK VINA RESULT:      -8.5      4.601     11.747
REMARK  Name = 
REMARK  8 active torsions:
REMARK  status: ('A' for Active; 'I' for Inactive)
REMARK    1  A    between atoms: C_1  and  C_2
REMARK    2  A    between atoms: C_8  and  C_9
REMARK    3  A    between atoms: C_12  and  C_13
REMARK    4  A    between atoms: C_17  and  N_18
REMARK    5  A    between atoms: C_19  and  C_21
REMARK    6  A    between atoms: C_21  and  O_22
REMARK    7  A    between atoms: O_22  and  C_23
REMARK    8  A    between atoms: C_28  and  C_29
REMARK                            x       y       z     vdW  Elec       q    Type
REMARK                         _______ _______ _______ _____ _____    ______ ____
ROOT
ATOM      1  C   UNL     1       0.127  11.008  19.395  0.00  0.00    +0.000 A 
ATOM      2  C   UNL     1       0.564  12.210  19.978  0.00  0.00    +0.000 A 
ATOM      3  C   UNL     1      -0.341  13.244  20.246  0.00  0.00    +0.000 A 
ATOM      4  C   UNL     1      -1.687  13.103  19.912  0.00  0.00    +0.000 A 
ATOM      5  C   UNL     1      -2.128  11.910  19.353  0.00  0.00    +0.000 A 
ATOM      6  C   UNL     1      -1.237  10.867  19.105  0.00  0.00    +0.000 A 
ENDROOT
BRANCH   1  10
ATOM      7  C   UNL     1       2.200   7.709  19.020  0.00  0.00    +0.000 A 
ATOM      8  C   UNL     1       2.477   8.474  17.908  0.00  0.00    +0.000 A 
ATOM      9  C   UNL     1       1.820   9.737  17.947  0.00  0.00    +0.000 A 
ATOM     10  C   UNL     1       1.031   9.896  19.072  0.00  0.00    +0.000 A 
ATOM     11  S   UNL     1       1.157   8.533  20.099  0.00  0.00    +0.000 S 
BRANCH   7  19
ATOM     12  C   UNL     1       1.421   2.892  21.742  0.00  0.00    +0.000 C 
ATOM     13  C   UNL     1       2.590   3.138  20.840  0.00  0.00    +0.000 A 
ATOM     14  C   UNL     1       3.583   2.164  20.633  0.00  0.00    +0.000 A 
ATOM     15  C   UNL     1       4.680   2.391  19.795  0.00  0.00    +0.000 A 
ATOM     16  C   UNL     1       4.831   3.610  19.125  0.00  0.00    +0.000 A 
ATOM     17  C   UNL     1       3.861   4.601  19.317  0.00  0.00    +0.000 A 
ATOM     18  N   UNL     1       3.787   5.870  18.790  0.00  0.00    +0.000 NA
ATOM     19  C   UNL     1       2.686   6.392  19.289  0.00  0.00    +0.000 A 
ATOM     20  N   UNL     1       2.052   5.499  20.110  0.00  0.00    +0.000 N 
ATOM     21  C   UNL     1       2.784   4.342  20.154  0.00  0.00    +0.000 A 
ATOM     22  H   UNL     1       1.188   5.680  20.597  0.00  0.00    +0.000 HD
ENDBRANCH   7  19
ENDBRANCH   1  10
BRANCH   5  23
ATOM     23  N   UNL     1      -3.477  11.739  19.006  0.00  0.00    +0.000 N 
ATOM     24  C   UNL     1      -3.795  11.495  17.675  0.00  0.00    +0.000 C 
ATOM     25  O   UNL     1      -2.991  11.495  16.746  0.00  0.00    +0.000 OA
ATOM     26  H   UNL     1      -4.041  11.209  19.661  0.00  0.00    +0.000 HD
BRANCH  24  27
ATOM     27  C   UNL     1      -5.271  11.206  17.454  0.00  0.00    +0.000 C 
BRANCH  27  28
ATOM     28  O   UNL     1      -6.040  12.309  17.933  0.00  0.00    +0.000 OA
BRANCH  28  29
ATOM     29  C   UNL     1      -6.659  12.103  19.144  0.00  0.00    +0.000 A 
ATOM     30  C   UNL     1      -7.154  10.843  19.518  0.00  0.00    +0.000 A 
ATOM     31  C   UNL     1      -7.788  10.655  20.749  0.00  0.00    +0.000 A 
ATOM     32  C   UNL     1      -7.914  11.715  21.637  0.00  0.00    +0.000 A 
ATOM     33  C   UNL     1      -7.390  12.963  21.294  0.00  0.00    +0.000 A 
ATOM     34  C   UNL     1      -6.758  13.175  20.055  0.00  0.00    +0.000 A 
BRANCH  34  35
ATOM     35  C   UNL     1      -6.269  14.566  19.797  0.00  0.00    +0.000 C 
ATOM     36  N   UNL     1      -6.380  15.076  18.537  0.00  0.00    +0.000 N 
ATOM     37  O   UNL     1      -5.754  15.241  20.680  0.00  0.00    +0.000 OA
ATOM     38  H   UNL     1      -6.608  14.472  17.756  0.00  0.00    +0.000 HD
ATOM     39  H   UNL     1      -5.931  15.963  18.358  0.00  0.00    +0.000 HD
ENDBRANCH  34  35
ENDBRANCH  28  29
ENDBRANCH  27  28
ENDBRANCH  24  27
ENDBRANCH   5  23
TORSDOF 7
ENDMDL
MODEL 9
REMARK VINA RESULT:      -8.5      4.089     12.181
REMARK  Name = 
REMARK  8 active torsions:
REMARK  status: ('A' for Active; 'I' for Inactive)
REMARK    1  A    between atoms: C_1  and  C_2
REMARK    2  A    between atoms: C_8  and  C_9
REMARK    3  A    between atoms: C_12  and  C_13
REMARK    4  A    between atoms: C_17  and  N_18
REMARK    5  A    between atoms: C_19  and  C_21
REMARK    6  A    between atoms: C_21  and  O_22
REMARK    7  A    between atoms: O_22  and  C_23
REMARK    8  A    between atoms: C_28  and  C_29
REMARK                            x       y       z     vdW  Elec       q    Type
REMARK                         _______ _______ _______ _____ _____    ______ ____
ROOT
ATOM      1  C   UNL     1       0.151  11.181  19.426  0.00  0.00    +0.000 A 
ATOM      2  C   UNL     1       0.785  12.387  19.083  0.00  0.00    +0.000 A 
ATOM      3  C   UNL     1       0.081  13.597  19.113  0.00  0.00    +0.000 A 
ATOM      4  C   UNL     1      -1.269  13.616  19.461  0.00  0.00    +0.000 A 
ATOM      5  C   UNL     1      -1.895  12.428  19.819  0.00  0.00    +0.000 A 
ATOM      6  C   UNL     1      -1.195  11.223  19.813  0.00  0.00    +0.000 A 
ENDROOT
BRANCH   1  10
ATOM      7  C   UNL     1       2.235   7.935  18.758  0.00  0.00    +0.000 A 
ATOM      8  C   UNL     1       1.819   7.870  20.070  0.00  0.00    +0.000 A 
ATOM      9  C   UNL     1       0.998   8.977  20.429  0.00  0.00    +0.000 A 
ATOM     10  C   UNL     1       0.831   9.879  19.393  0.00  0.00    +0.000 A 
ATOM     11  S   UNL     1       1.620   9.329  17.977  0.00  0.00    +0.000 S 
BRANCH   7  19
ATOM     12  C   UNL     1       3.329   2.562  17.686  0.00  0.00    +0.000 C 
ATOM     13  C   UNL     1       4.148   3.686  17.132  0.00  0.00    +0.000 A 
ATOM     14  C   UNL     1       5.265   3.453  16.311  0.00  0.00    +0.000 A 
ATOM     15  C   UNL     1       6.036   4.500  15.794  0.00  0.00    +0.000 A 
ATOM     16  C   UNL     1       5.721   5.833  16.081  0.00  0.00    +0.000 A 
ATOM     17  C   UNL     1       4.618   6.095  16.902  0.00  0.00    +0.000 A 
ATOM     18  N   UNL     1       4.113   7.299  17.335  0.00  0.00    +0.000 NA
ATOM     19  C   UNL     1       3.075   6.994  18.085  0.00  0.00    +0.000 A 
ATOM     20  N   UNL     1       2.895   5.638  18.139  0.00  0.00    +0.000 N 
ATOM     21  C   UNL     1       3.873   5.032  17.395  0.00  0.00    +0.000 A 
ATOM     22  H   UNL     1       2.159   5.177  18.650  0.00  0.00    +0.000 HD
ENDBRANCH   7  19
ENDBRANCH   1  10
BRANCH   5  23
ATOM     23  N   UNL     1      -3.254  12.414  20.172  0.00  0.00    +0.000 N 
ATOM     24  C   UNL     1      -4.190  12.081  19.200  0.00  0.00    +0.000 C 
ATOM     25  O   UNL     1      -3.935  11.871  18.017  0.00  0.00    +0.000 OA
ATOM     26  H   UNL     1      -3.470  12.041  21.089  0.00  0.00    +0.000 HD
BRANCH  24  27
ATOM     27  C   UNL     1      -5.607  11.983  19.741  0.00  0.00    +0.000 C 
BRANCH  27  28
ATOM     28  O   UNL     1      -5.563  11.962  21.167  0.00  0.00    +0.000 OA
BRANCH  28  29
ATOM     29  C   UNL     1      -6.221  13.000  21.785  0.00  0.00    +0.000 A 
ATOM     30  C   UNL     1      -7.265  13.696  21.152  0.00  0.00    +0.000 A 
ATOM     31  C   UNL     1      -7.916  14.755  21.791  0.00  0.00    +0.000 A 
ATOM     32  C   UNL     1      -7.554  15.117  23.082  0.00  0.00    +0.000 A 
ATOM     33  C   UNL     1      -6.547  14.406  23.737  0.00  0.00    +0.000 A 
ATOM     34  C   UNL     1      -5.871  13.345  23.106  0.00  0.00    +0.000 A 
BRANCH  34  35
ATOM     35  C   UNL     1      -4.789  12.688  23.905  0.00  0.00    +0.000 C 
ATOM     36  N   UNL     1      -3.504  12.766  23.456  0.00  0.00    +0.000 N 
ATOM     37  O   UNL     1      -5.035  12.067  24.932  0.00  0.00    +0.000 OA
ATOM     38  H   UNL     1      -3.307  13.092  22.517  0.00  0.00    +0.000 HD
ATOM     39  H   UNL     1      -2.813  12.211  23.940  0.00  0.00    +0.000 HD
ENDBRANCH  34  35
ENDBRANCH  28  29
ENDBRANCH  27  28
ENDBRANCH  24  27
ENDBRANCH   5  23
TORSDOF 7
ENDMDL
