MODEL 1
REMARK VINA RESULT:      -7.3      0.000      0.000
REMARK  Name = 
REMARK  5 active torsions:
REMARK  status: ('A' for Active; 'I' for Inactive)
REMARK    1  A    between atoms: N_7  and  C_8
REMARK    2  A    between atoms: C_8  and  C_9
REMARK    3  A    between atoms: C_9  and  C_10
REMARK    4  A    between atoms: C_10  and  C_11
REMARK    5  A    between atoms: C_11  and  N_12
REMARK                            x       y       z     vdW  Elec       q    Type
REMARK                         _______ _______ _______ _____ _____    ______ ____
ROOT
ATOM      1  C   UNL     1       4.536   3.793  17.211  0.00  0.00    +0.000 C 
ENDROOT
BRANCH   1   2
ATOM      2  C   UNL     1       4.439   5.171  17.873  0.00  0.00    +0.000 C 
BRANCH   2   9
ATOM      3  O   UNL     1       5.635   7.112  15.979  0.00  0.00    +0.000 OA
ATOM      4  C   UNL     1       6.180   6.711  16.991  0.00  0.00    +0.000 C 
ATOM      5  C   UNL     1       7.531   7.106  17.404  0.00  0.00    +0.000 C 
ATOM      6  C   UNL     1       7.806   6.482  18.551  0.00  0.00    +0.000 C 
ATOM      7  C   UNL     1       6.637   5.667  18.906  0.00  0.00    +0.000 C 
ATOM      8  O   UNL     1       6.569   4.976  19.906  0.00  0.00    +0.000 OA
ATOM      9  N   UNL     1       5.717   5.846  17.925  0.00  0.00    +0.000 N 
ENDBRANCH   2   9
ENDBRANCH   1   2
BRANCH   1  10
ATOM     10  C   UNL     1       3.177   3.090  17.109  0.00  0.00    +0.000 C 
BRANCH  10  11
ATOM     11  C   UNL     1       3.066   1.882  18.043  0.00  0.00    +0.000 C 
BRANCH  11  12
ATOM     12  N   UNL     1       2.593   2.245  19.360  0.00  0.00    +0.000 N 
ATOM     13  C   UNL     1       3.394   2.437  20.436  0.00  0.00    +0.000 C 
ATOM     14  O   UNL     1       4.603   2.316  20.522  0.00  0.00    +0.000 OA
ATOM     15  C   UNL     1       2.531   2.854  21.547  0.00  0.00    +0.000 C 
ATOM     16  C   UNL     1       1.276   2.879  21.096  0.00  0.00    +0.000 C 
ATOM     17  C   UNL     1       1.298   2.478  19.685  0.00  0.00    +0.000 C 
ATOM     18  O   UNL     1       0.305   2.399  18.986  0.00  0.00    +0.000 OA
ENDBRANCH  11  12
ENDBRANCH  10  11
ENDBRANCH   1  10
TORSDOF 5
ENDMDL
MODEL 2
REMARK VINA RESULT:      -6.8      0.649      1.836
REMARK  Name = 
REMARK  5 active torsions:
REMARK  status: ('A' for Active; 'I' for Inactive)
REMARK    1  A    between atoms: N_7  and  C_8
REMARK    2  A    between atoms: C_8  and  C_9
REMARK    3  A    between atoms: C_9  and  C_10
REMARK    4  A    between atoms: C_10  and  C_11
REMARK    5  A    between atoms: C_11  and  N_12
REMARK                            x       y       z     vdW  Elec       q    Type
REMARK                         _______ _______ _______ _____ _____    ______ ____
ROOT
ATOM      1  C   UNL     1       5.211   3.583  17.863  0.00  0.00    +0.000 C 
ENDROOT
BRANCH   1   2
ATOM      2  C   UNL     1       5.085   4.862  18.695  0.00  0.00    +0.000 C 
BRANCH   2   9
ATOM      3  O   UNL     1       5.358   6.816  16.483  0.00  0.00    +0.000 OA
ATOM      4  C   UNL     1       6.183   6.650  17.361  0.00  0.00    +0.000 C 
ATOM      5  C   UNL     1       7.458   7.372  17.433  0.00  0.00    +0.000 C 
ATOM      6  C   UNL     1       8.109   6.945  18.516  0.00  0.00    +0.000 C 
ATOM      7  C   UNL     1       7.270   5.933  19.170  0.00  0.00    +0.000 C 
ATOM      8  O   UNL     1       7.581   5.349  20.192  0.00  0.00    +0.000 OA
ATOM      9  N   UNL     1       6.148   5.804  18.419  0.00  0.00    +0.000 N 
ENDBRANCH   2   9
ENDBRANCH   1   2
BRANCH   1  10
ATOM     10  C   UNL     1       3.851   3.028  17.423  0.00  0.00    +0.000 C 
BRANCH  10  11
ATOM     11  C   UNL     1       3.370   1.874  18.306  0.00  0.00    +0.000 C 
BRANCH  11  12
ATOM     12  N   UNL     1       2.618   2.334  19.453  0.00  0.00    +0.000 N 
ATOM     13  C   UNL     1       1.298   2.643  19.429  0.00  0.00    +0.000 C 
ATOM     14  O   UNL     1       0.526   2.633  18.488  0.00  0.00    +0.000 OA
ATOM     15  C   UNL     1       0.915   2.999  20.800  0.00  0.00    +0.000 C 
ATOM     16  C   UNL     1       2.005   2.901  21.563  0.00  0.00    +0.000 C 
ATOM     17  C   UNL     1       3.117   2.481  20.704  0.00  0.00    +0.000 C 
ATOM     18  O   UNL     1       4.254   2.304  21.103  0.00  0.00    +0.000 OA
ENDBRANCH  11  12
ENDBRANCH  10  11
ENDBRANCH   1  10
TORSDOF 5
ENDMDL
MODEL 3
REMARK VINA RESULT:      -6.8      0.702      5.856
REMARK  Name = 
REMARK  5 active torsions:
REMARK  status: ('A' for Active; 'I' for Inactive)
REMARK    1  A    between atoms: N_7  and  C_8
REMARK    2  A    between atoms: C_8  and  C_9
REMARK    3  A    between atoms: C_9  and  C_10
REMARK    4  A    between atoms: C_10  and  C_11
REMARK    5  A    between atoms: C_11  and  N_12
REMARK                            x       y       z     vdW  Elec       q    Type
REMARK                         _______ _______ _______ _____ _____    ______ ____
ROOT
ATOM      1  C   UNL     1       4.450   2.687  17.838  0.00  0.00    +0.000 C 
ENDROOT
BRANCH   1   2
ATOM      2  C   UNL     1       3.242   1.881  18.324  0.00  0.00    +0.000 C 
BRANCH   2   9
ATOM      3  O   UNL     1       3.851   2.260  21.200  0.00  0.00    +0.000 OA
ATOM      4  C   UNL     1       2.853   2.680  20.646  0.00  0.00    +0.000 C 
ATOM      5  C   UNL     1       1.781   3.409  21.332  0.00  0.00    +0.000 C 
ATOM      6  C   UNL     1       0.851   3.716  20.427  0.00  0.00    +0.000 C 
ATOM      7  C   UNL     1       1.299   3.190  19.132  0.00  0.00    +0.000 C 
ATOM      8  O   UNL     1       0.671   3.309  18.095  0.00  0.00    +0.000 OA
ATOM      9  N   UNL     1       2.491   2.578  19.344  0.00  0.00    +0.000 N 
ENDBRANCH   2   9
ENDBRANCH   1   2
BRANCH   1  10
ATOM     10  C   UNL     1       4.048   3.917  17.016  0.00  0.00    +0.000 C 
BRANCH  10  11
ATOM     11  C   UNL     1       4.133   5.217  17.820  0.00  0.00    +0.000 C 
BRANCH  11  12
ATOM     12  N   UNL     1       5.465   5.780  17.818  0.00  0.00    +0.000 N 
ATOM     13  C   UNL     1       6.380   5.588  18.800  0.00  0.00    +0.000 C 
ATOM     14  O   UNL     1       6.266   4.969  19.842  0.00  0.00    +0.000 OA
ATOM     15  C   UNL     1       7.610   6.269  18.382  0.00  0.00    +0.000 C 
ATOM     16  C   UNL     1       7.375   6.838  17.198  0.00  0.00    +0.000 C 
ATOM     17  C   UNL     1       5.989   6.538  16.824  0.00  0.00    +0.000 C 
ATOM     18  O   UNL     1       5.466   6.920  15.793  0.00  0.00    +0.000 OA
ENDBRANCH  11  12
ENDBRANCH  10  11
ENDBRANCH   1  10
TORSDOF 5
ENDMDL
MODEL 4
REMARK VINA RESULT:      -6.8      1.632      5.753
REMARK  Name = 
REMARK  5 active torsions:
REMARK  status: ('A' for Active; 'I' for Inactive)
REMARK    1  A    between atoms: N_7  and  C_8
REMARK    2  A    between atoms: C_8  and  C_9
REMARK    3  A    between atoms: C_9  and  C_10
REMARK    4  A    between atoms: C_10  and  C_11
REMARK    5  A    between atoms: C_11  and  N_12
REMARK                            x       y       z     vdW  Elec       q    Type
REMARK                         _______ _______ _______ _____ _____    ______ ____
ROOT
ATOM      1  C   UNL     1       2.917   3.174  17.029  0.00  0.00    +0.000 C 
ENDROOT
BRANCH   1   2
ATOM      2  C   UNL     1       2.050   4.216  17.742  0.00  0.00    +0.000 C 
BRANCH   2   9
ATOM      3  O   UNL     1       3.402   5.351  20.123  0.00  0.00    +0.000 OA
ATOM      4  C   UNL     1       2.552   4.481  20.162  0.00  0.00    +0.000 C 
ATOM      5  C   UNL     1       2.095   3.839  21.399  0.00  0.00    +0.000 C 
ATOM      6  C   UNL     1       1.165   2.940  21.073  0.00  0.00    +0.000 C 
ATOM      7  C   UNL     1       0.999   2.980  19.615  0.00  0.00    +0.000 C 
ATOM      8  O   UNL     1       0.216   2.278  19.001  0.00  0.00    +0.000 OA
ATOM      9  N   UNL     1       1.865   3.911  19.143  0.00  0.00    +0.000 N 
ENDBRANCH   2   9
ENDBRANCH   1   2
BRANCH   1  10
ATOM     10  C   UNL     1       4.418   3.425  17.218  0.00  0.00    +0.000 C 
BRANCH  10  11
ATOM     11  C   UNL     1       5.005   4.338  16.138  0.00  0.00    +0.000 C 
BRANCH  11  12
ATOM     12  N   UNL     1       5.797   5.412  16.695  0.00  0.00    +0.000 N 
ATOM     13  C   UNL     1       7.130   5.337  16.932  0.00  0.00    +0.000 C 
ATOM     14  O   UNL     1       7.885   4.395  16.770  0.00  0.00    +0.000 OA
ATOM     15  C   UNL     1       7.553   6.649  17.431  0.00  0.00    +0.000 C 
ATOM     16  C   UNL     1       6.473   7.431  17.481  0.00  0.00    +0.000 C 
ATOM     17  C   UNL     1       5.327   6.641  17.017  0.00  0.00    +0.000 C 
ATOM     18  O   UNL     1       4.190   7.071  16.946  0.00  0.00    +0.000 OA
ENDBRANCH  11  12
ENDBRANCH  10  11
ENDBRANCH   1  10
TORSDOF 5
ENDMDL
MODEL 5
REMARK VINA RESULT:      -6.8      0.802      2.510
REMARK  Name = 
REMARK  5 active torsions:
REMARK  status: ('A' for Active; 'I' for Inactive)
REMARK    1  A    between atoms: N_7  and  C_8
REMARK    2  A    between atoms: C_8  and  C_9
REMARK    3  A    between atoms: C_9  and  C_10
REMARK    4  A    between atoms: C_10  and  C_11
REMARK    5  A    between atoms: C_11  and  N_12
REMARK                            x       y       z     vdW  Elec       q    Type
REMARK                         _______ _______ _______ _____ _____    ______ ____
ROOT
ATOM      1  C   UNL     1       4.423   3.882  17.282  0.00  0.00    +0.000 C 
ENDROOT
BRANCH   1   2
ATOM      2  C   UNL     1       4.449   5.238  17.994  0.00  0.00    +0.000 C 
BRANCH   2   9
ATOM      3  O   UNL     1       6.686   5.112  19.935  0.00  0.00    +0.000 OA
ATOM      4  C   UNL     1       6.707   5.751  18.900  0.00  0.00    +0.000 C 
ATOM      5  C   UNL     1       7.837   6.585  18.476  0.00  0.00    +0.000 C 
ATOM      6  C   UNL     1       7.521   7.134  17.302  0.00  0.00    +0.000 C 
ATOM      7  C   UNL     1       6.177   6.668  16.940  0.00  0.00    +0.000 C 
ATOM      8  O   UNL     1       5.600   6.988  15.917  0.00  0.00    +0.000 OA
ATOM      9  N   UNL     1       5.754   5.860  17.943  0.00  0.00    +0.000 N 
ENDBRANCH   2   9
ENDBRANCH   1   2
BRANCH   1  10
ATOM     10  C   UNL     1       4.660   2.707  18.239  0.00  0.00    +0.000 C 
BRANCH  10  11
ATOM     11  C   UNL     1       3.381   1.921  18.537  0.00  0.00    +0.000 C 
BRANCH  11  12
ATOM     12  N   UNL     1       2.496   2.629  19.435  0.00  0.00    +0.000 N 
ATOM     13  C   UNL     1       1.377   3.289  19.046  0.00  0.00    +0.000 C 
ATOM     14  O   UNL     1       0.931   3.444  17.924  0.00  0.00    +0.000 OA
ATOM     15  C   UNL     1       0.738   3.806  20.261  0.00  0.00    +0.000 C 
ATOM     16  C   UNL     1       1.496   3.450  21.300  0.00  0.00    +0.000 C 
ATOM     17  C   UNL     1       2.642   2.696  20.780  0.00  0.00    +0.000 C 
ATOM     18  O   UNL     1       3.523   2.232  21.481  0.00  0.00    +0.000 OA
ENDBRANCH  11  12
ENDBRANCH  10  11
ENDBRANCH   1  10
TORSDOF 5
ENDMDL
MODEL 6
REMARK VINA RESULT:      -6.8      1.185      6.016
REMARK  Name = 
REMARK  5 active torsions:
REMARK  status: ('A' for Active; 'I' for Inactive)
REMARK    1  A    between atoms: N_7  and  C_8
REMARK    2  A    between atoms: C_8  and  C_9
REMARK    3  A    between atoms: C_9  and  C_10
REMARK    4  A    between atoms: C_10  and  C_11
REMARK    5  A    between atoms: C_11  and  N_12
REMARK                            x       y       z     vdW  Elec       q    Type
REMARK                         _______ _______ _______ _____ _____    ______ ____
ROOT
ATOM      1  C   UNL     1       4.656   2.820  18.171  0.00  0.00    +0.000 C 
ENDROOT
BRANCH   1   2
ATOM      2  C   UNL     1       3.402   2.006  18.503  0.00  0.00    +0.000 C 
BRANCH   2   9
ATOM      3  O   UNL     1       3.479   2.259  21.455  0.00  0.00    +0.000 OA
ATOM      4  C   UNL     1       2.624   2.753  20.744  0.00  0.00    +0.000 C 
ATOM      5  C   UNL     1       1.481   3.520  21.249  0.00  0.00    +0.000 C 
ATOM      6  C   UNL     1       0.753   3.908  20.200  0.00  0.00    +0.000 C 
ATOM      7  C   UNL     1       1.410   3.398  18.990  0.00  0.00    +0.000 C 
ATOM      8  O   UNL     1       0.994   3.586  17.861  0.00  0.00    +0.000 OA
ATOM      9  N   UNL     1       2.508   2.713  19.394  0.00  0.00    +0.000 N 
ENDBRANCH   2   9
ENDBRANCH   1   2
BRANCH   1  10
ATOM     10  C   UNL     1       4.469   3.717  16.941  0.00  0.00    +0.000 C 
BRANCH  10  11
ATOM     11  C   UNL     1       5.798   4.101  16.285  0.00  0.00    +0.000 C 
BRANCH  11  12
ATOM     12  N   UNL     1       6.379   5.289  16.871  0.00  0.00    +0.000 N 
ATOM     13  C   UNL     1       7.396   5.282  17.767  0.00  0.00    +0.000 C 
ATOM     14  O   UNL     1       7.973   4.331  18.263  0.00  0.00    +0.000 OA
ATOM     15  C   UNL     1       7.726   6.682  18.055  0.00  0.00    +0.000 C 
ATOM     16  C   UNL     1       6.899   7.447  17.341  0.00  0.00    +0.000 C 
ATOM     17  C   UNL     1       6.015   6.560  16.576  0.00  0.00    +0.000 C 
ATOM     18  O   UNL     1       5.142   6.955  15.825  0.00  0.00    +0.000 OA
ENDBRANCH  11  12
ENDBRANCH  10  11
ENDBRANCH   1  10
TORSDOF 5
ENDMDL
MODEL 7
REMARK VINA RESULT:      -6.8      1.434      2.624
REMARK  Name = 
REMARK  5 active torsions:
REMARK  status: ('A' for Active; 'I' for Inactive)
REMARK    1  A    between atoms: N_7  and  C_8
REMARK    2  A    between atoms: C_8  and  C_9
REMARK    3  A    between atoms: C_9  and  C_10
REMARK    4  A    between atoms: C_10  and  C_11
REMARK    5  A    between atoms: C_11  and  N_12
REMARK                            x       y       z     vdW  Elec       q    Type
REMARK                         _______ _______ _______ _____ _____    ______ ____
ROOT
ATOM      1  C   UNL     1       4.626   4.591  16.457  0.00  0.00    +0.000 C 
ENDROOT
BRANCH   1   2
ATOM      2  C   UNL     1       4.770   5.903  17.233  0.00  0.00    +0.000 C 
BRANCH   2   9
ATOM      3  O   UNL     1       5.845   4.295  19.478  0.00  0.00    +0.000 OA
ATOM      4  C   UNL     1       6.432   5.221  18.950  0.00  0.00    +0.000 C 
ATOM      5  C   UNL     1       7.752   5.700  19.374  0.00  0.00    +0.000 C 
ATOM      6  C   UNL     1       8.091   6.718  18.581  0.00  0.00    +0.000 C 
ATOM      7  C   UNL     1       6.995   6.921  17.625  0.00  0.00    +0.000 C 
ATOM      8  O   UNL     1       6.999   7.777  16.759  0.00  0.00    +0.000 OA
ATOM      9  N   UNL     1       6.041   6.002  17.914  0.00  0.00    +0.000 N 
ENDBRANCH   2   9
ENDBRANCH   1   2
BRANCH   1  10
ATOM     10  C   UNL     1       3.593   3.645  17.082  0.00  0.00    +0.000 C 
BRANCH  10  11
ATOM     11  C   UNL     1       2.319   4.370  17.521  0.00  0.00    +0.000 C 
BRANCH  11  12
ATOM     12  N   UNL     1       1.926   4.025  18.870  0.00  0.00    +0.000 N 
ATOM     13  C   UNL     1       1.157   2.956  19.194  0.00  0.00    +0.000 C 
ATOM     14  O   UNL     1       0.639   2.135  18.459  0.00  0.00    +0.000 OA
ATOM     15  C   UNL     1       1.051   2.930  20.656  0.00  0.00    +0.000 C 
ATOM     16  C   UNL     1       1.737   3.971  21.131  0.00  0.00    +0.000 C 
ATOM     17  C   UNL     1       2.301   4.694  19.986  0.00  0.00    +0.000 C 
ATOM     18  O   UNL     1       2.982   5.699  20.086  0.00  0.00    +0.000 OA
ENDBRANCH  11  12
ENDBRANCH  10  11
ENDBRANCH   1  10
TORSDOF 5
ENDMDL
MODEL 8
REMARK VINA RESULT:      -6.8      1.369      5.767
REMARK  Name = 
REMARK  5 active torsions:
REMARK  status: ('A' for Active; 'I' for Inactive)
REMARK    1  A    between atoms: N_7  and  C_8
REMARK    2  A    between atoms: C_8  and  C_9
REMARK    3  A    between atoms: C_9  and  C_10
REMARK    4  A    between atoms: C_10  and  C_11
REMARK    5  A    between atoms: C_11  and  N_12
REMARK                            x       y       z     vdW  Elec       q    Type
REMARK                         _______ _______ _______ _____ _____    ______ ____
ROOT
ATOM      1  C   UNL     1       3.480   3.422  17.106  0.00  0.00    +0.000 C 
ENDROOT
BRANCH   1   2
ATOM      2  C   UNL     1       2.270   4.251  17.545  0.00  0.00    +0.000 C 
BRANCH   2   9
ATOM      3  O   UNL     1       3.060   5.568  20.080  0.00  0.00    +0.000 OA
ATOM      4  C   UNL     1       2.304   4.618  20.004  0.00  0.00    +0.000 C 
ATOM      5  C   UNL     1       1.697   3.960  21.166  0.00  0.00    +0.000 C 
ATOM      6  C   UNL     1       0.930   2.965  20.717  0.00  0.00    +0.000 C 
ATOM      7  C   UNL     1       1.024   2.956  19.252  0.00  0.00    +0.000 C 
ATOM      8  O   UNL     1       0.435   2.166  18.538  0.00  0.00    +0.000 OA
ATOM      9  N   UNL     1       1.867   3.959  18.903  0.00  0.00    +0.000 N 
ENDBRANCH   2   9
ENDBRANCH   1   2
BRANCH   1  10
ATOM     10  C   UNL     1       4.616   4.286  16.544  0.00  0.00    +0.000 C 
BRANCH  10  11
ATOM     11  C   UNL     1       4.680   5.671  17.193  0.00  0.00    +0.000 C 
BRANCH  11  12
ATOM     12  N   UNL     1       5.934   5.901  17.877  0.00  0.00    +0.000 N 
ATOM     13  C   UNL     1       6.394   5.148  18.906  0.00  0.00    +0.000 C 
ATOM     14  O   UNL     1       5.864   4.202  19.460  0.00  0.00    +0.000 OA
ATOM     15  C   UNL     1       7.717   5.672  19.263  0.00  0.00    +0.000 C 
ATOM     16  C   UNL     1       7.977   6.701  18.456  0.00  0.00    +0.000 C 
ATOM     17  C   UNL     1       6.828   6.868  17.559  0.00  0.00    +0.000 C 
ATOM     18  O   UNL     1       6.756   7.728  16.701  0.00  0.00    +0.000 OA
ENDBRANCH  11  12
ENDBRANCH  10  11
ENDBRANCH   1  10
TORSDOF 5
ENDMDL
MODEL 9
REMARK VINA RESULT:      -6.8      1.873      2.810
REMARK  Name = 
REMARK  5 active torsions:
REMARK  status: ('A' for Active; 'I' for Inactive)
REMARK    1  A    between atoms: N_7  and  C_8
REMARK    2  A    between atoms: C_8  and  C_9
REMARK    3  A    between atoms: C_9  and  C_10
REMARK    4  A    between atoms: C_10  and  C_11
REMARK    5  A    between atoms: C_11  and  N_12
REMARK                            x       y       z     vdW  Elec       q    Type
REMARK                         _______ _______ _______ _____ _____    ______ ____
ROOT
ATOM      1  C   UNL     1       6.173   5.378  19.316  0.00  0.00    +0.000 C 
ENDROOT
BRANCH   1   2
ATOM      2  C   UNL     1       6.605   6.302  18.174  0.00  0.00    +0.000 C 
BRANCH   2   9
ATOM      3  O   UNL     1       4.630   6.879  16.040  0.00  0.00    +0.000 OA
ATOM      4  C   UNL     1       5.484   6.015  15.973  0.00  0.00    +0.000 C 
ATOM      5  C   UNL     1       5.639   5.105  14.833  0.00  0.00    +0.000 C 
ATOM      6  C   UNL     1       6.667   4.295  15.094  0.00  0.00    +0.000 C 
ATOM      7  C   UNL     1       7.200   4.663  16.412  0.00  0.00    +0.000 C 
ATOM      8  O   UNL     1       8.149   4.112  16.939  0.00  0.00    +0.000 OA
ATOM      9  N   UNL     1       6.438   5.685  16.876  0.00  0.00    +0.000 N 
ENDBRANCH   2   9
ENDBRANCH   1   2
BRANCH   1  10
ATOM     10  C   UNL     1       4.678   5.041  19.272  0.00  0.00    +0.000 C 
BRANCH  10  11
ATOM     11  C   UNL     1       4.415   3.550  19.043  0.00  0.00    +0.000 C 
BRANCH  11  12
ATOM     12  N   UNL     1       3.037   3.190  19.290  0.00  0.00    +0.000 N 
ATOM     13  C   UNL     1       2.070   3.165  18.340  0.00  0.00    +0.000 C 
ATOM     14  O   UNL     1       2.147   3.458  17.161  0.00  0.00    +0.000 OA
ATOM     15  C   UNL     1       0.843   2.687  18.987  0.00  0.00    +0.000 C 
ATOM     16  C   UNL     1       1.124   2.464  20.272  0.00  0.00    +0.000 C 
ATOM     17  C   UNL     1       2.537   2.794  20.485  0.00  0.00    +0.000 C 
ATOM     18  O   UNL     1       3.102   2.698  21.560  0.00  0.00    +0.000 OA
ENDBRANCH  11  12
ENDBRANCH  10  11
ENDBRANCH   1  10
TORSDOF 5
ENDMDL
