MODEL 1
REMARK VINA RESULT:      -6.2      0.000      0.000
REMARK  Name = 
REMARK  5 active torsions:
REMARK  status: ('A' for Active; 'I' for Inactive)
REMARK    1  A    between atoms: C_1  and  C_2
REMARK    2  A    between atoms: C_4  and  C_5
REMARK    3  A    between atoms: C_6  and  C_7
REMARK    4  A    between atoms: C_11  and  C_12
REMARK    5  A    between atoms: C_12  and  O_13
REMARK                            x       y       z     vdW  Elec       q    Type
REMARK                         _______ _______ _______ _____ _____    ______ ____
ROOT
ATOM      1  C   UNL     1       3.473   4.807  17.890  0.00  0.00    +0.000 C 
ATOM      2  O   UNL     1       2.898   5.893  17.947  0.00  0.00    +0.000 OA
ATOM      3  N   UNL     1       2.879   3.654  18.382  0.00  0.00    +0.000 N 
ATOM      4  C   UNL     1       1.552   3.552  18.961  0.00  0.00    +0.000 C 
ATOM      5  C   UNL     1       2.145   2.661  20.055  0.00  0.00    +0.000 C 
ATOM      6  C   UNL     1       3.487   2.698  19.305  0.00  0.00    +0.000 C 
ENDROOT
BRANCH   1  12
ATOM      7  C   UNL     1       6.297   3.895  14.092  0.00  0.00    +0.000 C 
ATOM      8  C   UNL     1       6.075   4.236  15.510  0.00  0.00    +0.000 A 
ATOM      9  C   UNL     1       6.900   4.614  16.544  0.00  0.00    +0.000 A 
ATOM     10  C   UNL     1       6.059   4.864  17.668  0.00  0.00    +0.000 A 
ATOM     11  C   UNL     1       6.487   5.335  19.008  0.00  0.00    +0.000 C 
ATOM     12  C   UNL     1       4.759   4.619  17.236  0.00  0.00    +0.000 A 
ATOM     13  O   UNL     1       4.785   4.217  15.927  0.00  0.00    +0.000 OA
ENDBRANCH   1  12
BRANCH   5  14
ATOM     14  C   UNL     1       2.114   3.299  21.431  0.00  0.00    +0.000 C 
BRANCH  14  15
ATOM     15  O   UNL     1       1.410   2.449  22.328  0.00  0.00    +0.000 OA
ATOM     16  H   UNL     1       1.579   1.530  22.052  0.00  0.00    +0.000 HD
ENDBRANCH  14  15
ENDBRANCH   5  14
TORSDOF 3
ENDMDL
MODEL 2
REMARK VINA RESULT:      -6.2      1.540      1.662
REMARK  Name = 
REMARK  5 active torsions:
REMARK  status: ('A' for Active; 'I' for Inactive)
REMARK    1  A    between atoms: C_1  and  C_2
REMARK    2  A    between atoms: C_4  and  C_5
REMARK    3  A    between atoms: C_6  and  C_7
REMARK    4  A    between atoms: C_11  and  C_12
REMARK    5  A    between atoms: C_12  and  O_13
REMARK                            x       y       z     vdW  Elec       q    Type
REMARK                         _______ _______ _______ _____ _____    ______ ____
ROOT
ATOM      1  C   UNL     1       3.163   3.617  17.354  0.00  0.00    +0.000 C 
ATOM      2  O   UNL     1       2.109   3.376  16.766  0.00  0.00    +0.000 OA
ATOM      3  N   UNL     1       3.493   2.962  18.532  0.00  0.00    +0.000 N 
ATOM      4  C   UNL     1       2.715   1.925  19.185  0.00  0.00    +0.000 C 
ATOM      5  C   UNL     1       2.994   2.617  20.521  0.00  0.00    +0.000 C 
ATOM      6  C   UNL     1       3.920   3.594  19.778  0.00  0.00    +0.000 C 
ENDROOT
BRANCH   1  12
ATOM      7  C   UNL     1       6.865   4.770  14.492  0.00  0.00    +0.000 C 
ATOM      8  C   UNL     1       5.851   5.086  15.515  0.00  0.00    +0.000 A 
ATOM      9  C   UNL     1       5.447   6.243  16.138  0.00  0.00    +0.000 A 
ATOM     10  C   UNL     1       4.365   5.890  16.997  0.00  0.00    +0.000 A 
ATOM     11  C   UNL     1       3.573   6.811  17.850  0.00  0.00    +0.000 C 
ATOM     12  C   UNL     1       4.178   4.520  16.835  0.00  0.00    +0.000 A 
ATOM     13  O   UNL     1       5.103   4.040  15.946  0.00  0.00    +0.000 OA
ENDBRANCH   1  12
BRANCH   5  14
ATOM     14  C   UNL     1       1.753   3.207  21.162  0.00  0.00    +0.000 C 
BRANCH  14  15
ATOM     15  O   UNL     1       1.448   2.484  22.349  0.00  0.00    +0.000 OA
ATOM     16  H   UNL     1       1.039   3.109  22.974  0.00  0.00    +0.000 HD
ENDBRANCH  14  15
ENDBRANCH   5  14
TORSDOF 3
ENDMDL
MODEL 3
REMARK VINA RESULT:      -6.1      1.684      2.061
REMARK  Name = 
REMARK  5 active torsions:
REMARK  status: ('A' for Active; 'I' for Inactive)
REMARK    1  A    between atoms: C_1  and  C_2
REMARK    2  A    between atoms: C_4  and  C_5
REMARK    3  A    between atoms: C_6  and  C_7
REMARK    4  A    between atoms: C_11  and  C_12
REMARK    5  A    between atoms: C_12  and  O_13
REMARK                            x       y       z     vdW  Elec       q    Type
REMARK                         _______ _______ _______ _____ _____    ______ ____
ROOT
ATOM      1  C   UNL     1       5.272   4.478  18.470  0.00  0.00    +0.000 C 
ATOM      2  O   UNL     1       5.828   3.885  19.394  0.00  0.00    +0.000 OA
ATOM      3  N   UNL     1       4.013   5.038  18.632  0.00  0.00    +0.000 N 
ATOM      4  C   UNL     1       3.228   5.049  19.853  0.00  0.00    +0.000 C 
ATOM      5  C   UNL     1       1.999   4.693  19.014  0.00  0.00    +0.000 C 
ATOM      6  C   UNL     1       2.864   4.842  17.751  0.00  0.00    +0.000 C 
ENDROOT
BRANCH   1  12
ATOM      7  C   UNL     1       5.898   3.724  13.751  0.00  0.00    +0.000 C 
ATOM      8  C   UNL     1       6.190   4.421  15.018  0.00  0.00    +0.000 A 
ATOM      9  C   UNL     1       6.945   5.520  15.354  0.00  0.00    +0.000 A 
ATOM     10  C   UNL     1       6.770   5.725  16.754  0.00  0.00    +0.000 A 
ATOM     11  C   UNL     1       7.356   6.816  17.571  0.00  0.00    +0.000 C 
ATOM     12  C   UNL     1       5.905   4.722  17.183  0.00  0.00    +0.000 A 
ATOM     13  O   UNL     1       5.577   3.923  16.120  0.00  0.00    +0.000 OA
ENDBRANCH   1  12
BRANCH   5  14
ATOM     14  C   UNL     1       1.453   3.309  19.307  0.00  0.00    +0.000 C 
BRANCH  14  15
ATOM     15  O   UNL     1       0.346   3.418  20.194  0.00  0.00    +0.000 OA
ATOM     16  H   UNL     1       0.605   3.004  21.036  0.00  0.00    +0.000 HD
ENDBRANCH  14  15
ENDBRANCH   5  14
TORSDOF 3
ENDMDL
MODEL 4
REMARK VINA RESULT:      -6.1      2.092      2.930
REMARK  Name = 
REMARK  5 active torsions:
REMARK  status: ('A' for Active; 'I' for Inactive)
REMARK    1  A    between atoms: C_1  and  C_2
REMARK    2  A    between atoms: C_4  and  C_5
REMARK    3  A    between atoms: C_6  and  C_7
REMARK    4  A    between atoms: C_11  and  C_12
REMARK    5  A    between atoms: C_12  and  O_13
REMARK                            x       y       z     vdW  Elec       q    Type
REMARK                         _______ _______ _______ _____ _____    ______ ____
ROOT
ATOM      1  C   UNL     1       4.981   4.291  18.898  0.00  0.00    +0.000 C 
ATOM      2  O   UNL     1       5.461   3.360  19.544  0.00  0.00    +0.000 OA
ATOM      3  N   UNL     1       3.671   4.704  19.099  0.00  0.00    +0.000 N 
ATOM      4  C   UNL     1       2.741   4.164  20.074  0.00  0.00    +0.000 C 
ATOM      5  C   UNL     1       1.658   4.195  18.992  0.00  0.00    +0.000 C 
ATOM      6  C   UNL     1       2.661   4.898  18.062  0.00  0.00    +0.000 C 
ENDROOT
BRANCH   1  12
ATOM      7  C   UNL     1       7.853   7.960  17.668  0.00  0.00    +0.000 C 
ATOM      8  C   UNL     1       7.089   6.735  17.367  0.00  0.00    +0.000 A 
ATOM      9  C   UNL     1       6.982   5.919  16.265  0.00  0.00    +0.000 A 
ATOM     10  C   UNL     1       6.117   4.847  16.631  0.00  0.00    +0.000 A 
ATOM     11  C   UNL     1       5.729   3.691  15.784  0.00  0.00    +0.000 C 
ATOM     12  C   UNL     1       5.750   5.085  17.952  0.00  0.00    +0.000 A 
ATOM     13  O   UNL     1       6.332   6.248  18.381  0.00  0.00    +0.000 OA
ENDBRANCH   1  12
BRANCH   5  14
ATOM     14  C   UNL     1       1.189   2.815  18.573  0.00  0.00    +0.000 C 
BRANCH  14  15
ATOM     15  O   UNL     1       0.012   2.478  19.297  0.00  0.00    +0.000 OA
ATOM     16  H   UNL     1       0.203   2.615  20.242  0.00  0.00    +0.000 HD
ENDBRANCH  14  15
ENDBRANCH   5  14
TORSDOF 3
ENDMDL
MODEL 5
REMARK VINA RESULT:      -6.1      1.080      2.252
REMARK  Name = 
REMARK  5 active torsions:
REMARK  status: ('A' for Active; 'I' for Inactive)
REMARK    1  A    between atoms: C_1  and  C_2
REMARK    2  A    between atoms: C_4  and  C_5
REMARK    3  A    between atoms: C_6  and  C_7
REMARK    4  A    between atoms: C_11  and  C_12
REMARK    5  A    between atoms: C_12  and  O_13
REMARK                            x       y       z     vdW  Elec       q    Type
REMARK                         _______ _______ _______ _____ _____    ______ ____
ROOT
ATOM      1  C   UNL     1       3.521   4.936  18.000  0.00  0.00    +0.000 C 
ATOM      2  O   UNL     1       2.748   5.867  17.775  0.00  0.00    +0.000 OA
ATOM      3  N   UNL     1       3.050   3.688  18.382  0.00  0.00    +0.000 N 
ATOM      4  C   UNL     1       1.657   3.302  18.520  0.00  0.00    +0.000 C 
ATOM      5  C   UNL     1       2.030   2.587  19.821  0.00  0.00    +0.000 C 
ATOM      6  C   UNL     1       3.505   2.910  19.531  0.00  0.00    +0.000 C 
ENDROOT
BRANCH   1  12
ATOM      7  C   UNL     1       8.040   5.745  19.469  0.00  0.00    +0.000 C 
ATOM      8  C   UNL     1       7.039   5.360  18.456  0.00  0.00    +0.000 A 
ATOM      9  C   UNL     1       7.115   4.855  17.179  0.00  0.00    +0.000 A 
ATOM     10  C   UNL     1       5.774   4.636  16.745  0.00  0.00    +0.000 A 
ATOM     11  C   UNL     1       5.345   4.063  15.445  0.00  0.00    +0.000 C 
ATOM     12  C   UNL     1       4.960   5.028  17.804  0.00  0.00    +0.000 A 
ATOM     13  O   UNL     1       5.742   5.486  18.831  0.00  0.00    +0.000 OA
ENDBRANCH   1  12
BRANCH   5  14
ATOM     14  C   UNL     1       1.421   3.226  21.053  0.00  0.00    +0.000 C 
BRANCH  14  15
ATOM     15  O   UNL     1       1.566   2.346  22.161  0.00  0.00    +0.000 OA
ATOM     16  H   UNL     1       2.514   2.307  22.380  0.00  0.00    +0.000 HD
ENDBRANCH  14  15
ENDBRANCH   5  14
TORSDOF 3
ENDMDL
MODEL 6
REMARK VINA RESULT:      -6.0      1.038      1.159
REMARK  Name = 
REMARK  5 active torsions:
REMARK  status: ('A' for Active; 'I' for Inactive)
REMARK    1  A    between atoms: C_1  and  C_2
REMARK    2  A    between atoms: C_4  and  C_5
REMARK    3  A    between atoms: C_6  and  C_7
REMARK    4  A    between atoms: C_11  and  C_12
REMARK    5  A    between atoms: C_12  and  O_13
REMARK                            x       y       z     vdW  Elec       q    Type
REMARK                         _______ _______ _______ _____ _____    ______ ____
ROOT
ATOM      1  C   UNL     1       4.054   5.229  17.360  0.00  0.00    +0.000 C 
ATOM      2  O   UNL     1       3.988   6.353  17.856  0.00  0.00    +0.000 OA
ATOM      3  N   UNL     1       2.992   4.340  17.450  0.00  0.00    +0.000 N 
ATOM      4  C   UNL     1       1.703   4.603  18.064  0.00  0.00    +0.000 C 
ATOM      5  C   UNL     1       1.775   3.215  18.705  0.00  0.00    +0.000 C 
ATOM      6  C   UNL     1       3.063   2.955  17.908  0.00  0.00    +0.000 C 
ENDROOT
BRANCH   1  12
ATOM      7  C   UNL     1       6.179   3.742  13.298  0.00  0.00    +0.000 C 
ATOM      8  C   UNL     1       6.194   4.118  14.724  0.00  0.00    +0.000 A 
ATOM      9  C   UNL     1       7.190   4.305  15.654  0.00  0.00    +0.000 A 
ATOM     10  C   UNL     1       6.551   4.726  16.858  0.00  0.00    +0.000 A 
ATOM     11  C   UNL     1       7.216   5.088  18.135  0.00  0.00    +0.000 C 
ATOM     12  C   UNL     1       5.189   4.769  16.575  0.00  0.00    +0.000 A 
ATOM     13  O   UNL     1       4.984   4.377  15.278  0.00  0.00    +0.000 OA
ENDBRANCH   1  12
BRANCH   5  14
ATOM     14  C   UNL     1       1.904   3.258  20.216  0.00  0.00    +0.000 C 
BRANCH  14  15
ATOM     15  O   UNL     1       0.685   2.821  20.805  0.00  0.00    +0.000 OA
ATOM     16  H   UNL     1       0.317   3.571  21.304  0.00  0.00    +0.000 HD
ENDBRANCH  14  15
ENDBRANCH   5  14
TORSDOF 3
ENDMDL
MODEL 7
REMARK VINA RESULT:      -6.0      2.052      5.719
REMARK  Name = 
REMARK  5 active torsions:
REMARK  status: ('A' for Active; 'I' for Inactive)
REMARK    1  A    between atoms: C_1  and  C_2
REMARK    2  A    between atoms: C_4  and  C_5
REMARK    3  A    between atoms: C_6  and  C_7
REMARK    4  A    between atoms: C_11  and  C_12
REMARK    5  A    between atoms: C_12  and  O_13
REMARK                            x       y       z     vdW  Elec       q    Type
REMARK                         _______ _______ _______ _____ _____    ______ ____
ROOT
ATOM      1  C   UNL     1       4.897   4.961  19.109  0.00  0.00    +0.000 C 
ATOM      2  O   UNL     1       5.778   5.646  19.626  0.00  0.00    +0.000 OA
ATOM      3  N   UNL     1       5.143   4.220  17.961  0.00  0.00    +0.000 N 
ATOM      4  C   UNL     1       6.413   4.111  17.266  0.00  0.00    +0.000 C 
ATOM      5  C   UNL     1       5.653   4.265  15.946  0.00  0.00    +0.000 C 
ATOM      6  C   UNL     1       4.338   4.228  16.742  0.00  0.00    +0.000 C 
ENDROOT
BRANCH   1  12
ATOM      7  C   UNL     1       1.553   2.584  21.639  0.00  0.00    +0.000 C 
ATOM      8  C   UNL     1       2.034   3.746  20.867  0.00  0.00    +0.000 A 
ATOM      9  C   UNL     1       1.525   4.995  20.600  0.00  0.00    +0.000 A 
ATOM     10  C   UNL     1       2.512   5.685  19.835  0.00  0.00    +0.000 A 
ATOM     11  C   UNL     1       2.435   7.082  19.342  0.00  0.00    +0.000 C 
ATOM     12  C   UNL     1       3.572   4.795  19.688  0.00  0.00    +0.000 A 
ATOM     13  O   UNL     1       3.260   3.612  20.303  0.00  0.00    +0.000 OA
ENDBRANCH   1  12
BRANCH   5  14
ATOM     14  C   UNL     1       5.973   5.556  15.217  0.00  0.00    +0.000 C 
BRANCH  14  15
ATOM     15  O   UNL     1       6.930   5.295  14.197  0.00  0.00    +0.000 OA
ATOM     16  H   UNL     1       6.508   5.496  13.343  0.00  0.00    +0.000 HD
ENDBRANCH  14  15
ENDBRANCH   5  14
TORSDOF 3
ENDMDL
MODEL 8
REMARK VINA RESULT:      -5.9      1.863      2.192
REMARK  Name = 
REMARK  5 active torsions:
REMARK  status: ('A' for Active; 'I' for Inactive)
REMARK    1  A    between atoms: C_1  and  C_2
REMARK    2  A    between atoms: C_4  and  C_5
REMARK    3  A    between atoms: C_6  and  C_7
REMARK    4  A    between atoms: C_11  and  C_12
REMARK    5  A    between atoms: C_12  and  O_13
REMARK                            x       y       z     vdW  Elec       q    Type
REMARK                         _______ _______ _______ _____ _____    ______ ____
ROOT
ATOM      1  C   UNL     1       4.544   4.249  18.508  0.00  0.00    +0.000 C 
ATOM      2  O   UNL     1       5.296   3.648  19.273  0.00  0.00    +0.000 OA
ATOM      3  N   UNL     1       3.232   4.530  18.864  0.00  0.00    +0.000 N 
ATOM      4  C   UNL     1       2.602   4.218  20.134  0.00  0.00    +0.000 C 
ATOM      5  C   UNL     1       1.367   3.757  19.358  0.00  0.00    +0.000 C 
ATOM      6  C   UNL     1       2.042   4.246  18.066  0.00  0.00    +0.000 C 
ENDROOT
BRANCH   1  12
ATOM      7  C   UNL     1       6.260   3.877  14.020  0.00  0.00    +0.000 C 
ATOM      8  C   UNL     1       5.726   4.645  15.160  0.00  0.00    +0.000 A 
ATOM      9  C   UNL     1       5.335   5.952  15.335  0.00  0.00    +0.000 A 
ATOM     10  C   UNL     1       4.846   6.057  16.670  0.00  0.00    +0.000 A 
ATOM     11  C   UNL     1       4.277   7.268  17.313  0.00  0.00    +0.000 C 
ATOM     12  C   UNL     1       4.973   4.788  17.226  0.00  0.00    +0.000 A 
ATOM     13  O   UNL     1       5.529   3.943  16.303  0.00  0.00    +0.000 OA
ENDBRANCH   1  12
BRANCH   5  14
ATOM     14  C   UNL     1       1.108   2.267  19.472  0.00  0.00    +0.000 C 
BRANCH  14  15
ATOM     15  O   UNL     1       0.252   1.856  18.413  0.00  0.00    +0.000 OA
ATOM     16  H   UNL     1       0.816   1.501  17.703  0.00  0.00    +0.000 HD
ENDBRANCH  14  15
ENDBRANCH   5  14
TORSDOF 3
ENDMDL
MODEL 9
REMARK VINA RESULT:      -5.8      2.216      5.794
REMARK  Name = 
REMARK  5 active torsions:
REMARK  status: ('A' for Active; 'I' for Inactive)
REMARK    1  A    between atoms: C_1  and  C_2
REMARK    2  A    between atoms: C_4  and  C_5
REMARK    3  A    between atoms: C_6  and  C_7
REMARK    4  A    between atoms: C_11  and  C_12
REMARK    5  A    between atoms: C_12  and  O_13
REMARK                            x       y       z     vdW  Elec       q    Type
REMARK                         _______ _______ _______ _____ _____    ______ ____
ROOT
ATOM      1  C   UNL     1       4.353   3.855  18.947  0.00  0.00    +0.000 C 
ATOM      2  O   UNL     1       5.198   3.146  19.493  0.00  0.00    +0.000 OA
ATOM      3  N   UNL     1       4.432   4.152  17.594  0.00  0.00    +0.000 N 
ATOM      4  C   UNL     1       5.435   3.665  16.665  0.00  0.00    +0.000 C 
ATOM      5  C   UNL     1       5.521   5.079  16.084  0.00  0.00    +0.000 C 
ATOM      6  C   UNL     1       4.354   5.484  16.999  0.00  0.00    +0.000 C 
ENDROOT
BRANCH   1  12
ATOM      7  C   UNL     1       1.606   7.343  20.822  0.00  0.00    +0.000 C 
ATOM      8  C   UNL     1       1.881   5.938  20.467  0.00  0.00    +0.000 A 
ATOM      9  C   UNL     1       1.140   4.779  20.501  0.00  0.00    +0.000 A 
ATOM     10  C   UNL     1       1.966   3.749  19.962  0.00  0.00    +0.000 A 
ATOM     11  C   UNL     1       1.591   2.328  19.757  0.00  0.00    +0.000 C 
ATOM     12  C   UNL     1       3.172   4.360  19.631  0.00  0.00    +0.000 A 
ATOM     13  O   UNL     1       3.114   5.687  19.962  0.00  0.00    +0.000 OA
ENDBRANCH   1  12
BRANCH   5  14
ATOM     14  C   UNL     1       6.855   5.752  16.340  0.00  0.00    +0.000 C 
BRANCH  14  15
ATOM     15  O   UNL     1       7.623   5.744  15.143  0.00  0.00    +0.000 OA
ATOM     16  H   UNL     1       7.768   4.814  14.895  0.00  0.00    +0.000 HD
ENDBRANCH  14  15
ENDBRANCH   5  14
TORSDOF 3
ENDMDL
