MODEL 1
REMARK VINA RESULT:      -8.3      0.000      0.000
REMARK  Name = 
REMARK  6 active torsions:
REMARK  status: ('A' for Active; 'I' for Inactive)
REMARK    1  A    between atoms: C_1  and  O_2
REMARK    2  A    between atoms: O_2  and  C_3
REMARK    3  A    between atoms: C_3  and  C_4
REMARK    4  A    between atoms: C_4  and  N_5
REMARK    5  A    between atoms: C_6  and  C_8
REMARK    6  A    between atoms: C_14  and  C_15
REMARK                            x       y       z     vdW  Elec       q    Type
REMARK                         _______ _______ _______ _____ _____    ______ ____
ROOT
ATOM      1  C   UNL     1       5.415   5.487  15.811  0.00  0.00    +0.000 A 
ATOM      2  C   UNL     1       4.887   6.795  15.842  0.00  0.00    +0.000 A 
ATOM      3  C   UNL     1       4.070   6.848  16.947  0.00  0.00    +0.000 A 
ATOM      4  N   UNL     1       3.303   7.856  17.447  0.00  0.00    +0.000 NA
ATOM      5  C   UNL     1       2.652   7.632  18.555  0.00  0.00    +0.000 A 
ATOM      6  C   UNL     1       2.714   6.333  19.313  0.00  0.00    +0.000 A 
ATOM      7  C   UNL     1       3.487   5.359  18.759  0.00  0.00    +0.000 A 
ATOM      8  N   UNL     1       4.162   5.599  17.563  0.00  0.00    +0.000 N 
ATOM      9  N   UNL     1       4.957   4.760  16.846  0.00  0.00    +0.000 NA
ATOM     10  C   UNL     1       1.969   6.155  20.602  0.00  0.00    +0.000 C 
ATOM     11  C   UNL     1       1.097   7.296  21.114  0.00  0.00    +0.000 C 
ATOM     12  C   UNL     1       1.078   8.557  20.313  0.00  0.00    +0.000 A 
ATOM     13  C   UNL     1       0.284   9.619  20.796  0.00  0.00    +0.000 A 
ATOM     14  C   UNL     1       0.200  10.826  20.106  0.00  0.00    +0.000 A 
ATOM     15  C   UNL     1       0.910  10.988  18.922  0.00  0.00    +0.000 A 
ATOM     16  C   UNL     1       1.701   9.945  18.435  0.00  0.00    +0.000 A 
ATOM     17  C   UNL     1       1.794   8.721  19.122  0.00  0.00    +0.000 A 
ENDROOT
BRANCH   1  19
ATOM     18  N   UNL     1       5.761   4.063  13.906  0.00  0.00    +0.000 N 
ATOM     19  C   UNL     1       6.336   4.935  14.800  0.00  0.00    +0.000 C 
ATOM     20  O   UNL     1       7.525   5.245  14.758  0.00  0.00    +0.000 OA
ATOM     21  H   UNL     1       4.801   3.784  14.086  0.00  0.00    +0.000 HD
BRANCH  18  22
ATOM     22  C   UNL     1       6.509   3.424  12.835  0.00  0.00    +0.000 C 
BRANCH  22  23
ATOM     23  C   UNL     1       5.618   2.826  11.743  0.00  0.00    +0.000 C 
BRANCH  23  25
ATOM     24  C   UNL     1       3.482   2.974  10.754  0.00  0.00    +0.000 C 
ATOM     25  O   UNL     1       4.417   3.596  11.627  0.00  0.00    +0.000 OA
ENDBRANCH  23  25
ENDBRANCH  22  23
ENDBRANCH  18  22
ENDBRANCH   1  19
BRANCH   7  26
ATOM     26  C   UNL     1       3.680   4.023  19.393  0.00  0.00    +0.000 C 
ATOM     27  F   UNL     1       3.036   3.797  20.561  0.00  0.00    +0.000 F 
ATOM     28  F   UNL     1       3.278   3.029  18.552  0.00  0.00    +0.000 F 
ATOM     29  F   UNL     1       4.999   3.788  19.641  0.00  0.00    +0.000 F 
ENDBRANCH   7  26
TORSDOF 5
ENDMDL
MODEL 2
REMARK VINA RESULT:      -8.2      0.690      1.052
REMARK  Name = 
REMARK  6 active torsions:
REMARK  status: ('A' for Active; 'I' for Inactive)
REMARK    1  A    between atoms: C_1  and  O_2
REMARK    2  A    between atoms: O_2  and  C_3
REMARK    3  A    between atoms: C_3  and  C_4
REMARK    4  A    between atoms: C_4  and  N_5
REMARK    5  A    between atoms: C_6  and  C_8
REMARK    6  A    between atoms: C_14  and  C_15
REMARK                            x       y       z     vdW  Elec       q    Type
REMARK                         _______ _______ _______ _____ _____    ______ ____
ROOT
ATOM      1  C   UNL     1       5.552   5.239  15.593  0.00  0.00    +0.000 A 
ATOM      2  C   UNL     1       5.033   6.535  15.806  0.00  0.00    +0.000 A 
ATOM      3  C   UNL     1       4.230   6.444  16.917  0.00  0.00    +0.000 A 
ATOM      4  N   UNL     1       3.476   7.381  17.557  0.00  0.00    +0.000 NA
ATOM      5  C   UNL     1       2.837   7.015  18.634  0.00  0.00    +0.000 A 
ATOM      6  C   UNL     1       2.898   5.626  19.210  0.00  0.00    +0.000 A 
ATOM      7  C   UNL     1       3.657   4.730  18.522  0.00  0.00    +0.000 A 
ATOM      8  N   UNL     1       4.320   5.124  17.360  0.00  0.00    +0.000 N 
ATOM      9  N   UNL     1       5.100   4.384  16.527  0.00  0.00    +0.000 NA
ATOM     10  C   UNL     1       2.166   5.282  20.473  0.00  0.00    +0.000 C 
ATOM     11  C   UNL     1       1.309   6.349  21.144  0.00  0.00    +0.000 C 
ATOM     12  C   UNL     1       1.290   7.707  20.518  0.00  0.00    +0.000 A 
ATOM     13  C   UNL     1       0.510   8.699  21.148  0.00  0.00    +0.000 A 
ATOM     14  C   UNL     1       0.427   9.988  20.627  0.00  0.00    +0.000 A 
ATOM     15  C   UNL     1       1.125  10.302  19.467  0.00  0.00    +0.000 A 
ATOM     16  C   UNL     1       1.902   9.329  18.835  0.00  0.00    +0.000 A 
ATOM     17  C   UNL     1       1.993   8.024  19.351  0.00  0.00    +0.000 A 
ENDROOT
BRANCH   1  19
ATOM     18  N   UNL     1       5.918   3.925  13.615  0.00  0.00    +0.000 N 
ATOM     19  C   UNL     1       6.457   4.822  14.506  0.00  0.00    +0.000 C 
ATOM     20  O   UNL     1       7.602   5.256  14.404  0.00  0.00    +0.000 OA
ATOM     21  H   UNL     1       5.005   3.540  13.842  0.00  0.00    +0.000 HD
BRANCH  18  22
ATOM     22  C   UNL     1       6.655   3.405  12.475  0.00  0.00    +0.000 C 
BRANCH  22  23
ATOM     23  C   UNL     1       5.776   2.658  11.468  0.00  0.00    +0.000 C 
BRANCH  23  25
ATOM     24  C   UNL     1       3.727   3.499  10.658  0.00  0.00    +0.000 C 
ATOM     25  O   UNL     1       4.396   2.903  11.762  0.00  0.00    +0.000 OA
ENDBRANCH  23  25
ENDBRANCH  22  23
ENDBRANCH  18  22
ENDBRANCH   1  19
BRANCH   7  26
ATOM     26  C   UNL     1       3.846   3.320  18.969  0.00  0.00    +0.000 C 
ATOM     27  F   UNL     1       4.027   2.388  18.005  0.00  0.00    +0.000 F 
ATOM     28  F   UNL     1       4.929   3.217  19.789  0.00  0.00    +0.000 F 
ATOM     29  F   UNL     1       2.782   2.896  19.705  0.00  0.00    +0.000 F 
ENDBRANCH   7  26
TORSDOF 5
ENDMDL
MODEL 3
REMARK VINA RESULT:      -8.2      0.965      1.312
REMARK  Name = 
REMARK  6 active torsions:
REMARK  status: ('A' for Active; 'I' for Inactive)
REMARK    1  A    between atoms: C_1  and  O_2
REMARK    2  A    between atoms: O_2  and  C_3
REMARK    3  A    between atoms: C_3  and  C_4
REMARK    4  A    between atoms: C_4  and  N_5
REMARK    5  A    between atoms: C_6  and  C_8
REMARK    6  A    between atoms: C_14  and  C_15
REMARK                            x       y       z     vdW  Elec       q    Type
REMARK                         _______ _______ _______ _____ _____    ______ ____
ROOT
ATOM      1  C   UNL     1       5.562   5.302  15.475  0.00  0.00    +0.000 A 
ATOM      2  C   UNL     1       5.039   6.605  15.618  0.00  0.00    +0.000 A 
ATOM      3  C   UNL     1       4.246   6.575  16.740  0.00  0.00    +0.000 A 
ATOM      4  N   UNL     1       3.492   7.543  17.332  0.00  0.00    +0.000 NA
ATOM      5  C   UNL     1       2.864   7.236  18.433  0.00  0.00    +0.000 A 
ATOM      6  C   UNL     1       2.936   5.882  19.086  0.00  0.00    +0.000 A 
ATOM      7  C   UNL     1       3.693   4.952  18.444  0.00  0.00    +0.000 A 
ATOM      8  N   UNL     1       4.345   5.282  17.256  0.00  0.00    +0.000 N 
ATOM      9  N   UNL     1       5.122   4.499  16.460  0.00  0.00    +0.000 NA
ATOM     10  C   UNL     1       2.216   5.607  20.373  0.00  0.00    +0.000 C 
ATOM     11  C   UNL     1       1.360   6.707  20.990  0.00  0.00    +0.000 C 
ATOM     12  C   UNL     1       1.329   8.026  20.288  0.00  0.00    +0.000 A 
ATOM     13  C   UNL     1       0.550   9.050  20.868  0.00  0.00    +0.000 A 
ATOM     14  C   UNL     1       0.456  10.307  20.275  0.00  0.00    +0.000 A 
ATOM     15  C   UNL     1       1.143  10.558  19.093  0.00  0.00    +0.000 A 
ATOM     16  C   UNL     1       1.920   9.554  18.511  0.00  0.00    +0.000 A 
ATOM     17  C   UNL     1       2.022   8.280  19.100  0.00  0.00    +0.000 A 
ENDROOT
BRANCH   1  19
ATOM     18  N   UNL     1       5.879   3.977  13.495  0.00  0.00    +0.000 N 
ATOM     19  C   UNL     1       6.460   4.828  14.406  0.00  0.00    +0.000 C 
ATOM     20  O   UNL     1       7.635   5.179  14.333  0.00  0.00    +0.000 OA
ATOM     21  H   UNL     1       4.936   3.657  13.698  0.00  0.00    +0.000 HD
BRANCH  18  22
ATOM     22  C   UNL     1       6.604   3.412  12.368  0.00  0.00    +0.000 C 
BRANCH  22  23
ATOM     23  C   UNL     1       5.807   2.357  11.597  0.00  0.00    +0.000 C 
BRANCH  23  25
ATOM     24  C   UNL     1       6.178   0.053  11.260  0.00  0.00    +0.000 C 
ATOM     25  O   UNL     1       6.700   1.364  11.081  0.00  0.00    +0.000 OA
ENDBRANCH  23  25
ENDBRANCH  22  23
ENDBRANCH  18  22
ENDBRANCH   1  19
BRANCH   7  26
ATOM     26  C   UNL     1       3.894   3.570  18.968  0.00  0.00    +0.000 C 
ATOM     27  F   UNL     1       5.166   3.189  19.228  0.00  0.00    +0.000 F 
ATOM     28  F   UNL     1       3.210   3.394  20.134  0.00  0.00    +0.000 F 
ATOM     29  F   UNL     1       3.395   2.644  18.102  0.00  0.00    +0.000 F 
ENDBRANCH   7  26
TORSDOF 5
ENDMDL
MODEL 4
REMARK VINA RESULT:      -8.1      3.734      8.040
REMARK  Name = 
REMARK  6 active torsions:
REMARK  status: ('A' for Active; 'I' for Inactive)
REMARK    1  A    between atoms: C_1  and  O_2
REMARK    2  A    between atoms: O_2  and  C_3
REMARK    3  A    between atoms: C_3  and  C_4
REMARK    4  A    between atoms: C_4  and  N_5
REMARK    5  A    between atoms: C_6  and  C_8
REMARK    6  A    between atoms: C_14  and  C_15
REMARK                            x       y       z     vdW  Elec       q    Type
REMARK                         _______ _______ _______ _____ _____    ______ ____
ROOT
ATOM      1  C   UNL     1       1.384   9.655  19.020  0.00  0.00    +0.000 A 
ATOM      2  C   UNL     1       2.211   9.461  17.892  0.00  0.00    +0.000 A 
ATOM      3  C   UNL     1       2.679   8.172  17.982  0.00  0.00    +0.000 A 
ATOM      4  N   UNL     1       3.520   7.466  17.175  0.00  0.00    +0.000 NA
ATOM      5  C   UNL     1       3.759   6.222  17.489  0.00  0.00    +0.000 A 
ATOM      6  C   UNL     1       3.151   5.528  18.678  0.00  0.00    +0.000 A 
ATOM      7  C   UNL     1       2.329   6.286  19.452  0.00  0.00    +0.000 A 
ATOM      8  N   UNL     1       2.095   7.620  19.123  0.00  0.00    +0.000 N 
ATOM      9  N   UNL     1       1.333   8.541  19.772  0.00  0.00    +0.000 NA
ATOM     10  C   UNL     1       3.441   4.083  18.959  0.00  0.00    +0.000 C 
ATOM     11  C   UNL     1       4.410   3.334  18.052  0.00  0.00    +0.000 C 
ATOM     12  C   UNL     1       4.981   4.084  16.891  0.00  0.00    +0.000 A 
ATOM     13  C   UNL     1       5.865   3.385  16.041  0.00  0.00    +0.000 A 
ATOM     14  C   UNL     1       6.451   4.010  14.943  0.00  0.00    +0.000 A 
ATOM     15  C   UNL     1       6.160   5.343  14.678  0.00  0.00    +0.000 A 
ATOM     16  C   UNL     1       5.285   6.044  15.511  0.00  0.00    +0.000 A 
ATOM     17  C   UNL     1       4.687   5.425  16.624  0.00  0.00    +0.000 A 
ENDROOT
BRANCH   1  19
ATOM     18  N   UNL     1       1.032  11.450  20.578  0.00  0.00    +0.000 N 
ATOM     19  C   UNL     1       0.662  10.889  19.378  0.00  0.00    +0.000 C 
ATOM     20  O   UNL     1      -0.197  11.381  18.650  0.00  0.00    +0.000 OA
ATOM     21  H   UNL     1       1.670  10.915  21.161  0.00  0.00    +0.000 HD
BRANCH  18  22
ATOM     22  C   UNL     1       0.437  12.672  21.095  0.00  0.00    +0.000 C 
BRANCH  22  23
ATOM     23  C   UNL     1      -0.832  12.431  21.917  0.00  0.00    +0.000 C 
BRANCH  23  25
ATOM     24  C   UNL     1      -1.090  10.458  23.183  0.00  0.00    +0.000 C 
ATOM     25  O   UNL     1      -0.496  11.750  23.130  0.00  0.00    +0.000 OA
ENDBRANCH  23  25
ENDBRANCH  22  23
ENDBRANCH  18  22
ENDBRANCH   1  19
BRANCH   7  26
ATOM     26  C   UNL     1       1.624   5.748  20.651  0.00  0.00    +0.000 C 
ATOM     27  F   UNL     1       0.920   6.629  21.399  0.00  0.00    +0.000 F 
ATOM     28  F   UNL     1       0.738   4.777  20.292  0.00  0.00    +0.000 F 
ATOM     29  F   UNL     1       2.502   5.151  21.505  0.00  0.00    +0.000 F 
ENDBRANCH   7  26
TORSDOF 5
ENDMDL
MODEL 5
REMARK VINA RESULT:      -8.0      3.929      8.254
REMARK  Name = 
REMARK  6 active torsions:
REMARK  status: ('A' for Active; 'I' for Inactive)
REMARK    1  A    between atoms: C_1  and  O_2
REMARK    2  A    between atoms: O_2  and  C_3
REMARK    3  A    between atoms: C_3  and  C_4
REMARK    4  A    between atoms: C_4  and  N_5
REMARK    5  A    between atoms: C_6  and  C_8
REMARK    6  A    between atoms: C_14  and  C_15
REMARK                            x       y       z     vdW  Elec       q    Type
REMARK                         _______ _______ _______ _____ _____    ______ ____
ROOT
ATOM      1  C   UNL     1       1.343   9.531  19.189  0.00  0.00    +0.000 A 
ATOM      2  C   UNL     1       2.158   9.389  18.045  0.00  0.00    +0.000 A 
ATOM      3  C   UNL     1       2.649   8.106  18.087  0.00  0.00    +0.000 A 
ATOM      4  N   UNL     1       3.491   7.441  17.247  0.00  0.00    +0.000 NA
ATOM      5  C   UNL     1       3.755   6.192  17.516  0.00  0.00    +0.000 A 
ATOM      6  C   UNL     1       3.174   5.449  18.689  0.00  0.00    +0.000 A 
ATOM      7  C   UNL     1       2.349   6.168  19.499  0.00  0.00    +0.000 A 
ATOM      8  N   UNL     1       2.089   7.507  19.216  0.00  0.00    +0.000 N 
ATOM      9  N   UNL     1       1.320   8.394  19.905  0.00  0.00    +0.000 NA
ATOM     10  C   UNL     1       3.492   4.001  18.919  0.00  0.00    +0.000 C 
ATOM     11  C   UNL     1       4.461   3.298  17.976  0.00  0.00    +0.000 C 
ATOM     12  C   UNL     1       5.004   4.095  16.833  0.00  0.00    +0.000 A 
ATOM     13  C   UNL     1       5.888   3.440  15.950  0.00  0.00    +0.000 A 
ATOM     14  C   UNL     1       6.450   4.110  14.866  0.00  0.00    +0.000 A 
ATOM     15  C   UNL     1       6.133   5.446  14.649  0.00  0.00    +0.000 A 
ATOM     16  C   UNL     1       5.258   6.105  15.515  0.00  0.00    +0.000 A 
ATOM     17  C   UNL     1       4.685   5.439  16.614  0.00  0.00    +0.000 A 
ENDROOT
BRANCH   1  19
ATOM     18  N   UNL     1      -0.269  10.563  20.643  0.00  0.00    +0.000 N 
ATOM     19  C   UNL     1       0.605  10.741  19.597  0.00  0.00    +0.000 C 
ATOM     20  O   UNL     1       0.772  11.827  19.046  0.00  0.00    +0.000 OA
ATOM     21  H   UNL     1      -0.420   9.610  20.961  0.00  0.00    +0.000 HD
BRANCH  18  22
ATOM     22  C   UNL     1      -1.078  11.641  21.188  0.00  0.00    +0.000 C 
BRANCH  22  23
ATOM     23  C   UNL     1      -0.935  11.805  22.703  0.00  0.00    +0.000 C 
BRANCH  23  25
ATOM     24  C   UNL     1      -3.119  12.383  23.381  0.00  0.00    +0.000 C 
ATOM     25  O   UNL     1      -2.133  11.359  23.349  0.00  0.00    +0.000 OA
ENDBRANCH  23  25
ENDBRANCH  22  23
ENDBRANCH  18  22
ENDBRANCH   1  19
BRANCH   7  26
ATOM     26  C   UNL     1       1.669   5.578  20.687  0.00  0.00    +0.000 C 
ATOM     27  F   UNL     1       2.448   4.928  21.583  0.00  0.00    +0.000 F 
ATOM     28  F   UNL     1       1.017   6.542  21.396  0.00  0.00    +0.000 F 
ATOM     29  F   UNL     1       0.712   4.686  20.307  0.00  0.00    +0.000 F 
ENDBRANCH   7  26
TORSDOF 5
ENDMDL
MODEL 6
REMARK VINA RESULT:      -7.9      3.774      7.660
REMARK  Name = 
REMARK  6 active torsions:
REMARK  status: ('A' for Active; 'I' for Inactive)
REMARK    1  A    between atoms: C_1  and  O_2
REMARK    2  A    between atoms: O_2  and  C_3
REMARK    3  A    between atoms: C_3  and  C_4
REMARK    4  A    between atoms: C_4  and  N_5
REMARK    5  A    between atoms: C_6  and  C_8
REMARK    6  A    between atoms: C_14  and  C_15
REMARK                            x       y       z     vdW  Elec       q    Type
REMARK                         _______ _______ _______ _____ _____    ______ ____
ROOT
ATOM      1  C   UNL     1       1.331   9.558  18.975  0.00  0.00    +0.000 A 
ATOM      2  C   UNL     1       2.148   9.375  17.839  0.00  0.00    +0.000 A 
ATOM      3  C   UNL     1       2.662   8.104  17.941  0.00  0.00    +0.000 A 
ATOM      4  N   UNL     1       3.515   7.415  17.133  0.00  0.00    +0.000 NA
ATOM      5  C   UNL     1       3.802   6.185  17.462  0.00  0.00    +0.000 A 
ATOM      6  C   UNL     1       3.235   5.489  18.670  0.00  0.00    +0.000 A 
ATOM      7  C   UNL     1       2.399   6.231  19.446  0.00  0.00    +0.000 A 
ATOM      8  N   UNL     1       2.113   7.551  19.099  0.00  0.00    +0.000 N 
ATOM      9  N   UNL     1       1.330   8.456  19.746  0.00  0.00    +0.000 NA
ATOM     10  C   UNL     1       3.579   4.061  18.970  0.00  0.00    +0.000 C 
ATOM     11  C   UNL     1       4.561   3.331  18.059  0.00  0.00    +0.000 C 
ATOM     12  C   UNL     1       5.088   4.081  16.879  0.00  0.00    +0.000 A 
ATOM     13  C   UNL     1       5.983   3.400  16.027  0.00  0.00    +0.000 A 
ATOM     14  C   UNL     1       6.532   4.027  14.911  0.00  0.00    +0.000 A 
ATOM     15  C   UNL     1       6.191   5.345  14.630  0.00  0.00    +0.000 A 
ATOM     16  C   UNL     1       5.304   6.028  15.465  0.00  0.00    +0.000 A 
ATOM     17  C   UNL     1       4.744   5.407  16.596  0.00  0.00    +0.000 A 
ENDROOT
BRANCH   1  19
ATOM     18  N   UNL     1      -0.356  11.167  18.390  0.00  0.00    +0.000 N 
ATOM     19  C   UNL     1       0.572  10.772  19.325  0.00  0.00    +0.000 C 
ATOM     20  O   UNL     1       0.752  11.376  20.381  0.00  0.00    +0.000 OA
ATOM     21  H   UNL     1      -0.356  10.671  17.503  0.00  0.00    +0.000 HD
BRANCH  18  22
ATOM     22  C   UNL     1      -1.202  12.336  18.563  0.00  0.00    +0.000 C 
BRANCH  22  23
ATOM     23  C   UNL     1      -2.666  11.992  18.849  0.00  0.00    +0.000 C 
BRANCH  23  25
ATOM     24  C   UNL     1      -4.704  11.717  17.694  0.00  0.00    +0.000 C 
ATOM     25  O   UNL     1      -3.295  11.531  17.648  0.00  0.00    +0.000 OA
ENDBRANCH  23  25
ENDBRANCH  22  23
ENDBRANCH  18  22
ENDBRANCH   1  19
BRANCH   7  26
ATOM     26  C   UNL     1       1.730   5.688  20.663  0.00  0.00    +0.000 C 
ATOM     27  F   UNL     1       1.153   6.582  21.499  0.00  0.00    +0.000 F 
ATOM     28  F   UNL     1       0.744   4.813  20.319  0.00  0.00    +0.000 F 
ATOM     29  F   UNL     1       2.608   4.976  21.424  0.00  0.00    +0.000 F 
ENDBRANCH   7  26
TORSDOF 5
ENDMDL
MODEL 7
REMARK VINA RESULT:      -7.9      3.812      8.184
REMARK  Name = 
REMARK  6 active torsions:
REMARK  status: ('A' for Active; 'I' for Inactive)
REMARK    1  A    between atoms: C_1  and  O_2
REMARK    2  A    between atoms: O_2  and  C_3
REMARK    3  A    between atoms: C_3  and  C_4
REMARK    4  A    between atoms: C_4  and  N_5
REMARK    5  A    between atoms: C_6  and  C_8
REMARK    6  A    between atoms: C_14  and  C_15
REMARK                            x       y       z     vdW  Elec       q    Type
REMARK                         _______ _______ _______ _____ _____    ______ ____
ROOT
ATOM      1  C   UNL     1       1.388   9.563  19.178  0.00  0.00    +0.000 A 
ATOM      2  C   UNL     1       2.208   9.412  18.039  0.00  0.00    +0.000 A 
ATOM      3  C   UNL     1       2.680   8.122  18.080  0.00  0.00    +0.000 A 
ATOM      4  N   UNL     1       3.518   7.447  17.245  0.00  0.00    +0.000 NA
ATOM      5  C   UNL     1       3.763   6.194  17.513  0.00  0.00    +0.000 A 
ATOM      6  C   UNL     1       3.165   5.456  18.681  0.00  0.00    +0.000 A 
ATOM      7  C   UNL     1       2.346   6.185  19.487  0.00  0.00    +0.000 A 
ATOM      8  N   UNL     1       2.106   7.529  19.206  0.00  0.00    +0.000 N 
ATOM      9  N   UNL     1       1.346   8.425  19.892  0.00  0.00    +0.000 NA
ATOM     10  C   UNL     1       3.462   4.004  18.910  0.00  0.00    +0.000 C 
ATOM     11  C   UNL     1       4.427   3.290  17.970  0.00  0.00    +0.000 C 
ATOM     12  C   UNL     1       4.987   4.082  16.833  0.00  0.00    +0.000 A 
ATOM     13  C   UNL     1       5.867   3.416  15.953  0.00  0.00    +0.000 A 
ATOM     14  C   UNL     1       6.444   4.080  14.873  0.00  0.00    +0.000 A 
ATOM     15  C   UNL     1       6.147   5.421  14.658  0.00  0.00    +0.000 A 
ATOM     16  C   UNL     1       5.276   6.090  15.520  0.00  0.00    +0.000 A 
ATOM     17  C   UNL     1       4.688   5.430  16.614  0.00  0.00    +0.000 A 
ENDROOT
BRANCH   1  19
ATOM     18  N   UNL     1      -0.252  10.604  20.593  0.00  0.00    +0.000 N 
ATOM     19  C   UNL     1       0.665  10.783  19.584  0.00  0.00    +0.000 C 
ATOM     20  O   UNL     1       0.879  11.875  19.064  0.00  0.00    +0.000 OA
ATOM     21  H   UNL     1      -0.439   9.648  20.884  0.00  0.00    +0.000 HD
BRANCH  18  22
ATOM     22  C   UNL     1      -1.056  11.690  21.131  0.00  0.00    +0.000 C 
BRANCH  22  23
ATOM     23  C   UNL     1      -1.106  11.713  22.660  0.00  0.00    +0.000 C 
BRANCH  23  25
ATOM     24  C   UNL     1      -0.267  13.859  22.158  0.00  0.00    +0.000 C 
ATOM     25  O   UNL     1      -0.378  12.844  23.148  0.00  0.00    +0.000 OA
ENDBRANCH  23  25
ENDBRANCH  22  23
ENDBRANCH  18  22
ENDBRANCH   1  19
BRANCH   7  26
ATOM     26  C   UNL     1       1.651   5.603  20.671  0.00  0.00    +0.000 C 
ATOM     27  F   UNL     1       0.700   4.670  20.429  0.00  0.00    +0.000 F 
ATOM     28  F   UNL     1       2.545   5.009  21.510  0.00  0.00    +0.000 F 
ATOM     29  F   UNL     1       1.042   6.576  21.405  0.00  0.00    +0.000 F 
ENDBRANCH   7  26
TORSDOF 5
ENDMDL
MODEL 8
REMARK VINA RESULT:      -7.9      3.859      7.978
REMARK  Name = 
REMARK  6 active torsions:
REMARK  status: ('A' for Active; 'I' for Inactive)
REMARK    1  A    between atoms: C_1  and  O_2
REMARK    2  A    between atoms: O_2  and  C_3
REMARK    3  A    between atoms: C_3  and  C_4
REMARK    4  A    between atoms: C_4  and  N_5
REMARK    5  A    between atoms: C_6  and  C_8
REMARK    6  A    between atoms: C_14  and  C_15
REMARK                            x       y       z     vdW  Elec       q    Type
REMARK                         _______ _______ _______ _____ _____    ______ ____
ROOT
ATOM      1  C   UNL     1       1.361   9.624  19.034  0.00  0.00    +0.000 A 
ATOM      2  C   UNL     1       2.172   9.435  17.894  0.00  0.00    +0.000 A 
ATOM      3  C   UNL     1       2.665   8.155  17.988  0.00  0.00    +0.000 A 
ATOM      4  N   UNL     1       3.505   7.456  17.174  0.00  0.00    +0.000 NA
ATOM      5  C   UNL     1       3.773   6.220  17.495  0.00  0.00    +0.000 A 
ATOM      6  C   UNL     1       3.198   5.526  18.700  0.00  0.00    +0.000 A 
ATOM      7  C   UNL     1       2.376   6.278  19.482  0.00  0.00    +0.000 A 
ATOM      8  N   UNL     1       2.111   7.604  19.144  0.00  0.00    +0.000 N 
ATOM      9  N   UNL     1       1.344   8.517  19.798  0.00  0.00    +0.000 NA
ATOM     10  C   UNL     1       3.520   4.091  18.990  0.00  0.00    +0.000 C 
ATOM     11  C   UNL     1       4.487   3.350  18.073  0.00  0.00    +0.000 C 
ATOM     12  C   UNL     1       5.023   4.099  16.895  0.00  0.00    +0.000 A 
ATOM     13  C   UNL     1       5.905   3.409  16.037  0.00  0.00    +0.000 A 
ATOM     14  C   UNL     1       6.460   4.033  14.923  0.00  0.00    +0.000 A 
ATOM     15  C   UNL     1       6.140   5.358  14.651  0.00  0.00    +0.000 A 
ATOM     16  C   UNL     1       5.267   6.051  15.492  0.00  0.00    +0.000 A 
ATOM     17  C   UNL     1       4.700   5.432  16.621  0.00  0.00    +0.000 A 
ENDROOT
BRANCH   1  19
ATOM     18  N   UNL     1      -0.223  11.323  18.420  0.00  0.00    +0.000 N 
ATOM     19  C   UNL     1       0.623  10.848  19.394  0.00  0.00    +0.000 C 
ATOM     20  O   UNL     1       0.751  11.393  20.488  0.00  0.00    +0.000 OA
ATOM     21  H   UNL     1      -0.180  10.871  17.511  0.00  0.00    +0.000 HD
BRANCH  18  22
ATOM     22  C   UNL     1      -1.038  12.514  18.594  0.00  0.00    +0.000 C 
BRANCH  22  23
ATOM     23  C   UNL     1      -2.282  12.282  19.455  0.00  0.00    +0.000 C 
BRANCH  23  25
ATOM     24  C   UNL     1      -2.559  12.527  21.784  0.00  0.00    +0.000 C 
ATOM     25  O   UNL     1      -2.280  13.193  20.559  0.00  0.00    +0.000 OA
ENDBRANCH  23  25
ENDBRANCH  22  23
ENDBRANCH  18  22
ENDBRANCH   1  19
BRANCH   7  26
ATOM     26  C   UNL     1       1.702   5.738  20.698  0.00  0.00    +0.000 C 
ATOM     27  F   UNL     1       2.477   5.077  21.589  0.00  0.00    +0.000 F 
ATOM     28  F   UNL     1       1.103   6.739  21.400  0.00  0.00    +0.000 F 
ATOM     29  F   UNL     1       0.704   4.874  20.358  0.00  0.00    +0.000 F 
ENDBRANCH   7  26
TORSDOF 5
ENDMDL
MODEL 9
REMARK VINA RESULT:      -7.8      3.900      8.159
REMARK  Name = 
REMARK  6 active torsions:
REMARK  status: ('A' for Active; 'I' for Inactive)
REMARK    1  A    between atoms: C_1  and  O_2
REMARK    2  A    between atoms: O_2  and  C_3
REMARK    3  A    between atoms: C_3  and  C_4
REMARK    4  A    between atoms: C_4  and  N_5
REMARK    5  A    between atoms: C_6  and  C_8
REMARK    6  A    between atoms: C_14  and  C_15
REMARK                            x       y       z     vdW  Elec       q    Type
REMARK                         _______ _______ _______ _____ _____    ______ ____
ROOT
ATOM      1  C   UNL     1       1.274   8.158  20.461  0.00  0.00    +0.000 A 
ATOM      2  C   UNL     1       2.045   8.409  19.305  0.00  0.00    +0.000 A 
ATOM      3  C   UNL     1       2.594   7.201  18.946  0.00  0.00    +0.000 A 
ATOM      4  N   UNL     1       3.428   6.864  17.922  0.00  0.00    +0.000 NA
ATOM      5  C   UNL     1       3.758   5.608  17.797  0.00  0.00    +0.000 A 
ATOM      6  C   UNL     1       3.262   4.518  18.708  0.00  0.00    +0.000 A 
ATOM      7  C   UNL     1       2.443   4.916  19.718  0.00  0.00    +0.000 A 
ATOM      8  N   UNL     1       2.110   6.262  19.859  0.00  0.00    +0.000 N 
ATOM      9  N   UNL     1       1.334   6.859  20.803  0.00  0.00    +0.000 NA
ATOM     10  C   UNL     1       3.654   3.088  18.484  0.00  0.00    +0.000 C 
ATOM     11  C   UNL     1       4.612   2.754  17.346  0.00  0.00    +0.000 C 
ATOM     12  C   UNL     1       5.069   3.884  16.481  0.00  0.00    +0.000 A 
ATOM     13  C   UNL     1       5.943   3.573  15.418  0.00  0.00    +0.000 A 
ATOM     14  C   UNL     1       6.427   4.566  14.569  0.00  0.00    +0.000 A 
ATOM     15  C   UNL     1       6.042   5.886  14.773  0.00  0.00    +0.000 A 
ATOM     16  C   UNL     1       5.176   6.206  15.821  0.00  0.00    +0.000 A 
ATOM     17  C   UNL     1       4.681   5.212  16.685  0.00  0.00    +0.000 A 
ENDROOT
BRANCH   1  19
ATOM     18  N   UNL     1      -0.110  10.122  20.480  0.00  0.00    +0.000 N 
ATOM     19  C   UNL     1       0.502   9.148  21.234  0.00  0.00    +0.000 C 
ATOM     20  O   UNL     1       0.406   9.094  22.458  0.00  0.00    +0.000 OA
ATOM     21  H   UNL     1       0.116  10.150  19.490  0.00  0.00    +0.000 HD
BRANCH  18  22
ATOM     22  C   UNL     1      -0.919  11.180  21.065  0.00  0.00    +0.000 C 
BRANCH  22  23
ATOM     23  C   UNL     1      -0.092  12.310  21.683  0.00  0.00    +0.000 C 
BRANCH  23  25
ATOM     24  C   UNL     1      -1.855  12.044  23.227  0.00  0.00    +0.000 C 
ATOM     25  O   UNL     1      -0.549  12.566  23.015  0.00  0.00    +0.000 OA
ENDBRANCH  23  25
ENDBRANCH  22  23
ENDBRANCH  18  22
ENDBRANCH   1  19
BRANCH   7  26
ATOM     26  C   UNL     1       1.841   3.962  20.694  0.00  0.00    +0.000 C 
ATOM     27  F   UNL     1       2.082   2.645  20.495  0.00  0.00    +0.000 F 
ATOM     28  F   UNL     1       2.273   4.230  21.958  0.00  0.00    +0.000 F 
ATOM     29  F   UNL     1       0.485   4.092  20.729  0.00  0.00    +0.000 F 
ENDBRANCH   7  26
TORSDOF 5
ENDMDL
