MODEL 1
REMARK VINA RESULT:      -7.2      0.000      0.000
REMARK  Name = 
REMARK  2 active torsions:
REMARK  status: ('A' for Active; 'I' for Inactive)
REMARK    1  A    between atoms: O_1  and  C_2
REMARK    2  A    between atoms: C_11  and  C_12
REMARK                            x       y       z     vdW  Elec       q    Type
REMARK                         _______ _______ _______ _____ _____    ______ ____
ROOT
ATOM      1  C   UNL     1       4.807   6.103  18.190  0.00  0.00    +0.000 C 
ATOM      2  C   UNL     1       5.574   4.871  17.726  0.00  0.00    +0.000 C 
ATOM      3  C   UNL     1       5.028   3.541  18.242  0.00  0.00    +0.000 C 
ATOM      4  N   UNL     1       3.578   3.427  18.393  0.00  0.00    +0.000 NA
ATOM      5  C   UNL     1       3.252   2.261  19.236  0.00  0.00    +0.000 C 
ATOM      6  C   UNL     1       1.759   1.947  19.185  0.00  0.00    +0.000 C 
ATOM      7  C   UNL     1       0.929   3.161  19.573  0.00  0.00    +0.000 C 
ATOM      8  C   UNL     1       1.357   4.379  18.761  0.00  0.00    +0.000 C 
ATOM      9  C   UNL     1       2.877   4.638  18.873  0.00  0.00    +0.000 C 
ATOM     10  C   UNL     1       3.288   5.899  18.058  0.00  0.00    +0.000 C 
ENDROOT
BRANCH  10  11
ATOM     11  C   UNL     1       2.514   7.145  18.471  0.00  0.00    +0.000 A 
ATOM     12  C   UNL     1       2.098   8.119  17.547  0.00  0.00    +0.000 A 
ATOM     13  C   UNL     1       1.418   9.266  17.963  0.00  0.00    +0.000 A 
ATOM     14  C   UNL     1       1.137   9.460  19.320  0.00  0.00    +0.000 A 
ATOM     15 CL   UNL     1       0.302  10.908  19.767  0.00  0.00    +0.000 Cl
ATOM     16  C   UNL     1       1.532   8.505  20.257  0.00  0.00    +0.000 A 
ATOM     17 CL   UNL     1       1.227   8.677  21.949  0.00  0.00    +0.000 Cl
ATOM     18  C   UNL     1       2.214   7.354  19.833  0.00  0.00    +0.000 A 
ENDBRANCH  10  11
BRANCH   1  19
ATOM     19  O   UNL     1       5.220   7.209  17.377  0.00  0.00    +0.000 OA
ATOM     20  H   UNL     1       5.976   7.637  17.813  0.00  0.00    +0.000 HD
ENDBRANCH   1  19
TORSDOF 2
ENDMDL
MODEL 2
REMARK VINA RESULT:      -7.1      1.670      3.239
REMARK  Name = 
REMARK  2 active torsions:
REMARK  status: ('A' for Active; 'I' for Inactive)
REMARK    1  A    between atoms: O_1  and  C_2
REMARK    2  A    between atoms: C_11  and  C_12
REMARK                            x       y       z     vdW  Elec       q    Type
REMARK                         _______ _______ _______ _____ _____    ______ ____
ROOT
ATOM      1  C   UNL     1       2.108   4.313  18.046  0.00  0.00    +0.000 C 
ATOM      2  C   UNL     1       2.746   2.941  17.862  0.00  0.00    +0.000 C 
ATOM      3  C   UNL     1       4.077   2.948  17.113  0.00  0.00    +0.000 C 
ATOM      4  N   UNL     1       4.962   4.091  17.331  0.00  0.00    +0.000 NA
ATOM      5  C   UNL     1       5.996   4.133  16.278  0.00  0.00    +0.000 C 
ATOM      6  C   UNL     1       7.094   5.133  16.627  0.00  0.00    +0.000 C 
ATOM      7  C   UNL     1       6.515   6.516  16.891  0.00  0.00    +0.000 C 
ATOM      8  C   UNL     1       5.379   6.431  17.905  0.00  0.00    +0.000 C 
ATOM      9  C   UNL     1       4.302   5.407  17.476  0.00  0.00    +0.000 C 
ATOM     10  C   UNL     1       3.141   5.354  18.511  0.00  0.00    +0.000 C 
ENDROOT
BRANCH  10  11
ATOM     11  C   UNL     1       2.501   6.716  18.748  0.00  0.00    +0.000 A 
ATOM     12  C   UNL     1       2.261   7.632  17.710  0.00  0.00    +0.000 A 
ATOM     13  C   UNL     1       1.701   8.886  17.966  0.00  0.00    +0.000 A 
ATOM     14  C   UNL     1       1.367   9.248  19.275  0.00  0.00    +0.000 A 
ATOM     15 CL   UNL     1       0.688  10.821  19.522  0.00  0.00    +0.000 Cl
ATOM     16  C   UNL     1       1.587   8.356  20.324  0.00  0.00    +0.000 A 
ATOM     17 CL   UNL     1       1.207   8.734  21.966  0.00  0.00    +0.000 Cl
ATOM     18  C   UNL     1       2.149   7.097  20.060  0.00  0.00    +0.000 A 
ENDBRANCH  10  11
BRANCH   1  19
ATOM     19  O   UNL     1       1.072   4.186  19.029  0.00  0.00    +0.000 OA
ATOM     20  H   UNL     1       1.118   4.959  19.616  0.00  0.00    +0.000 HD
ENDBRANCH   1  19
TORSDOF 2
ENDMDL
MODEL 3
REMARK VINA RESULT:      -6.9      4.156      6.045
REMARK  Name = 
REMARK  2 active torsions:
REMARK  status: ('A' for Active; 'I' for Inactive)
REMARK    1  A    between atoms: O_1  and  C_2
REMARK    2  A    between atoms: C_11  and  C_12
REMARK                            x       y       z     vdW  Elec       q    Type
REMARK                         _______ _______ _______ _____ _____    ______ ____
ROOT
ATOM      1  C   UNL     1       4.251   3.805  19.098  0.00  0.00    +0.000 C 
ATOM      2  C   UNL     1       3.152   3.677  20.146  0.00  0.00    +0.000 C 
ATOM      3  C   UNL     1       2.505   4.996  20.563  0.00  0.00    +0.000 C 
ATOM      4  N   UNL     1       2.351   6.021  19.533  0.00  0.00    +0.000 NA
ATOM      5  C   UNL     1       2.074   7.327  20.163  0.00  0.00    +0.000 C 
ATOM      6  C   UNL     1       1.633   8.355  19.124  0.00  0.00    +0.000 C 
ATOM      7  C   UNL     1       2.659   8.483  18.008  0.00  0.00    +0.000 C 
ATOM      8  C   UNL     1       3.007   7.110  17.444  0.00  0.00    +0.000 C 
ATOM      9  C   UNL     1       3.455   6.131  18.554  0.00  0.00    +0.000 C 
ATOM     10  C   UNL     1       3.828   4.744  17.954  0.00  0.00    +0.000 C 
ENDROOT
BRANCH  10  11
ATOM     11  C   UNL     1       4.901   4.837  16.876  0.00  0.00    +0.000 A 
ATOM     12  C   UNL     1       6.138   5.468  17.091  0.00  0.00    +0.000 A 
ATOM     13  C   UNL     1       7.087   5.564  16.071  0.00  0.00    +0.000 A 
ATOM     14  C   UNL     1       6.815   5.025  14.809  0.00  0.00    +0.000 A 
ATOM     15 CL   UNL     1       8.030   5.190  13.588  0.00  0.00    +0.000 Cl
ATOM     16  C   UNL     1       5.598   4.387  14.571  0.00  0.00    +0.000 A 
ATOM     17 CL   UNL     1       5.187   3.704  13.038  0.00  0.00    +0.000 Cl
ATOM     18  C   UNL     1       4.648   4.293  15.600  0.00  0.00    +0.000 A 
ENDBRANCH  10  11
BRANCH   1  19
ATOM     19  O   UNL     1       4.517   2.496  18.578  0.00  0.00    +0.000 OA
ATOM     20  H   UNL     1       5.237   2.105  19.100  0.00  0.00    +0.000 HD
ENDBRANCH   1  19
TORSDOF 2
ENDMDL
MODEL 4
REMARK VINA RESULT:      -6.7      0.913      1.700
REMARK  Name = 
REMARK  2 active torsions:
REMARK  status: ('A' for Active; 'I' for Inactive)
REMARK    1  A    between atoms: O_1  and  C_2
REMARK    2  A    between atoms: C_11  and  C_12
REMARK                            x       y       z     vdW  Elec       q    Type
REMARK                         _______ _______ _______ _____ _____    ______ ____
ROOT
ATOM      1  C   UNL     1       4.659   6.157  17.730  0.00  0.00    +0.000 C 
ATOM      2  C   UNL     1       5.306   5.129  16.809  0.00  0.00    +0.000 C 
ATOM      3  C   UNL     1       4.879   3.684  17.059  0.00  0.00    +0.000 C 
ATOM      4  N   UNL     1       3.496   3.457  17.472  0.00  0.00    +0.000 NA
ATOM      5  C   UNL     1       3.355   2.097  18.028  0.00  0.00    +0.000 C 
ATOM      6  C   UNL     1       1.886   1.726  18.207  0.00  0.00    +0.000 C 
ATOM      7  C   UNL     1       1.160   2.753  19.064  0.00  0.00    +0.000 C 
ATOM      8  C   UNL     1       1.407   4.160  18.530  0.00  0.00    +0.000 C 
ATOM      9  C   UNL     1       2.916   4.464  18.388  0.00  0.00    +0.000 C 
ATOM     10  C   UNL     1       3.145   5.912  17.867  0.00  0.00    +0.000 C 
ENDROOT
BRANCH  10  11
ATOM     11  C   UNL     1       2.481   6.966  18.744  0.00  0.00    +0.000 A 
ATOM     12  C   UNL     1       2.252   6.774  20.116  0.00  0.00    +0.000 A 
ATOM     13  C   UNL     1       1.611   7.749  20.886  0.00  0.00    +0.000 A 
ATOM     14  C   UNL     1       1.187   8.943  20.291  0.00  0.00    +0.000 A 
ATOM     15 CL   UNL     1       0.390  10.101  21.299  0.00  0.00    +0.000 Cl
ATOM     16  C   UNL     1       1.409   9.161  18.932  0.00  0.00    +0.000 A 
ATOM     17 CL   UNL     1       0.909  10.606  18.126  0.00  0.00    +0.000 Cl
ATOM     18  C   UNL     1       2.054   8.179  18.164  0.00  0.00    +0.000 A 
ENDBRANCH  10  11
BRANCH   1  19
ATOM     19  O   UNL     1       4.890   7.455  17.168  0.00  0.00    +0.000 OA
ATOM     20  H   UNL     1       4.386   8.102  17.689  0.00  0.00    +0.000 HD
ENDBRANCH   1  19
TORSDOF 2
ENDMDL
MODEL 5
REMARK VINA RESULT:      -6.7      1.936      3.589
REMARK  Name = 
REMARK  2 active torsions:
REMARK  status: ('A' for Active; 'I' for Inactive)
REMARK    1  A    between atoms: O_1  and  C_2
REMARK    2  A    between atoms: C_11  and  C_12
REMARK                            x       y       z     vdW  Elec       q    Type
REMARK                         _______ _______ _______ _____ _____    ______ ____
ROOT
ATOM      1  C   UNL     1       2.271   4.270  17.646  0.00  0.00    +0.000 C 
ATOM      2  C   UNL     1       2.882   2.971  17.134  0.00  0.00    +0.000 C 
ATOM      3  C   UNL     1       4.355   3.065  16.742  0.00  0.00    +0.000 C 
ATOM      4  N   UNL     1       5.203   3.954  17.534  0.00  0.00    +0.000 NA
ATOM      5  C   UNL     1       6.464   4.218  16.813  0.00  0.00    +0.000 C 
ATOM      6  C   UNL     1       7.481   4.905  17.720  0.00  0.00    +0.000 C 
ATOM      7  C   UNL     1       6.908   6.180  18.322  0.00  0.00    +0.000 C 
ATOM      8  C   UNL     1       5.556   5.902  18.969  0.00  0.00    +0.000 C 
ATOM      9  C   UNL     1       4.579   5.217  17.986  0.00  0.00    +0.000 C 
ATOM     10  C   UNL     1       3.199   4.964  18.659  0.00  0.00    +0.000 C 
ENDROOT
BRANCH  10  11
ATOM     11  C   UNL     1       2.573   6.238  19.216  0.00  0.00    +0.000 A 
ATOM     12  C   UNL     1       2.032   6.312  20.510  0.00  0.00    +0.000 A 
ATOM     13  C   UNL     1       1.437   7.486  20.979  0.00  0.00    +0.000 A 
ATOM     14  C   UNL     1       1.374   8.616  20.154  0.00  0.00    +0.000 A 
ATOM     15 CL   UNL     1       0.612  10.032  20.793  0.00  0.00    +0.000 Cl
ATOM     16  C   UNL     1       1.909   8.571  18.868  0.00  0.00    +0.000 A 
ATOM     17 CL   UNL     1       1.863   9.921  17.791  0.00  0.00    +0.000 Cl
ATOM     18  C   UNL     1       2.507   7.389  18.403  0.00  0.00    +0.000 A 
ENDBRANCH  10  11
BRANCH   1  19
ATOM     19  O   UNL     1       1.022   3.950  18.272  0.00  0.00    +0.000 OA
ATOM     20  H   UNL     1       0.321   4.037  17.606  0.00  0.00    +0.000 HD
ENDBRANCH   1  19
TORSDOF 2
ENDMDL
MODEL 6
REMARK VINA RESULT:      -6.6      3.590      5.750
REMARK  Name = 
REMARK  2 active torsions:
REMARK  status: ('A' for Active; 'I' for Inactive)
REMARK    1  A    between atoms: O_1  and  C_2
REMARK    2  A    between atoms: C_11  and  C_12
REMARK                            x       y       z     vdW  Elec       q    Type
REMARK                         _______ _______ _______ _____ _____    ______ ____
ROOT
ATOM      1  C   UNL     1       3.225   4.822  19.915  0.00  0.00    +0.000 C 
ATOM      2  C   UNL     1       2.059   4.942  20.889  0.00  0.00    +0.000 C 
ATOM      3  C   UNL     1       1.507   6.355  21.060  0.00  0.00    +0.000 C 
ATOM      4  N   UNL     1       1.504   7.219  19.880  0.00  0.00    +0.000 NA
ATOM      5  C   UNL     1       1.306   8.624  20.288  0.00  0.00    +0.000 C 
ATOM      6  C   UNL     1       1.018   9.511  19.080  0.00  0.00    +0.000 C 
ATOM      7  C   UNL     1       2.114   9.386  18.032  0.00  0.00    +0.000 C 
ATOM      8  C   UNL     1       2.372   7.919  17.705  0.00  0.00    +0.000 C 
ATOM      9  C   UNL     1       2.668   7.090  18.976  0.00  0.00    +0.000 C 
ATOM     10  C   UNL     1       2.952   5.603  18.617  0.00  0.00    +0.000 C 
ENDROOT
BRANCH  10  11
ATOM     11  C   UNL     1       4.090   5.446  17.615  0.00  0.00    +0.000 A 
ATOM     12  C   UNL     1       4.059   4.501  16.577  0.00  0.00    +0.000 A 
ATOM     13  C   UNL     1       5.133   4.361  15.694  0.00  0.00    +0.000 A 
ATOM     14  C   UNL     1       6.264   5.172  15.835  0.00  0.00    +0.000 A 
ATOM     15 CL   UNL     1       7.562   4.938  14.715  0.00  0.00    +0.000 Cl
ATOM     16  C   UNL     1       6.317   6.124  16.853  0.00  0.00    +0.000 A 
ATOM     17 CL   UNL     1       7.682   7.156  17.094  0.00  0.00    +0.000 Cl
ATOM     18  C   UNL     1       5.235   6.260  17.736  0.00  0.00    +0.000 A 
ENDBRANCH  10  11
BRANCH   1  19
ATOM     19  O   UNL     1       3.404   3.432  19.615  0.00  0.00    +0.000 OA
ATOM     20  H   UNL     1       2.818   2.920  20.197  0.00  0.00    +0.000 HD
ENDBRANCH   1  19
TORSDOF 2
ENDMDL
MODEL 7
REMARK VINA RESULT:      -6.6      1.865      3.512
REMARK  Name = 
REMARK  2 active torsions:
REMARK  status: ('A' for Active; 'I' for Inactive)
REMARK    1  A    between atoms: O_1  and  C_2
REMARK    2  A    between atoms: C_11  and  C_12
REMARK                            x       y       z     vdW  Elec       q    Type
REMARK                         _______ _______ _______ _____ _____    ______ ____
ROOT
ATOM      1  C   UNL     1       1.488   4.010  18.848  0.00  0.00    +0.000 C 
ATOM      2  C   UNL     1       1.973   2.606  18.508  0.00  0.00    +0.000 C 
ATOM      3  C   UNL     1       3.169   2.551  17.560  0.00  0.00    +0.000 C 
ATOM      4  N   UNL     1       4.170   3.609  17.683  0.00  0.00    +0.000 NA
ATOM      5  C   UNL     1       5.029   3.629  16.483  0.00  0.00    +0.000 C 
ATOM      6  C   UNL     1       6.248   4.522  16.696  0.00  0.00    +0.000 C 
ATOM      7  C   UNL     1       5.835   5.928  17.106  0.00  0.00    +0.000 C 
ATOM      8  C   UNL     1       4.865   5.875  18.281  0.00  0.00    +0.000 C 
ATOM      9  C   UNL     1       3.654   4.962  17.985  0.00  0.00    +0.000 C 
ATOM     10  C   UNL     1       2.665   4.942  19.187  0.00  0.00    +0.000 C 
ENDROOT
BRANCH  10  11
ATOM     11  C   UNL     1       2.186   6.335  19.579  0.00  0.00    +0.000 A 
ATOM     12  C   UNL     1       1.684   6.631  20.857  0.00  0.00    +0.000 A 
ATOM     13  C   UNL     1       1.223   7.911  21.174  0.00  0.00    +0.000 A 
ATOM     14  C   UNL     1       1.259   8.926  20.211  0.00  0.00    +0.000 A 
ATOM     15 CL   UNL     1       0.661  10.485  20.667  0.00  0.00    +0.000 Cl
ATOM     16  C   UNL     1       1.760   8.661  18.937  0.00  0.00    +0.000 A 
ATOM     17 CL   UNL     1       1.830   9.859  17.694  0.00  0.00    +0.000 Cl
ATOM     18  C   UNL     1       2.222   7.373  18.624  0.00  0.00    +0.000 A 
ENDBRANCH  10  11
BRANCH   1  19
ATOM     19  O   UNL     1       0.609   3.910  19.975  0.00  0.00    +0.000 OA
ATOM     20  H   UNL     1       0.456   2.967  20.154  0.00  0.00    +0.000 HD
ENDBRANCH   1  19
TORSDOF 2
ENDMDL
MODEL 8
REMARK VINA RESULT:      -6.6      3.680      5.524
REMARK  Name = 
REMARK  2 active torsions:
REMARK  status: ('A' for Active; 'I' for Inactive)
REMARK    1  A    between atoms: O_1  and  C_2
REMARK    2  A    between atoms: C_11  and  C_12
REMARK                            x       y       z     vdW  Elec       q    Type
REMARK                         _______ _______ _______ _____ _____    ______ ____
ROOT
ATOM      1  C   UNL     1       3.870   3.473  19.604  0.00  0.00    +0.000 C 
ATOM      2  C   UNL     1       2.800   3.224  20.660  0.00  0.00    +0.000 C 
ATOM      3  C   UNL     1       2.134   4.484  21.208  0.00  0.00    +0.000 C 
ATOM      4  N   UNL     1       1.931   5.594  20.278  0.00  0.00    +0.000 NA
ATOM      5  C   UNL     1       1.641   6.831  21.029  0.00  0.00    +0.000 C 
ATOM      6  C   UNL     1       1.151   7.936  20.097  0.00  0.00    +0.000 C 
ATOM      7  C   UNL     1       2.146   8.189  18.974  0.00  0.00    +0.000 C 
ATOM      8  C   UNL     1       2.510   6.880  18.282  0.00  0.00    +0.000 C 
ATOM      9  C   UNL     1       3.008   5.817  19.288  0.00  0.00    +0.000 C 
ATOM     10  C   UNL     1       3.397   4.499  18.558  0.00  0.00    +0.000 C 
ENDROOT
BRANCH  10  11
ATOM     11  C   UNL     1       4.441   4.715  17.469  0.00  0.00    +0.000 A 
ATOM     12  C   UNL     1       4.432   4.000  16.260  0.00  0.00    +0.000 A 
ATOM     13  C   UNL     1       5.422   4.199  15.295  0.00  0.00    +0.000 A 
ATOM     14  C   UNL     1       6.445   5.127  15.523  0.00  0.00    +0.000 A 
ATOM     15 CL   UNL     1       7.645   5.315  14.291  0.00  0.00    +0.000 Cl
ATOM     16  C   UNL     1       6.472   5.856  16.711  0.00  0.00    +0.000 A 
ATOM     17 CL   UNL     1       7.706   7.013  17.067  0.00  0.00    +0.000 Cl
ATOM     18  C   UNL     1       5.475   5.652  17.677  0.00  0.00    +0.000 A 
ENDBRANCH  10  11
BRANCH   1  19
ATOM     19  O   UNL     1       4.151   2.223  18.962  0.00  0.00    +0.000 OA
ATOM     20  H   UNL     1       4.295   2.396  18.017  0.00  0.00    +0.000 HD
ENDBRANCH   1  19
TORSDOF 2
ENDMDL
MODEL 9
REMARK VINA RESULT:      -6.4      3.494      4.471
REMARK  Name = 
REMARK  2 active torsions:
REMARK  status: ('A' for Active; 'I' for Inactive)
REMARK    1  A    between atoms: O_1  and  C_2
REMARK    2  A    between atoms: C_11  and  C_12
REMARK                            x       y       z     vdW  Elec       q    Type
REMARK                         _______ _______ _______ _____ _____    ______ ____
ROOT
ATOM      1  C   UNL     1       4.549   2.843  17.531  0.00  0.00    +0.000 C 
ATOM      2  C   UNL     1       3.457   1.782  17.470  0.00  0.00    +0.000 C 
ATOM      3  C   UNL     1       2.395   1.889  18.562  0.00  0.00    +0.000 C 
ATOM      4  N   UNL     1       2.018   3.232  18.999  0.00  0.00    +0.000 NA
ATOM      5  C   UNL     1       1.291   3.157  20.282  0.00  0.00    +0.000 C 
ATOM      6  C   UNL     1       0.643   4.495  20.625  0.00  0.00    +0.000 C 
ATOM      7  C   UNL     1       1.672   5.617  20.636  0.00  0.00    +0.000 C 
ATOM      8  C   UNL     1       2.481   5.608  19.343  0.00  0.00    +0.000 C 
ATOM      9  C   UNL     1       3.114   4.224  19.071  0.00  0.00    +0.000 C 
ATOM     10  C   UNL     1       3.955   4.244  17.762  0.00  0.00    +0.000 C 
ENDROOT
BRANCH  10  11
ATOM     11  C   UNL     1       5.035   5.319  17.772  0.00  0.00    +0.000 A 
ATOM     12  C   UNL     1       4.999   6.437  16.923  0.00  0.00    +0.000 A 
ATOM     13  C   UNL     1       6.022   7.389  16.935  0.00  0.00    +0.000 A 
ATOM     14  C   UNL     1       7.107   7.238  17.806  0.00  0.00    +0.000 A 
ATOM     15 CL   UNL     1       8.344   8.447  17.760  0.00  0.00    +0.000 Cl
ATOM     16  C   UNL     1       7.164   6.141  18.665  0.00  0.00    +0.000 A 
ATOM     17 CL   UNL     1       8.473   5.884  19.762  0.00  0.00    +0.000 Cl
ATOM     18  C   UNL     1       6.133   5.189  18.649  0.00  0.00    +0.000 A 
ENDBRANCH  10  11
BRANCH   1  19
ATOM     19  O   UNL     1       5.256   2.816  16.285  0.00  0.00    +0.000 OA
ATOM     20  H   UNL     1       6.151   3.162  16.440  0.00  0.00    +0.000 HD
ENDBRANCH   1  19
TORSDOF 2
ENDMDL
