MODEL 1
REMARK VINA RESULT:      -8.4      0.000      0.000
REMARK  Name = 
REMARK  4 active torsions:
REMARK  status: ('A' for Active; 'I' for Inactive)
REMARK    1  A    between atoms: C_4  and  C_5
REMARK    2  A    between atoms: C_4  and  C_13
REMARK    3  A    between atoms: C_5  and  SE_6
REMARK    4  A    between atoms: SE_6  and  C_7
REMARK                            x       y       z     vdW  Elec       q    Type
REMARK                         _______ _______ _______ _____ _____    ______ ____
ROOT
ATOM      1  C   UNL     1       7.769   7.387  18.212  0.00  0.00    +0.000 C 
ATOM      2  C   UNL     1       7.303   6.348  17.513  0.00  0.00    +0.000 C 
ATOM      3  C   UNL     1       6.451   6.416  16.297  0.00  0.00    +0.000 C 
ATOM      4  C   UNL     1       6.095   4.912  16.035  0.00  0.00    +0.000 C 
ATOM      5  O   UNL     1       6.916   4.173  16.880  0.00  0.00    +0.000 OA
ATOM      6  C   UNL     1       7.570   4.951  17.754  0.00  0.00    +0.000 C 
ATOM      7  O   UNL     1       8.299   4.511  18.629  0.00  0.00    +0.000 OA
ENDROOT
BRANCH   4   8
ATOM      8  C   UNL     1       6.325   4.557  14.565  0.00  0.00    +0.000 A 
ATOM      9  C   UNL     1       7.430   5.068  13.851  0.00  0.00    +0.000 A 
ATOM     10  C   UNL     1       7.625   4.734  12.507  0.00  0.00    +0.000 A 
ATOM     11  C   UNL     1       6.723   3.892  11.855  0.00  0.00    +0.000 A 
ATOM     12  C   UNL     1       5.623   3.380  12.547  0.00  0.00    +0.000 A 
ATOM     13  C   UNL     1       5.424   3.707  13.892  0.00  0.00    +0.000 A 
ENDBRANCH   4   8
BRANCH   4  14
ATOM     14  C   UNL     1       4.629   4.626  16.458  0.00  0.00    +0.000 C 
BRANCH  14  15
ATOM     15 SE   UNL     1       3.888   6.105  17.511  0.00  0.00    +0.000 Se
BRANCH  15  16
ATOM     16  C   UNL     1       2.637   5.013  18.497  0.00  0.00    +0.000 A 
ATOM     17  C   UNL     1       2.042   3.905  17.875  0.00  0.00    +0.000 A 
ATOM     18  C   UNL     1       1.164   3.083  18.590  0.00  0.00    +0.000 A 
ATOM     19  C   UNL     1       0.875   3.363  19.928  0.00  0.00    +0.000 A 
ATOM     20  C   UNL     1       1.464   4.472  20.553  0.00  0.00    +0.000 A 
ATOM     21  C   UNL     1       2.345   5.292  19.839  0.00  0.00    +0.000 A 
ENDBRANCH  15  16
ENDBRANCH  14  15
ENDBRANCH   4  14
TORSDOF 4
ENDMDL
MODEL 2
REMARK VINA RESULT:      -8.4      0.180      1.061
REMARK  Name = 
REMARK  4 active torsions:
REMARK  status: ('A' for Active; 'I' for Inactive)
REMARK    1  A    between atoms: C_4  and  C_5
REMARK    2  A    between atoms: C_4  and  C_13
REMARK    3  A    between atoms: C_5  and  SE_6
REMARK    4  A    between atoms: SE_6  and  C_7
REMARK                            x       y       z     vdW  Elec       q    Type
REMARK                         _______ _______ _______ _____ _____    ______ ____
ROOT
ATOM      1  C   UNL     1       7.782   7.346  18.280  0.00  0.00    +0.000 C 
ATOM      2  C   UNL     1       7.318   6.321  17.561  0.00  0.00    +0.000 C 
ATOM      3  C   UNL     1       6.482   6.412  16.336  0.00  0.00    +0.000 C 
ATOM      4  C   UNL     1       6.120   4.914  16.047  0.00  0.00    +0.000 C 
ATOM      5  O   UNL     1       6.926   4.158  16.891  0.00  0.00    +0.000 OA
ATOM      6  C   UNL     1       7.575   4.919  17.784  0.00  0.00    +0.000 C 
ATOM      7  O   UNL     1       8.291   4.462  18.661  0.00  0.00    +0.000 OA
ENDROOT
BRANCH   4   8
ATOM      8  C   UNL     1       6.366   4.580  14.575  0.00  0.00    +0.000 A 
ATOM      9  C   UNL     1       7.454   5.135  13.868  0.00  0.00    +0.000 A 
ATOM     10  C   UNL     1       7.663   4.819  12.522  0.00  0.00    +0.000 A 
ATOM     11  C   UNL     1       6.792   3.951  11.861  0.00  0.00    +0.000 A 
ATOM     12  C   UNL     1       5.709   3.396  12.545  0.00  0.00    +0.000 A 
ATOM     13  C   UNL     1       5.496   3.705  13.893  0.00  0.00    +0.000 A 
ENDBRANCH   4   8
BRANCH   4  14
ATOM     14  C   UNL     1       4.647   4.631  16.448  0.00  0.00    +0.000 C 
BRANCH  14  15
ATOM     15 SE   UNL     1       3.975   5.984  17.698  0.00  0.00    +0.000 Se
BRANCH  15  16
ATOM     16  C   UNL     1       2.719   4.807  18.576  0.00  0.00    +0.000 A 
ATOM     17  C   UNL     1       2.166   5.178  19.810  0.00  0.00    +0.000 A 
ATOM     18  C   UNL     1       1.226   4.352  20.437  0.00  0.00    +0.000 A 
ATOM     19  C   UNL     1       0.834   3.154  19.837  0.00  0.00    +0.000 A 
ATOM     20  C   UNL     1       1.388   2.777  18.604  0.00  0.00    +0.000 A 
ATOM     21  C   UNL     1       2.325   3.604  17.975  0.00  0.00    +0.000 A 
ENDBRANCH  15  16
ENDBRANCH  14  15
ENDBRANCH   4  14
TORSDOF 4
ENDMDL
MODEL 3
REMARK VINA RESULT:      -8.3      2.900      4.743
REMARK  Name = 
REMARK  4 active torsions:
REMARK  status: ('A' for Active; 'I' for Inactive)
REMARK    1  A    between atoms: C_4  and  C_5
REMARK    2  A    between atoms: C_4  and  C_13
REMARK    3  A    between atoms: C_5  and  SE_6
REMARK    4  A    between atoms: SE_6  and  C_7
REMARK                            x       y       z     vdW  Elec       q    Type
REMARK                         _______ _______ _______ _____ _____    ______ ____
ROOT
ATOM      1  C   UNL     1       7.976   5.427  19.055  0.00  0.00    +0.000 C 
ATOM      2  C   UNL     1       6.831   5.789  18.471  0.00  0.00    +0.000 C 
ATOM      3  C   UNL     1       5.461   5.540  18.990  0.00  0.00    +0.000 C 
ATOM      4  C   UNL     1       4.547   6.033  17.816  0.00  0.00    +0.000 C 
ATOM      5  O   UNL     1       5.388   6.703  16.934  0.00  0.00    +0.000 OA
ATOM      6  C   UNL     1       6.681   6.543  17.251  0.00  0.00    +0.000 C 
ATOM      7  O   UNL     1       7.596   6.994  16.580  0.00  0.00    +0.000 OA
ENDROOT
BRANCH   4   8
ATOM      8  C   UNL     1       3.439   6.943  18.348  0.00  0.00    +0.000 A 
ATOM      9  C   UNL     1       2.980   8.052  17.605  0.00  0.00    +0.000 A 
ATOM     10  C   UNL     1       1.967   8.874  18.107  0.00  0.00    +0.000 A 
ATOM     11  C   UNL     1       1.400   8.608  19.355  0.00  0.00    +0.000 A 
ATOM     12  C   UNL     1       1.845   7.517  20.103  0.00  0.00    +0.000 A 
ATOM     13  C   UNL     1       2.855   6.688  19.605  0.00  0.00    +0.000 A 
ENDBRANCH   4   8
BRANCH   4  14
ATOM     14  C   UNL     1       3.956   4.819  17.049  0.00  0.00    +0.000 C 
BRANCH  14  15
ATOM     15 SE   UNL     1       4.532   3.123  17.846  0.00  0.00    +0.000 Se
BRANCH  15  16
ATOM     16  C   UNL     1       3.148   3.081  19.194  0.00  0.00    +0.000 A 
ATOM     17  C   UNL     1       1.815   3.323  18.829  0.00  0.00    +0.000 A 
ATOM     18  C   UNL     1       0.799   3.257  19.789  0.00  0.00    +0.000 A 
ATOM     19  C   UNL     1       1.107   2.950  21.116  0.00  0.00    +0.000 A 
ATOM     20  C   UNL     1       2.439   2.710  21.487  0.00  0.00    +0.000 A 
ATOM     21  C   UNL     1       3.455   2.773  20.527  0.00  0.00    +0.000 A 
ENDBRANCH  15  16
ENDBRANCH  14  15
ENDBRANCH   4  14
TORSDOF 4
ENDMDL
MODEL 4
REMARK VINA RESULT:      -8.3      2.948      4.857
REMARK  Name = 
REMARK  4 active torsions:
REMARK  status: ('A' for Active; 'I' for Inactive)
REMARK    1  A    between atoms: C_4  and  C_5
REMARK    2  A    between atoms: C_4  and  C_13
REMARK    3  A    between atoms: C_5  and  SE_6
REMARK    4  A    between atoms: SE_6  and  C_7
REMARK                            x       y       z     vdW  Elec       q    Type
REMARK                         _______ _______ _______ _____ _____    ______ ____
ROOT
ATOM      1  C   UNL     1       7.910   5.485  19.051  0.00  0.00    +0.000 C 
ATOM      2  C   UNL     1       6.757   5.857  18.489  0.00  0.00    +0.000 C 
ATOM      3  C   UNL     1       5.394   5.580  19.012  0.00  0.00    +0.000 C 
ATOM      4  C   UNL     1       4.465   6.105  17.863  0.00  0.00    +0.000 C 
ATOM      5  O   UNL     1       5.293   6.811  16.997  0.00  0.00    +0.000 OA
ATOM      6  C   UNL     1       6.590   6.650  17.296  0.00  0.00    +0.000 C 
ATOM      7  O   UNL     1       7.496   7.130  16.633  0.00  0.00    +0.000 OA
ENDROOT
BRANCH   4   8
ATOM      8  C   UNL     1       3.355   6.989  18.435  0.00  0.00    +0.000 A 
ATOM      9  C   UNL     1       2.779   6.720  19.695  0.00  0.00    +0.000 A 
ATOM     10  C   UNL     1       1.764   7.537  20.202  0.00  0.00    +0.000 A 
ATOM     11  C   UNL     1       1.307   8.629  19.463  0.00  0.00    +0.000 A 
ATOM     12  C   UNL     1       1.864   8.907  18.213  0.00  0.00    +0.000 A 
ATOM     13  C   UNL     1       2.882   8.095  17.701  0.00  0.00    +0.000 A 
ENDBRANCH   4   8
BRANCH   4  14
ATOM     14  C   UNL     1       3.876   4.913  17.062  0.00  0.00    +0.000 C 
BRANCH  14  15
ATOM     15 SE   UNL     1       4.456   3.195  17.809  0.00  0.00    +0.000 Se
BRANCH  15  16
ATOM     16  C   UNL     1       3.099   3.130  19.181  0.00  0.00    +0.000 A 
ATOM     17  C   UNL     1       1.759   3.381  18.846  0.00  0.00    +0.000 A 
ATOM     18  C   UNL     1       0.762   3.298  19.824  0.00  0.00    +0.000 A 
ATOM     19  C   UNL     1       1.094   2.966  21.139  0.00  0.00    +0.000 A 
ATOM     20  C   UNL     1       2.432   2.717  21.480  0.00  0.00    +0.000 A 
ATOM     21  C   UNL     1       3.430   2.796  20.502  0.00  0.00    +0.000 A 
ENDBRANCH  15  16
ENDBRANCH  14  15
ENDBRANCH   4  14
TORSDOF 4
ENDMDL
MODEL 5
REMARK VINA RESULT:      -8.2      2.689      4.724
REMARK  Name = 
REMARK  4 active torsions:
REMARK  status: ('A' for Active; 'I' for Inactive)
REMARK    1  A    between atoms: C_4  and  C_5
REMARK    2  A    between atoms: C_4  and  C_13
REMARK    3  A    between atoms: C_5  and  SE_6
REMARK    4  A    between atoms: SE_6  and  C_7
REMARK                            x       y       z     vdW  Elec       q    Type
REMARK                         _______ _______ _______ _____ _____    ______ ____
ROOT
ATOM      1  C   UNL     1       7.916   4.789  18.424  0.00  0.00    +0.000 C 
ATOM      2  C   UNL     1       6.735   5.211  17.962  0.00  0.00    +0.000 C 
ATOM      3  C   UNL     1       5.426   5.089  18.654  0.00  0.00    +0.000 C 
ATOM      4  C   UNL     1       4.410   5.597  17.573  0.00  0.00    +0.000 C 
ATOM      5  O   UNL     1       5.181   6.161  16.562  0.00  0.00    +0.000 OA
ATOM      6  C   UNL     1       6.489   5.918  16.730  0.00  0.00    +0.000 C 
ATOM      7  O   UNL     1       7.344   6.267  15.931  0.00  0.00    +0.000 OA
ENDROOT
BRANCH   4   8
ATOM      8  C   UNL     1       3.442   6.611  18.184  0.00  0.00    +0.000 A 
ATOM      9  C   UNL     1       3.079   7.788  17.493  0.00  0.00    +0.000 A 
ATOM     10  C   UNL     1       2.194   8.705  18.066  0.00  0.00    +0.000 A 
ATOM     11  C   UNL     1       1.662   8.469  19.335  0.00  0.00    +0.000 A 
ATOM     12  C   UNL     1       2.013   7.312  20.033  0.00  0.00    +0.000 A 
ATOM     13  C   UNL     1       2.896   6.388  19.464  0.00  0.00    +0.000 A 
ENDBRANCH   4   8
BRANCH   4  14
ATOM     14  C   UNL     1       3.646   4.398  16.950  0.00  0.00    +0.000 C 
BRANCH  14  15
ATOM     15 SE   UNL     1       4.195   2.701  17.764  0.00  0.00    +0.000 Se
BRANCH  15  16
ATOM     16  C   UNL     1       2.927   2.783  19.219  0.00  0.00    +0.000 A 
ATOM     17  C   UNL     1       3.373   2.622  20.539  0.00  0.00    +0.000 A 
ATOM     18  C   UNL     1       2.471   2.719  21.604  0.00  0.00    +0.000 A 
ATOM     19  C   UNL     1       1.120   2.976  21.358  0.00  0.00    +0.000 A 
ATOM     20  C   UNL     1       0.668   3.134  20.039  0.00  0.00    +0.000 A 
ATOM     21  C   UNL     1       1.571   3.041  18.974  0.00  0.00    +0.000 A 
ENDBRANCH  15  16
ENDBRANCH  14  15
ENDBRANCH   4  14
TORSDOF 4
ENDMDL
MODEL 6
REMARK VINA RESULT:      -8.1      2.985      6.983
REMARK  Name = 
REMARK  4 active torsions:
REMARK  status: ('A' for Active; 'I' for Inactive)
REMARK    1  A    between atoms: C_4  and  C_5
REMARK    2  A    between atoms: C_4  and  C_13
REMARK    3  A    between atoms: C_5  and  SE_6
REMARK    4  A    between atoms: SE_6  and  C_7
REMARK                            x       y       z     vdW  Elec       q    Type
REMARK                         _______ _______ _______ _____ _____    ______ ____
ROOT
ATOM      1  C   UNL     1       0.952   2.443  18.752  0.00  0.00    +0.000 C 
ATOM      2  C   UNL     1       1.485   3.570  19.233  0.00  0.00    +0.000 C 
ATOM      3  C   UNL     1       1.995   4.713  18.432  0.00  0.00    +0.000 C 
ATOM      4  C   UNL     1       2.636   5.643  19.519  0.00  0.00    +0.000 C 
ATOM      5  O   UNL     1       2.233   5.128  20.747  0.00  0.00    +0.000 OA
ATOM      6  C   UNL     1       1.626   3.939  20.620  0.00  0.00    +0.000 C 
ATOM      7  O   UNL     1       1.244   3.276  21.571  0.00  0.00    +0.000 OA
ENDROOT
BRANCH   4   8
ATOM      8  C   UNL     1       2.171   7.087  19.329  0.00  0.00    +0.000 A 
ATOM      9  C   UNL     1       2.328   7.753  18.094  0.00  0.00    +0.000 A 
ATOM     10  C   UNL     1       1.898   9.074  17.937  0.00  0.00    +0.000 A 
ATOM     11  C   UNL     1       1.311   9.752  19.007  0.00  0.00    +0.000 A 
ATOM     12  C   UNL     1       1.152   9.110  20.236  0.00  0.00    +0.000 A 
ATOM     13  C   UNL     1       1.577   7.787  20.398  0.00  0.00    +0.000 A 
ENDBRANCH   4   8
BRANCH   4  14
ATOM     14  C   UNL     1       4.184   5.541  19.467  0.00  0.00    +0.000 C 
BRANCH  14  15
ATOM     15 SE   UNL     1       4.765   3.725  19.008  0.00  0.00    +0.000 Se
BRANCH  15  16
ATOM     16  C   UNL     1       5.550   4.212  17.312  0.00  0.00    +0.000 A 
ATOM     17  C   UNL     1       6.888   4.629  17.260  0.00  0.00    +0.000 A 
ATOM     18  C   UNL     1       7.480   4.948  16.032  0.00  0.00    +0.000 A 
ATOM     19  C   UNL     1       6.740   4.852  14.852  0.00  0.00    +0.000 A 
ATOM     20  C   UNL     1       5.400   4.438  14.899  0.00  0.00    +0.000 A 
ATOM     21  C   UNL     1       4.809   4.117  16.125  0.00  0.00    +0.000 A 
ENDBRANCH  15  16
ENDBRANCH  14  15
ENDBRANCH   4  14
TORSDOF 4
ENDMDL
MODEL 7
REMARK VINA RESULT:      -8.1      0.646      1.478
REMARK  Name = 
REMARK  4 active torsions:
REMARK  status: ('A' for Active; 'I' for Inactive)
REMARK    1  A    between atoms: C_4  and  C_5
REMARK    2  A    between atoms: C_4  and  C_13
REMARK    3  A    between atoms: C_5  and  SE_6
REMARK    4  A    between atoms: SE_6  and  C_7
REMARK                            x       y       z     vdW  Elec       q    Type
REMARK                         _______ _______ _______ _____ _____    ______ ____
ROOT
ATOM      1  C   UNL     1       7.806   7.335  18.283  0.00  0.00    +0.000 C 
ATOM      2  C   UNL     1       7.339   6.314  17.559  0.00  0.00    +0.000 C 
ATOM      3  C   UNL     1       6.504   6.413  16.333  0.00  0.00    +0.000 C 
ATOM      4  C   UNL     1       6.136   4.918  16.039  0.00  0.00    +0.000 C 
ATOM      5  O   UNL     1       6.939   4.156  16.880  0.00  0.00    +0.000 OA
ATOM      6  C   UNL     1       7.590   4.911  17.777  0.00  0.00    +0.000 C 
ATOM      7  O   UNL     1       8.303   4.447  18.653  0.00  0.00    +0.000 OA
ENDROOT
BRANCH   4   8
ATOM      8  C   UNL     1       6.383   4.588  14.566  0.00  0.00    +0.000 A 
ATOM      9  C   UNL     1       5.551   3.688  13.865  0.00  0.00    +0.000 A 
ATOM     10  C   UNL     1       5.791   3.397  12.519  0.00  0.00    +0.000 A 
ATOM     11  C   UNL     1       6.864   3.992  11.853  0.00  0.00    +0.000 A 
ATOM     12  C   UNL     1       7.698   4.882  12.532  0.00  0.00    +0.000 A 
ATOM     13  C   UNL     1       7.461   5.180  13.878  0.00  0.00    +0.000 A 
ENDBRANCH   4   8
BRANCH   4  14
ATOM     14  C   UNL     1       4.663   4.639  16.437  0.00  0.00    +0.000 C 
BRANCH  14  15
ATOM     15 SE   UNL     1       4.006   5.968  17.721  0.00  0.00    +0.000 Se
BRANCH  15  16
ATOM     16  C   UNL     1       3.036   4.701  18.809  0.00  0.00    +0.000 A 
ATOM     17  C   UNL     1       1.926   5.129  19.552  0.00  0.00    +0.000 A 
ATOM     18  C   UNL     1       1.192   4.213  20.313  0.00  0.00    +0.000 A 
ATOM     19  C   UNL     1       1.562   2.866  20.337  0.00  0.00    +0.000 A 
ATOM     20  C   UNL     1       2.673   2.433  19.599  0.00  0.00    +0.000 A 
ATOM     21  C   UNL     1       3.406   3.348  18.835  0.00  0.00    +0.000 A 
ENDBRANCH  15  16
ENDBRANCH  14  15
ENDBRANCH   4  14
TORSDOF 4
ENDMDL
MODEL 8
REMARK VINA RESULT:      -8.0      0.857      1.559
REMARK  Name = 
REMARK  4 active torsions:
REMARK  status: ('A' for Active; 'I' for Inactive)
REMARK    1  A    between atoms: C_4  and  C_5
REMARK    2  A    between atoms: C_4  and  C_13
REMARK    3  A    between atoms: C_5  and  SE_6
REMARK    4  A    between atoms: SE_6  and  C_7
REMARK                            x       y       z     vdW  Elec       q    Type
REMARK                         _______ _______ _______ _____ _____    ______ ____
ROOT
ATOM      1  C   UNL     1       7.926   7.511  18.205  0.00  0.00    +0.000 C 
ATOM      2  C   UNL     1       7.374   6.505  17.521  0.00  0.00    +0.000 C 
ATOM      3  C   UNL     1       6.587   6.622  16.265  0.00  0.00    +0.000 C 
ATOM      4  C   UNL     1       6.073   5.159  16.038  0.00  0.00    +0.000 C 
ATOM      5  O   UNL     1       6.769   4.365  16.943  0.00  0.00    +0.000 OA
ATOM      6  C   UNL     1       7.471   5.098  17.820  0.00  0.00    +0.000 C 
ATOM      7  O   UNL     1       8.108   4.612  18.741  0.00  0.00    +0.000 OA
ENDROOT
BRANCH   4   8
ATOM      8  C   UNL     1       6.322   4.724  14.592  0.00  0.00    +0.000 A 
ATOM      9  C   UNL     1       5.457   3.822  13.937  0.00  0.00    +0.000 A 
ATOM     10  C   UNL     1       5.701   3.435  12.616  0.00  0.00    +0.000 A 
ATOM     11  C   UNL     1       6.810   3.934  11.931  0.00  0.00    +0.000 A 
ATOM     12  C   UNL     1       7.677   4.825  12.566  0.00  0.00    +0.000 A 
ATOM     13  C   UNL     1       7.438   5.219  13.886  0.00  0.00    +0.000 A 
ENDBRANCH   4   8
BRANCH   4  14
ATOM     14  C   UNL     1       4.568   5.055  16.402  0.00  0.00    +0.000 C 
BRANCH  14  15
ATOM     15 SE   UNL     1       4.169   3.366  17.314  0.00  0.00    +0.000 Se
BRANCH  15  16
ATOM     16  C   UNL     1       3.073   4.162  18.692  0.00  0.00    +0.000 A 
ATOM     17  C   UNL     1       2.366   3.338  19.580  0.00  0.00    +0.000 A 
ATOM     18  C   UNL     1       1.600   3.903  20.607  0.00  0.00    +0.000 A 
ATOM     19  C   UNL     1       1.536   5.291  20.751  0.00  0.00    +0.000 A 
ATOM     20  C   UNL     1       2.238   6.119  19.863  0.00  0.00    +0.000 A 
ATOM     21  C   UNL     1       3.007   5.555  18.839  0.00  0.00    +0.000 A 
ENDBRANCH  15  16
ENDBRANCH  14  15
ENDBRANCH   4  14
TORSDOF 4
ENDMDL
MODEL 9
REMARK VINA RESULT:      -8.0      3.003      6.955
REMARK  Name = 
REMARK  4 active torsions:
REMARK  status: ('A' for Active; 'I' for Inactive)
REMARK    1  A    between atoms: C_4  and  C_5
REMARK    2  A    between atoms: C_4  and  C_13
REMARK    3  A    between atoms: C_5  and  SE_6
REMARK    4  A    between atoms: SE_6  and  C_7
REMARK                            x       y       z     vdW  Elec       q    Type
REMARK                         _______ _______ _______ _____ _____    ______ ____
ROOT
ATOM      1  C   UNL     1       0.922   2.430  18.704  0.00  0.00    +0.000 C 
ATOM      2  C   UNL     1       1.435   3.552  19.215  0.00  0.00    +0.000 C 
ATOM      3  C   UNL     1       1.972   4.704  18.446  0.00  0.00    +0.000 C 
ATOM      4  C   UNL     1       2.573   5.623  19.565  0.00  0.00    +0.000 C 
ATOM      5  O   UNL     1       2.125   5.095  20.772  0.00  0.00    +0.000 OA
ATOM      6  C   UNL     1       1.525   3.907  20.610  0.00  0.00    +0.000 C 
ATOM      7  O   UNL     1       1.108   3.235  21.540  0.00  0.00    +0.000 OA
ENDROOT
BRANCH   4   8
ATOM      8  C   UNL     1       2.113   7.069  19.372  0.00  0.00    +0.000 A 
ATOM      9  C   UNL     1       1.519   7.798  20.425  0.00  0.00    +0.000 A 
ATOM     10  C   UNL     1       1.104   9.118  20.231  0.00  0.00    +0.000 A 
ATOM     11  C   UNL     1       1.268   9.730  18.987  0.00  0.00    +0.000 A 
ATOM     12  C   UNL     1       1.850   9.023  17.934  0.00  0.00    +0.000 A 
ATOM     13  C   UNL     1       2.272   7.702  18.123  0.00  0.00    +0.000 A 
ENDBRANCH   4   8
BRANCH   4  14
ATOM     14  C   UNL     1       4.121   5.523  19.569  0.00  0.00    +0.000 C 
BRANCH  14  15
ATOM     15 SE   UNL     1       4.721   3.713  19.109  0.00  0.00    +0.000 Se
BRANCH  15  16
ATOM     16  C   UNL     1       5.502   4.210  17.414  0.00  0.00    +0.000 A 
ATOM     17  C   UNL     1       4.824   3.913  16.222  0.00  0.00    +0.000 A 
ATOM     18  C   UNL     1       5.361   4.302  14.990  0.00  0.00    +0.000 A 
ATOM     19  C   UNL     1       6.576   4.989  14.940  0.00  0.00    +0.000 A 
ATOM     20  C   UNL     1       7.260   5.285  16.129  0.00  0.00    +0.000 A 
ATOM     21  C   UNL     1       6.722   4.899  17.361  0.00  0.00    +0.000 A 
ENDBRANCH  15  16
ENDBRANCH  14  15
ENDBRANCH   4  14
TORSDOF 4
ENDMDL
