MODEL 1
REMARK VINA RESULT:      -8.4      0.000      0.000
REMARK  Name = 
REMARK  6 active torsions:
REMARK  status: ('A' for Active; 'I' for Inactive)
REMARK    1  A    between atoms: C_1  and  C_2
REMARK    2  A    between atoms: C_6  and  C_7
REMARK    3  A    between atoms: C_7  and  C_8
REMARK    4  A    between atoms: C_7  and  C_12
REMARK    5  A    between atoms: C_8  and  N_9
REMARK    6  A    between atoms: C_13  and  C_14
REMARK                            x       y       z     vdW  Elec       q    Type
REMARK                         _______ _______ _______ _____ _____    ______ ____
ROOT
ATOM      1  C   UNL     1       5.648   4.837  16.165  0.00  0.00    +0.000 A 
ATOM      2  C   UNL     1       4.587   3.919  16.082  0.00  0.00    +0.000 A 
ATOM      3  N   UNL     1       4.568   3.463  14.776  0.00  0.00    +0.000 N 
ATOM      4  C   UNL     1       5.614   3.952  14.047  0.00  0.00    +0.000 A 
ATOM      5  C   UNL     1       6.005   3.667  12.729  0.00  0.00    +0.000 A 
ATOM      6  C   UNL     1       7.152   4.287  12.236  0.00  0.00    +0.000 A 
ATOM      7  C   UNL     1       7.870   5.182  13.019  0.00  0.00    +0.000 A 
ATOM      8  C   UNL     1       7.440   5.476  14.318  0.00  0.00    +0.000 A 
ATOM      9  C   UNL     1       6.306   4.837  14.864  0.00  0.00    +0.000 A 
ATOM     10  H   UNL     1       3.891   2.806  14.412  0.00  0.00    +0.000 HD
ENDROOT
BRANCH   2  11
ATOM     11  C   UNL     1       3.626   3.391  17.074  0.00  0.00    +0.000 A 
ATOM     12  C   UNL     1       2.298   3.824  17.133  0.00  0.00    +0.000 A 
ATOM     13  C   UNL     1       1.439   3.417  18.159  0.00  0.00    +0.000 A 
ATOM     14  C   UNL     1       1.886   2.531  19.132  0.00  0.00    +0.000 A 
ATOM     15  C   UNL     1       3.181   2.030  19.057  0.00  0.00    +0.000 A 
ATOM     16  C   UNL     1       4.042   2.456  18.039  0.00  0.00    +0.000 A 
ENDBRANCH   2  11
BRANCH   1  17
ATOM     17  C   UNL     1       6.027   5.671  17.401  0.00  0.00    +0.000 C 
BRANCH  17  23
ATOM     18  C   UNL     1       1.907   8.629  17.623  0.00  0.00    +0.000 C 
ATOM     19  C   UNL     1       2.731   7.529  18.228  0.00  0.00    +0.000 A 
ATOM     20  C   UNL     1       2.413   6.967  19.463  0.00  0.00    +0.000 A 
ATOM     21  C   UNL     1       3.222   5.971  20.007  0.00  0.00    +0.000 A 
ATOM     22  C   UNL     1       4.362   5.533  19.325  0.00  0.00    +0.000 A 
ATOM     23  C   UNL     1       4.732   6.107  18.094  0.00  0.00    +0.000 A 
ATOM     24  C   UNL     1       3.879   7.089  17.553  0.00  0.00    +0.000 A 
ENDBRANCH  17  23
BRANCH  17  25
ATOM     25  C   UNL     1       7.019   4.859  18.245  0.00  0.00    +0.000 C 
BRANCH  25  26
ATOM     26  N   UNL     1       7.748   5.728  19.224  0.00  0.00    +0.000 N 
ATOM     27  O   UNL     1       7.814   5.363  20.403  0.00  0.00    +0.000 OA
ATOM     28  O   UNL     1       8.193   6.795  18.780  0.00  0.00    +0.000 OA
ENDBRANCH  25  26
ENDBRANCH  17  25
ENDBRANCH   1  17
TORSDOF 5
ENDMDL
MODEL 2
REMARK VINA RESULT:      -8.4      0.382      1.265
REMARK  Name = 
REMARK  6 active torsions:
REMARK  status: ('A' for Active; 'I' for Inactive)
REMARK    1  A    between atoms: C_1  and  C_2
REMARK    2  A    between atoms: C_6  and  C_7
REMARK    3  A    between atoms: C_7  and  C_8
REMARK    4  A    between atoms: C_7  and  C_12
REMARK    5  A    between atoms: C_8  and  N_9
REMARK    6  A    between atoms: C_13  and  C_14
REMARK                            x       y       z     vdW  Elec       q    Type
REMARK                         _______ _______ _______ _____ _____    ______ ____
ROOT
ATOM      1  C   UNL     1       5.652   4.853  16.191  0.00  0.00    +0.000 A 
ATOM      2  C   UNL     1       4.618   3.904  16.106  0.00  0.00    +0.000 A 
ATOM      3  N   UNL     1       4.630   3.431  14.806  0.00  0.00    +0.000 N 
ATOM      4  C   UNL     1       5.672   3.941  14.086  0.00  0.00    +0.000 A 
ATOM      5  C   UNL     1       6.089   3.651  12.776  0.00  0.00    +0.000 A 
ATOM      6  C   UNL     1       7.225   4.298  12.290  0.00  0.00    +0.000 A 
ATOM      7  C   UNL     1       7.905   5.223  13.072  0.00  0.00    +0.000 A 
ATOM      8  C   UNL     1       7.449   5.521  14.361  0.00  0.00    +0.000 A 
ATOM      9  C   UNL     1       6.327   4.856  14.900  0.00  0.00    +0.000 A 
ATOM     10  H   UNL     1       3.977   2.750  14.442  0.00  0.00    +0.000 HD
ENDROOT
BRANCH   2  11
ATOM     11  C   UNL     1       3.659   3.361  17.092  0.00  0.00    +0.000 A 
ATOM     12  C   UNL     1       2.308   3.720  17.097  0.00  0.00    +0.000 A 
ATOM     13  C   UNL     1       1.443   3.305  18.115  0.00  0.00    +0.000 A 
ATOM     14  C   UNL     1       1.910   2.484  19.134  0.00  0.00    +0.000 A 
ATOM     15  C   UNL     1       3.232   2.055  19.115  0.00  0.00    +0.000 A 
ATOM     16  C   UNL     1       4.098   2.489  18.105  0.00  0.00    +0.000 A 
ENDBRANCH   2  11
BRANCH   1  17
ATOM     17  C   UNL     1       5.989   5.714  17.422  0.00  0.00    +0.000 C 
BRANCH  17  23
ATOM     18  C   UNL     1       2.197   5.786  20.795  0.00  0.00    +0.000 C 
ATOM     19  C   UNL     1       2.834   6.372  19.569  0.00  0.00    +0.000 A 
ATOM     20  C   UNL     1       2.214   7.376  18.828  0.00  0.00    +0.000 A 
ATOM     21  C   UNL     1       2.822   7.871  17.676  0.00  0.00    +0.000 A 
ATOM     22  C   UNL     1       4.051   7.359  17.247  0.00  0.00    +0.000 A 
ATOM     23  C   UNL     1       4.684   6.317  17.951  0.00  0.00    +0.000 A 
ATOM     24  C   UNL     1       4.062   5.858  19.129  0.00  0.00    +0.000 A 
ENDBRANCH  17  23
BRANCH  17  25
ATOM     25  C   UNL     1       6.796   4.853  18.404  0.00  0.00    +0.000 C 
BRANCH  25  26
ATOM     26  N   UNL     1       7.669   5.696  19.283  0.00  0.00    +0.000 N 
ATOM     27  O   UNL     1       7.829   5.355  20.460  0.00  0.00    +0.000 OA
ATOM     28  O   UNL     1       8.134   6.723  18.768  0.00  0.00    +0.000 OA
ENDBRANCH  25  26
ENDBRANCH  17  25
ENDBRANCH   1  17
TORSDOF 5
ENDMDL
MODEL 3
REMARK VINA RESULT:      -8.3      0.120      1.105
REMARK  Name = 
REMARK  6 active torsions:
REMARK  status: ('A' for Active; 'I' for Inactive)
REMARK    1  A    between atoms: C_1  and  C_2
REMARK    2  A    between atoms: C_6  and  C_7
REMARK    3  A    between atoms: C_7  and  C_8
REMARK    4  A    between atoms: C_7  and  C_12
REMARK    5  A    between atoms: C_8  and  N_9
REMARK    6  A    between atoms: C_13  and  C_14
REMARK                            x       y       z     vdW  Elec       q    Type
REMARK                         _______ _______ _______ _____ _____    ______ ____
ROOT
ATOM      1  C   UNL     1       5.668   4.851  16.139  0.00  0.00    +0.000 A 
ATOM      2  C   UNL     1       4.616   3.920  16.078  0.00  0.00    +0.000 A 
ATOM      3  N   UNL     1       4.593   3.443  14.779  0.00  0.00    +0.000 N 
ATOM      4  C   UNL     1       5.629   3.932  14.036  0.00  0.00    +0.000 A 
ATOM      5  C   UNL     1       6.013   3.630  12.719  0.00  0.00    +0.000 A 
ATOM      6  C   UNL     1       7.151   4.255  12.208  0.00  0.00    +0.000 A 
ATOM      7  C   UNL     1       7.864   5.169  12.972  0.00  0.00    +0.000 A 
ATOM      8  C   UNL     1       7.440   5.480  14.269  0.00  0.00    +0.000 A 
ATOM      9  C   UNL     1       6.317   4.837  14.834  0.00  0.00    +0.000 A 
ATOM     10  H   UNL     1       3.920   2.774  14.431  0.00  0.00    +0.000 HD
ENDROOT
BRANCH   2  11
ATOM     11  C   UNL     1       3.668   3.398  17.085  0.00  0.00    +0.000 A 
ATOM     12  C   UNL     1       4.016   2.386  17.985  0.00  0.00    +0.000 A 
ATOM     13  C   UNL     1       3.071   1.810  18.841  0.00  0.00    +0.000 A 
ATOM     14  C   UNL     1       1.759   2.265  18.838  0.00  0.00    +0.000 A 
ATOM     15  C   UNL     1       1.402   3.317  18.002  0.00  0.00    +0.000 A 
ATOM     16  C   UNL     1       2.347   3.878  17.135  0.00  0.00    +0.000 A 
ENDBRANCH   2  11
BRANCH   1  17
ATOM     17  C   UNL     1       6.047   5.708  17.359  0.00  0.00    +0.000 C 
BRANCH  17  23
ATOM     18  C   UNL     1       1.924   8.655  17.656  0.00  0.00    +0.000 C 
ATOM     19  C   UNL     1       2.750   7.543  18.234  0.00  0.00    +0.000 A 
ATOM     20  C   UNL     1       2.436   6.954  19.457  0.00  0.00    +0.000 A 
ATOM     21  C   UNL     1       3.247   5.946  19.977  0.00  0.00    +0.000 A 
ATOM     22  C   UNL     1       4.386   5.525  19.283  0.00  0.00    +0.000 A 
ATOM     23  C   UNL     1       4.753   6.126  18.065  0.00  0.00    +0.000 A 
ATOM     24  C   UNL     1       3.898   7.120  17.547  0.00  0.00    +0.000 A 
ENDBRANCH  17  23
BRANCH  17  25
ATOM     25  C   UNL     1       7.066   4.926  18.199  0.00  0.00    +0.000 C 
BRANCH  25  26
ATOM     26  N   UNL     1       7.754   5.813  19.193  0.00  0.00    +0.000 N 
ATOM     27  O   UNL     1       8.252   6.872  18.794  0.00  0.00    +0.000 OA
ATOM     28  O   UNL     1       7.820   5.385  20.353  0.00  0.00    +0.000 OA
ENDBRANCH  25  26
ENDBRANCH  17  25
ENDBRANCH   1  17
TORSDOF 5
ENDMDL
MODEL 4
REMARK VINA RESULT:      -8.3      0.361      1.685
REMARK  Name = 
REMARK  6 active torsions:
REMARK  status: ('A' for Active; 'I' for Inactive)
REMARK    1  A    between atoms: C_1  and  C_2
REMARK    2  A    between atoms: C_6  and  C_7
REMARK    3  A    between atoms: C_7  and  C_8
REMARK    4  A    between atoms: C_7  and  C_12
REMARK    5  A    between atoms: C_8  and  N_9
REMARK    6  A    between atoms: C_13  and  C_14
REMARK                            x       y       z     vdW  Elec       q    Type
REMARK                         _______ _______ _______ _____ _____    ______ ____
ROOT
ATOM      1  C   UNL     1       5.680   4.865  16.141  0.00  0.00    +0.000 A 
ATOM      2  C   UNL     1       4.640   3.920  16.084  0.00  0.00    +0.000 A 
ATOM      3  N   UNL     1       4.630   3.430  14.791  0.00  0.00    +0.000 N 
ATOM      4  C   UNL     1       5.664   3.924  14.048  0.00  0.00    +0.000 A 
ATOM      5  C   UNL     1       6.059   3.613  12.736  0.00  0.00    +0.000 A 
ATOM      6  C   UNL     1       7.191   4.248  12.225  0.00  0.00    +0.000 A 
ATOM      7  C   UNL     1       7.889   5.178  12.983  0.00  0.00    +0.000 A 
ATOM      8  C   UNL     1       7.454   5.497  14.275  0.00  0.00    +0.000 A 
ATOM      9  C   UNL     1       6.336   4.846  14.840  0.00  0.00    +0.000 A 
ATOM     10  H   UNL     1       3.968   2.748  14.445  0.00  0.00    +0.000 HD
ENDROOT
BRANCH   2  11
ATOM     11  C   UNL     1       3.693   3.396  17.092  0.00  0.00    +0.000 A 
ATOM     12  C   UNL     1       4.062   2.431  18.034  0.00  0.00    +0.000 A 
ATOM     13  C   UNL     1       3.124   1.848  18.891  0.00  0.00    +0.000 A 
ATOM     14  C   UNL     1       1.795   2.250  18.848  0.00  0.00    +0.000 A 
ATOM     15  C   UNL     1       1.414   3.258  17.969  0.00  0.00    +0.000 A 
ATOM     16  C   UNL     1       2.354   3.825  17.100  0.00  0.00    +0.000 A 
ENDBRANCH   2  11
BRANCH   1  17
ATOM     17  C   UNL     1       6.041   5.740  17.355  0.00  0.00    +0.000 C 
BRANCH  17  23
ATOM     18  C   UNL     1       2.306   5.623  20.790  0.00  0.00    +0.000 C 
ATOM     19  C   UNL     1       2.918   6.271  19.582  0.00  0.00    +0.000 A 
ATOM     20  C   UNL     1       2.279   7.304  18.900  0.00  0.00    +0.000 A 
ATOM     21  C   UNL     1       2.864   7.858  17.763  0.00  0.00    +0.000 A 
ATOM     22  C   UNL     1       4.089   7.376  17.290  0.00  0.00    +0.000 A 
ATOM     23  C   UNL     1       4.741   6.308  17.933  0.00  0.00    +0.000 A 
ATOM     24  C   UNL     1       4.143   5.788  19.099  0.00  0.00    +0.000 A 
ENDBRANCH  17  23
BRANCH  17  25
ATOM     25  C   UNL     1       6.911   4.907  18.307  0.00  0.00    +0.000 C 
BRANCH  25  26
ATOM     26  N   UNL     1       7.695   5.780  19.238  0.00  0.00    +0.000 N 
ATOM     27  O   UNL     1       8.197   6.819  18.793  0.00  0.00    +0.000 OA
ATOM     28  O   UNL     1       7.830   5.361  20.396  0.00  0.00    +0.000 OA
ENDBRANCH  25  26
ENDBRANCH  17  25
ENDBRANCH   1  17
TORSDOF 5
ENDMDL
MODEL 5
REMARK VINA RESULT:      -7.9      2.852      6.014
REMARK  Name = 
REMARK  6 active torsions:
REMARK  status: ('A' for Active; 'I' for Inactive)
REMARK    1  A    between atoms: C_1  and  C_2
REMARK    2  A    between atoms: C_6  and  C_7
REMARK    3  A    between atoms: C_7  and  C_8
REMARK    4  A    between atoms: C_7  and  C_12
REMARK    5  A    between atoms: C_8  and  N_9
REMARK    6  A    between atoms: C_13  and  C_14
REMARK                            x       y       z     vdW  Elec       q    Type
REMARK                         _______ _______ _______ _____ _____    ______ ____
ROOT
ATOM      1  C   UNL     1       3.366   5.387  18.840  0.00  0.00    +0.000 A 
ATOM      2  C   UNL     1       2.471   6.294  19.435  0.00  0.00    +0.000 A 
ATOM      3  N   UNL     1       1.868   5.617  20.480  0.00  0.00    +0.000 N 
ATOM      4  C   UNL     1       2.398   4.370  20.655  0.00  0.00    +0.000 A 
ATOM      5  C   UNL     1       2.134   3.411  21.647  0.00  0.00    +0.000 A 
ATOM      6  C   UNL     1       2.854   2.217  21.612  0.00  0.00    +0.000 A 
ATOM      7  C   UNL     1       3.784   1.975  20.610  0.00  0.00    +0.000 A 
ATOM      8  C   UNL     1       4.003   2.932  19.612  0.00  0.00    +0.000 A 
ATOM      9  C   UNL     1       3.322   4.169  19.638  0.00  0.00    +0.000 A 
ATOM     10  H   UNL     1       1.155   6.011  21.078  0.00  0.00    +0.000 HD
ENDROOT
BRANCH   2  11
ATOM     11  C   UNL     1       2.145   7.712  19.174  0.00  0.00    +0.000 A 
ATOM     12  C   UNL     1       1.458   8.504  20.099  0.00  0.00    +0.000 A 
ATOM     13  C   UNL     1       1.040   9.801  19.786  0.00  0.00    +0.000 A 
ATOM     14  C   UNL     1       1.337  10.349  18.544  0.00  0.00    +0.000 A 
ATOM     15  C   UNL     1       2.080   9.608  17.631  0.00  0.00    +0.000 A 
ATOM     16  C   UNL     1       2.479   8.304  17.942  0.00  0.00    +0.000 A 
ENDBRANCH   2  11
BRANCH   1  17
ATOM     17  C   UNL     1       4.220   5.651  17.587  0.00  0.00    +0.000 C 
BRANCH  17  23
ATOM     18  C   UNL     1       8.078   8.948  17.484  0.00  0.00    +0.000 C 
ATOM     19  C   UNL     1       7.499   7.668  18.011  0.00  0.00    +0.000 A 
ATOM     20  C   UNL     1       8.237   6.806  18.819  0.00  0.00    +0.000 A 
ATOM     21  C   UNL     1       7.675   5.610  19.263  0.00  0.00    +0.000 A 
ATOM     22  C   UNL     1       6.372   5.259  18.893  0.00  0.00    +0.000 A 
ATOM     23  C   UNL     1       5.614   6.089  18.046  0.00  0.00    +0.000 A 
ATOM     24  C   UNL     1       6.196   7.307  17.639  0.00  0.00    +0.000 A 
ENDBRANCH  17  23
BRANCH  17  25
ATOM     25  C   UNL     1       4.151   4.409  16.687  0.00  0.00    +0.000 C 
BRANCH  25  26
ATOM     26  N   UNL     1       5.231   4.424  15.648  0.00  0.00    +0.000 N 
ATOM     27  O   UNL     1       6.082   3.527  15.667  0.00  0.00    +0.000 OA
ATOM     28  O   UNL     1       5.221   5.382  14.864  0.00  0.00    +0.000 OA
ENDBRANCH  25  26
ENDBRANCH  17  25
ENDBRANCH   1  17
TORSDOF 5
ENDMDL
MODEL 6
REMARK VINA RESULT:      -7.7      2.791      6.131
REMARK  Name = 
REMARK  6 active torsions:
REMARK  status: ('A' for Active; 'I' for Inactive)
REMARK    1  A    between atoms: C_1  and  C_2
REMARK    2  A    between atoms: C_6  and  C_7
REMARK    3  A    between atoms: C_7  and  C_8
REMARK    4  A    between atoms: C_7  and  C_12
REMARK    5  A    between atoms: C_8  and  N_9
REMARK    6  A    between atoms: C_13  and  C_14
REMARK                            x       y       z     vdW  Elec       q    Type
REMARK                         _______ _______ _______ _____ _____    ______ ____
ROOT
ATOM      1  C   UNL     1       3.392   5.388  18.731  0.00  0.00    +0.000 A 
ATOM      2  C   UNL     1       2.541   6.298  19.384  0.00  0.00    +0.000 A 
ATOM      3  N   UNL     1       2.014   5.626  20.472  0.00  0.00    +0.000 N 
ATOM      4  C   UNL     1       2.555   4.380  20.615  0.00  0.00    +0.000 A 
ATOM      5  C   UNL     1       2.361   3.425  21.627  0.00  0.00    +0.000 A 
ATOM      6  C   UNL     1       3.076   2.230  21.546  0.00  0.00    +0.000 A 
ATOM      7  C   UNL     1       3.932   1.984  20.481  0.00  0.00    +0.000 A 
ATOM      8  C   UNL     1       4.080   2.936  19.467  0.00  0.00    +0.000 A 
ATOM      9  C   UNL     1       3.403   4.173  19.536  0.00  0.00    +0.000 A 
ATOM     10  H   UNL     1       1.346   6.024  21.118  0.00  0.00    +0.000 HD
ENDROOT
BRANCH   2  11
ATOM     11  C   UNL     1       2.199   7.716  19.141  0.00  0.00    +0.000 A 
ATOM     12  C   UNL     1       1.492   8.484  20.071  0.00  0.00    +0.000 A 
ATOM     13  C   UNL     1       1.059   9.780  19.773  0.00  0.00    +0.000 A 
ATOM     14  C   UNL     1       1.361  10.350  18.543  0.00  0.00    +0.000 A 
ATOM     15  C   UNL     1       2.123   9.634  17.626  0.00  0.00    +0.000 A 
ATOM     16  C   UNL     1       2.538   8.330  17.922  0.00  0.00    +0.000 A 
ENDBRANCH   2  11
BRANCH   1  17
ATOM     17  C   UNL     1       4.155   5.646  17.419  0.00  0.00    +0.000 C 
BRANCH  17  23
ATOM     18  C   UNL     1       8.375   5.318  20.221  0.00  0.00    +0.000 C 
ATOM     19  C   UNL     1       7.614   6.003  19.122  0.00  0.00    +0.000 A 
ATOM     20  C   UNL     1       8.102   7.146  18.494  0.00  0.00    +0.000 A 
ATOM     21  C   UNL     1       7.351   7.773  17.501  0.00  0.00    +0.000 A 
ATOM     22  C   UNL     1       6.099   7.267  17.134  0.00  0.00    +0.000 A 
ATOM     23  C   UNL     1       5.561   6.138  17.777  0.00  0.00    +0.000 A 
ATOM     24  C   UNL     1       6.355   5.506  18.755  0.00  0.00    +0.000 A 
ENDBRANCH  17  23
BRANCH  17  25
ATOM     25  C   UNL     1       4.067   4.381  16.555  0.00  0.00    +0.000 C 
BRANCH  25  26
ATOM     26  N   UNL     1       5.202   4.303  15.580  0.00  0.00    +0.000 N 
ATOM     27  O   UNL     1       5.187   5.048  14.594  0.00  0.00    +0.000 OA
ATOM     28  O   UNL     1       6.063   3.443  15.811  0.00  0.00    +0.000 OA
ENDBRANCH  25  26
ENDBRANCH  17  25
ENDBRANCH   1  17
TORSDOF 5
ENDMDL
MODEL 7
REMARK VINA RESULT:      -7.5      2.485      5.506
REMARK  Name = 
REMARK  6 active torsions:
REMARK  status: ('A' for Active; 'I' for Inactive)
REMARK    1  A    between atoms: C_1  and  C_2
REMARK    2  A    between atoms: C_6  and  C_7
REMARK    3  A    between atoms: C_7  and  C_8
REMARK    4  A    between atoms: C_7  and  C_12
REMARK    5  A    between atoms: C_8  and  N_9
REMARK    6  A    between atoms: C_13  and  C_14
REMARK                            x       y       z     vdW  Elec       q    Type
REMARK                         _______ _______ _______ _____ _____    ______ ____
ROOT
ATOM      1  C   UNL     1       3.484   5.152  17.802  0.00  0.00    +0.000 A 
ATOM      2  C   UNL     1       2.544   5.896  18.538  0.00  0.00    +0.000 A 
ATOM      3  N   UNL     1       1.795   4.979  19.253  0.00  0.00    +0.000 N 
ATOM      4  C   UNL     1       2.265   3.705  19.102  0.00  0.00    +0.000 A 
ATOM      5  C   UNL     1       1.851   2.513  19.719  0.00  0.00    +0.000 A 
ATOM      6  C   UNL     1       2.537   1.340  19.407  0.00  0.00    +0.000 A 
ATOM      7  C   UNL     1       3.580   1.349  18.491  0.00  0.00    +0.000 A 
ATOM      8  C   UNL     1       3.950   2.543  17.862  0.00  0.00    +0.000 A 
ATOM      9  C   UNL     1       3.305   3.757  18.183  0.00  0.00    +0.000 A 
ATOM     10  H   UNL     1       1.022   5.222  19.857  0.00  0.00    +0.000 HD
ENDROOT
BRANCH   2  11
ATOM     11  C   UNL     1       2.292   7.346  18.684  0.00  0.00    +0.000 A 
ATOM     12  C   UNL     1       1.787   7.901  19.863  0.00  0.00    +0.000 A 
ATOM     13  C   UNL     1       1.428   9.251  19.941  0.00  0.00    +0.000 A 
ATOM     14  C   UNL     1       1.606  10.085  18.844  0.00  0.00    +0.000 A 
ATOM     15  C   UNL     1       2.172   9.573  17.682  0.00  0.00    +0.000 A 
ATOM     16  C   UNL     1       2.512   8.218  17.602  0.00  0.00    +0.000 A 
ENDBRANCH   2  11
BRANCH   1  17
ATOM     17  C   UNL     1       4.497   5.721  16.793  0.00  0.00    +0.000 C 
BRANCH  17  23
ATOM     18  C   UNL     1       8.243   9.006  17.764  0.00  0.00    +0.000 C 
ATOM     19  C   UNL     1       7.589   7.686  18.049  0.00  0.00    +0.000 A 
ATOM     20  C   UNL     1       8.163   6.754  18.911  0.00  0.00    +0.000 A 
ATOM     21  C   UNL     1       7.542   5.524  19.125  0.00  0.00    +0.000 A 
ATOM     22  C   UNL     1       6.347   5.210  18.470  0.00  0.00    +0.000 A 
ATOM     23  C   UNL     1       5.763   6.114  17.563  0.00  0.00    +0.000 A 
ATOM     24  C   UNL     1       6.394   7.362  17.390  0.00  0.00    +0.000 A 
ENDBRANCH  17  23
BRANCH  17  25
ATOM     25  C   UNL     1       4.671   4.702  15.659  0.00  0.00    +0.000 C 
BRANCH  25  26
ATOM     26  N   UNL     1       6.013   4.833  15.004  0.00  0.00    +0.000 N 
ATOM     27  O   UNL     1       6.263   5.863  14.368  0.00  0.00    +0.000 OA
ATOM     28  O   UNL     1       6.767   3.856  15.107  0.00  0.00    +0.000 OA
ENDBRANCH  25  26
ENDBRANCH  17  25
ENDBRANCH   1  17
TORSDOF 5
ENDMDL
MODEL 8
REMARK VINA RESULT:      -7.0      8.472     11.907
REMARK  Name = 
REMARK  6 active torsions:
REMARK  status: ('A' for Active; 'I' for Inactive)
REMARK    1  A    between atoms: C_1  and  C_2
REMARK    2  A    between atoms: C_6  and  C_7
REMARK    3  A    between atoms: C_7  and  C_8
REMARK    4  A    between atoms: C_7  and  C_12
REMARK    5  A    between atoms: C_8  and  N_9
REMARK    6  A    between atoms: C_13  and  C_14
REMARK                            x       y       z     vdW  Elec       q    Type
REMARK                         _______ _______ _______ _____ _____    ______ ____
ROOT
ATOM      1  C   UNL     1      -1.806  12.083  20.849  0.00  0.00    +0.000 A 
ATOM      2  C   UNL     1      -3.027  12.777  20.772  0.00  0.00    +0.000 A 
ATOM      3  N   UNL     1      -3.507  12.578  19.491  0.00  0.00    +0.000 N 
ATOM      4  C   UNL     1      -2.724  11.715  18.778  0.00  0.00    +0.000 A 
ATOM      5  C   UNL     1      -2.908  11.186  17.490  0.00  0.00    +0.000 A 
ATOM      6  C   UNL     1      -1.959  10.283  17.010  0.00  0.00    +0.000 A 
ATOM      7  C   UNL     1      -0.851   9.942  17.775  0.00  0.00    +0.000 A 
ATOM      8  C   UNL     1      -0.672  10.511  19.041  0.00  0.00    +0.000 A 
ATOM      9  C   UNL     1      -1.632  11.397  19.575  0.00  0.00    +0.000 A 
ATOM     10  H   UNL     1      -4.363  12.981  19.135  0.00  0.00    +0.000 HD
ENDROOT
BRANCH   2  11
ATOM     11  C   UNL     1      -3.809  13.559  21.753  0.00  0.00    +0.000 A 
ATOM     12  C   UNL     1      -4.508  12.957  22.803  0.00  0.00    +0.000 A 
ATOM     13  C   UNL     1      -5.351  13.694  23.641  0.00  0.00    +0.000 A 
ATOM     14  C   UNL     1      -5.481  15.066  23.466  0.00  0.00    +0.000 A 
ATOM     15  C   UNL     1      -4.743  15.702  22.474  0.00  0.00    +0.000 A 
ATOM     16  C   UNL     1      -3.916  14.956  21.626  0.00  0.00    +0.000 A 
ENDBRANCH   2  11
BRANCH   1  17
ATOM     17  C   UNL     1      -0.851  12.065  22.057  0.00  0.00    +0.000 C 
BRANCH  17  23
ATOM     18  C   UNL     1      -1.935  15.532  25.603  0.00  0.00    +0.000 C 
ATOM     19  C   UNL     1      -1.264  15.192  24.303  0.00  0.00    +0.000 A 
ATOM     20  C   UNL     1      -0.646  16.164  23.520  0.00  0.00    +0.000 A 
ATOM     21  C   UNL     1      -0.062  15.815  22.303  0.00  0.00    +0.000 A 
ATOM     22  C   UNL     1      -0.100  14.491  21.854  0.00  0.00    +0.000 A 
ATOM     23  C   UNL     1      -0.750  13.493  22.603  0.00  0.00    +0.000 A 
ATOM     24  C   UNL     1      -1.303  13.868  23.843  0.00  0.00    +0.000 A 
ENDBRANCH  17  23
BRANCH  17  25
ATOM     25  C   UNL     1      -1.335  10.987  23.036  0.00  0.00    +0.000 C 
BRANCH  25  26
ATOM     26  N   UNL     1      -0.446   9.781  23.009  0.00  0.00    +0.000 N 
ATOM     27  O   UNL     1      -0.700   8.878  22.204  0.00  0.00    +0.000 OA
ATOM     28  O   UNL     1       0.465   9.755  23.848  0.00  0.00    +0.000 OA
ENDBRANCH  25  26
ENDBRANCH  17  25
ENDBRANCH   1  17
TORSDOF 5
ENDMDL
MODEL 9
REMARK VINA RESULT:      -7.0      1.246      4.867
REMARK  Name = 
REMARK  6 active torsions:
REMARK  status: ('A' for Active; 'I' for Inactive)
REMARK    1  A    between atoms: C_1  and  C_2
REMARK    2  A    between atoms: C_6  and  C_7
REMARK    3  A    between atoms: C_7  and  C_8
REMARK    4  A    between atoms: C_7  and  C_12
REMARK    5  A    between atoms: C_8  and  N_9
REMARK    6  A    between atoms: C_13  and  C_14
REMARK                            x       y       z     vdW  Elec       q    Type
REMARK                         _______ _______ _______ _____ _____    ______ ____
ROOT
ATOM      1  C   UNL     1       3.961   4.657  17.855  0.00  0.00    +0.000 A 
ATOM      2  C   UNL     1       4.311   3.849  16.758  0.00  0.00    +0.000 A 
ATOM      3  N   UNL     1       3.502   2.729  16.827  0.00  0.00    +0.000 N 
ATOM      4  C   UNL     1       2.587   2.819  17.836  0.00  0.00    +0.000 A 
ATOM      5  C   UNL     1       1.539   1.950  18.182  0.00  0.00    +0.000 A 
ATOM      6  C   UNL     1       0.717   2.306  19.251  0.00  0.00    +0.000 A 
ATOM      7  C   UNL     1       0.949   3.472  19.968  0.00  0.00    +0.000 A 
ATOM      8  C   UNL     1       2.021   4.303  19.627  0.00  0.00    +0.000 A 
ATOM      9  C   UNL     1       2.849   3.996  18.525  0.00  0.00    +0.000 A 
ATOM     10  H   UNL     1       3.546   1.954  16.178  0.00  0.00    +0.000 HD
ENDROOT
BRANCH   2  11
ATOM     11  C   UNL     1       5.269   4.015  15.644  0.00  0.00    +0.000 A 
ATOM     12  C   UNL     1       6.548   4.547  15.832  0.00  0.00    +0.000 A 
ATOM     13  C   UNL     1       7.393   4.823  14.751  0.00  0.00    +0.000 A 
ATOM     14  C   UNL     1       6.984   4.533  13.455  0.00  0.00    +0.000 A 
ATOM     15  C   UNL     1       5.744   3.939  13.246  0.00  0.00    +0.000 A 
ATOM     16  C   UNL     1       4.896   3.682  14.330  0.00  0.00    +0.000 A 
ENDBRANCH   2  11
BRANCH   1  17
ATOM     17  C   UNL     1       4.636   5.981  18.253  0.00  0.00    +0.000 C 
BRANCH  17  23
ATOM     18  C   UNL     1       1.108   8.081  21.237  0.00  0.00    +0.000 C 
ATOM     19  C   UNL     1       1.819   8.053  19.915  0.00  0.00    +0.000 A 
ATOM     20  C   UNL     1       1.431   8.871  18.856  0.00  0.00    +0.000 A 
ATOM     21  C   UNL     1       2.095   8.793  17.633  0.00  0.00    +0.000 A 
ATOM     22  C   UNL     1       3.147   7.888  17.454  0.00  0.00    +0.000 A 
ATOM     23  C   UNL     1       3.537   7.021  18.492  0.00  0.00    +0.000 A 
ATOM     24  C   UNL     1       2.869   7.144  19.727  0.00  0.00    +0.000 A 
ENDBRANCH  17  23
BRANCH  17  25
ATOM     25  C   UNL     1       5.587   5.704  19.426  0.00  0.00    +0.000 C 
BRANCH  25  26
ATOM     26  N   UNL     1       7.019   5.897  19.030  0.00  0.00    +0.000 N 
ATOM     27  O   UNL     1       7.288   6.763  18.190  0.00  0.00    +0.000 OA
ATOM     28  O   UNL     1       7.837   5.123  19.544  0.00  0.00    +0.000 OA
ENDBRANCH  25  26
ENDBRANCH  17  25
ENDBRANCH   1  17
TORSDOF 5
ENDMDL
