MODEL 1
REMARK VINA RESULT:      -8.5      0.000      0.000
REMARK  Name = 
REMARK  7 active torsions:
REMARK  status: ('A' for Active; 'I' for Inactive)
REMARK    1  A    between atoms: C_1  and  C_2
REMARK    2  A    between atoms: C_2  and  C_3
REMARK    3  A    between atoms: C_2  and  N_6
REMARK    4  A    between atoms: C_3  and  C_4
REMARK    5  A    between atoms: C_4  and  O_5
REMARK    6  A    between atoms: C_10  and  C_11
REMARK    7  A    between atoms: C_15  and  N_16
REMARK                            x       y       z     vdW  Elec       q    Type
REMARK                         _______ _______ _______ _____ _____    ______ ____
ROOT
ATOM      1  C   UNL     1       4.359   5.082  19.367  0.00  0.00    +0.000 A 
ATOM      2  C   UNL     1       3.728   3.898  19.725  0.00  0.00    +0.000 A 
ATOM      3  C   UNL     1       2.390   3.942  20.082  0.00  0.00    +0.000 A 
ATOM      4  C   UNL     1       1.739   5.171  20.104  0.00  0.00    +0.000 A 
ATOM      5  C   UNL     1       2.443   6.334  19.785  0.00  0.00    +0.000 A 
ATOM      6  N   UNL     1       3.736   6.282  19.396  0.00  0.00    +0.000 NA
ENDROOT
BRANCH   5   7
ATOM      7  N   UNL     1       1.811   7.591  19.889  0.00  0.00    +0.000 N 
ATOM      8  C   UNL     1       1.236   8.088  21.126  0.00  0.00    +0.000 C 
ATOM      9  C   UNL     1       0.801   9.469  20.774  0.00  0.00    +0.000 A 
ATOM     10  C   UNL     1       0.200  10.436  21.561  0.00  0.00    +0.000 A 
ATOM     11  C   UNL     1      -0.092  11.671  20.975  0.00  0.00    +0.000 A 
ATOM     12  C   UNL     1       0.216  11.922  19.624  0.00  0.00    +0.000 A 
ATOM     13  C   UNL     1       0.820  10.940  18.839  0.00  0.00    +0.000 A 
ATOM     14  C   UNL     1       1.098   9.725  19.438  0.00  0.00    +0.000 A 
ATOM     15  C   UNL     1       1.733   8.530  18.862  0.00  0.00    +0.000 C 
ATOM     16  O   UNL     1       2.084   8.486  17.697  0.00  0.00    +0.000 OA
ENDBRANCH   5   7
BRANCH   1  21
ATOM     17  N   UNL     1       6.277   4.901  17.679  0.00  0.00    +0.000 N 
ATOM     18  C   UNL     1       7.639   4.926  17.844  0.00  0.00    +0.000 A 
ATOM     19  N   UNL     1       7.945   5.042  19.111  0.00  0.00    +0.000 NA
ATOM     20  N   UNL     1       6.773   5.108  19.805  0.00  0.00    +0.000 NA
ATOM     21  C   UNL     1       5.761   5.058  18.953  0.00  0.00    +0.000 A 
BRANCH  17  23
ATOM     22  C   UNL     1       5.123   6.125  15.812  0.00  0.00    +0.000 C 
ATOM     23  C   UNL     1       5.572   4.773  16.404  0.00  0.00    +0.000 C 
BRANCH  23  24
ATOM     24  C   UNL     1       6.334   3.972  15.324  0.00  0.00    +0.000 C 
BRANCH  24  25
ATOM     25  C   UNL     1       6.733   4.753  14.078  0.00  0.00    +0.000 C 
BRANCH  25  26
ATOM     26  O   UNL     1       7.946   5.456  14.332  0.00  0.00    +0.000 OA
ATOM     27  H   UNL     1       8.518   4.877  14.866  0.00  0.00    +0.000 HD
ENDBRANCH  25  26
ENDBRANCH  24  25
ENDBRANCH  23  24
ENDBRANCH  17  23
ENDBRANCH   1  21
TORSDOF 6
ENDMDL
MODEL 2
REMARK VINA RESULT:      -8.1      0.927      1.484
REMARK  Name = 
REMARK  7 active torsions:
REMARK  status: ('A' for Active; 'I' for Inactive)
REMARK    1  A    between atoms: C_1  and  C_2
REMARK    2  A    between atoms: C_2  and  C_3
REMARK    3  A    between atoms: C_2  and  N_6
REMARK    4  A    between atoms: C_3  and  C_4
REMARK    5  A    between atoms: C_4  and  O_5
REMARK    6  A    between atoms: C_10  and  C_11
REMARK    7  A    between atoms: C_15  and  N_16
REMARK                            x       y       z     vdW  Elec       q    Type
REMARK                         _______ _______ _______ _____ _____    ______ ____
ROOT
ATOM      1  C   UNL     1       4.324   5.221  19.358  0.00  0.00    +0.000 A 
ATOM      2  C   UNL     1       3.649   4.093  19.805  0.00  0.00    +0.000 A 
ATOM      3  C   UNL     1       2.316   4.215  20.161  0.00  0.00    +0.000 A 
ATOM      4  C   UNL     1       1.713   5.467  20.096  0.00  0.00    +0.000 A 
ATOM      5  C   UNL     1       2.460   6.575  19.689  0.00  0.00    +0.000 A 
ATOM      6  N   UNL     1       3.748   6.444  19.300  0.00  0.00    +0.000 NA
ENDROOT
BRANCH   5   7
ATOM      7  N   UNL     1       1.878   7.860  19.703  0.00  0.00    +0.000 N 
ATOM      8  C   UNL     1       1.730   8.675  18.510  0.00  0.00    +0.000 C 
ATOM      9  C   UNL     1       0.975   9.863  18.996  0.00  0.00    +0.000 A 
ATOM     10  C   UNL     1       0.527  10.973  18.301  0.00  0.00    +0.000 A 
ATOM     11  C   UNL     1      -0.182  11.949  19.007  0.00  0.00    +0.000 A 
ATOM     12  C   UNL     1      -0.432  11.807  20.385  0.00  0.00    +0.000 A 
ATOM     13  C   UNL     1       0.026  10.685  21.078  0.00  0.00    +0.000 A 
ATOM     14  C   UNL     1       0.727   9.733  20.360  0.00  0.00    +0.000 A 
ATOM     15  C   UNL     1       1.307   8.464  20.822  0.00  0.00    +0.000 C 
ATOM     16  O   UNL     1       1.240   8.110  21.985  0.00  0.00    +0.000 OA
ENDBRANCH   5   7
BRANCH   1  21
ATOM     17  N   UNL     1       6.224   4.885  17.673  0.00  0.00    +0.000 N 
ATOM     18  C   UNL     1       7.586   4.847  17.834  0.00  0.00    +0.000 A 
ATOM     19  N   UNL     1       7.902   4.993  19.096  0.00  0.00    +0.000 NA
ATOM     20  N   UNL     1       6.738   5.142  19.790  0.00  0.00    +0.000 NA
ATOM     21  C   UNL     1       5.721   5.113  18.942  0.00  0.00    +0.000 A 
BRANCH  17  23
ATOM     22  C   UNL     1       5.076   6.097  15.794  0.00  0.00    +0.000 C 
ATOM     23  C   UNL     1       5.508   4.747  16.406  0.00  0.00    +0.000 C 
BRANCH  23  24
ATOM     24  C   UNL     1       6.250   3.917  15.334  0.00  0.00    +0.000 C 
BRANCH  24  25
ATOM     25  C   UNL     1       6.679   4.678  14.086  0.00  0.00    +0.000 C 
BRANCH  25  26
ATOM     26  O   UNL     1       7.895   5.372  14.352  0.00  0.00    +0.000 OA
ATOM     27  H   UNL     1       7.679   6.314  14.462  0.00  0.00    +0.000 HD
ENDBRANCH  25  26
ENDBRANCH  24  25
ENDBRANCH  23  24
ENDBRANCH  17  23
ENDBRANCH   1  21
TORSDOF 6
ENDMDL
MODEL 3
REMARK VINA RESULT:      -8.0      2.751      4.255
REMARK  Name = 
REMARK  7 active torsions:
REMARK  status: ('A' for Active; 'I' for Inactive)
REMARK    1  A    between atoms: C_1  and  C_2
REMARK    2  A    between atoms: C_2  and  C_3
REMARK    3  A    between atoms: C_2  and  N_6
REMARK    4  A    between atoms: C_3  and  C_4
REMARK    5  A    between atoms: C_4  and  O_5
REMARK    6  A    between atoms: C_10  and  C_11
REMARK    7  A    between atoms: C_15  and  N_16
REMARK                            x       y       z     vdW  Elec       q    Type
REMARK                         _______ _______ _______ _____ _____    ______ ____
ROOT
ATOM      1  C   UNL     1       3.564   5.812  18.584  0.00  0.00    +0.000 A 
ATOM      2  C   UNL     1       4.009   6.306  17.365  0.00  0.00    +0.000 A 
ATOM      3  C   UNL     1       3.662   7.598  17.007  0.00  0.00    +0.000 A 
ATOM      4  C   UNL     1       2.851   8.339  17.861  0.00  0.00    +0.000 A 
ATOM      5  C   UNL     1       2.391   7.767  19.049  0.00  0.00    +0.000 A 
ATOM      6  N   UNL     1       2.768   6.522  19.416  0.00  0.00    +0.000 NA
ENDROOT
BRANCH   5   7
ATOM      7  N   UNL     1       1.501   8.482  19.877  0.00  0.00    +0.000 N 
ATOM      8  C   UNL     1       1.259   8.137  21.266  0.00  0.00    +0.000 C 
ATOM      9  C   UNL     1       0.357   9.223  21.740  0.00  0.00    +0.000 A 
ATOM     10  C   UNL     1      -0.194   9.434  22.993  0.00  0.00    +0.000 A 
ATOM     11  C   UNL     1      -1.006  10.558  23.172  0.00  0.00    +0.000 A 
ATOM     12  C   UNL     1      -1.256  11.447  22.110  0.00  0.00    +0.000 A 
ATOM     13  C   UNL     1      -0.698  11.224  20.851  0.00  0.00    +0.000 A 
ATOM     14  C   UNL     1       0.100  10.105  20.695  0.00  0.00    +0.000 A 
ATOM     15  C   UNL     1       0.816   9.637  19.499  0.00  0.00    +0.000 C 
ATOM     16  O   UNL     1       0.752  10.227  18.436  0.00  0.00    +0.000 OA
ENDBRANCH   5   7
BRANCH   1  21
ATOM     17  N   UNL     1       3.124   3.387  19.286  0.00  0.00    +0.000 N 
ATOM     18  C   UNL     1       3.978   2.378  19.652  0.00  0.00    +0.000 A 
ATOM     19  N   UNL     1       5.217   2.799  19.642  0.00  0.00    +0.000 NA
ATOM     20  N   UNL     1       5.197   4.106  19.252  0.00  0.00    +0.000 NA
ATOM     21  C   UNL     1       3.946   4.464  19.002  0.00  0.00    +0.000 A 
BRANCH  17  23
ATOM     22  C   UNL     1       1.182   1.936  18.626  0.00  0.00    +0.000 C 
ATOM     23  C   UNL     1       1.669   3.285  19.194  0.00  0.00    +0.000 C 
BRANCH  23  24
ATOM     24  C   UNL     1       0.918   3.584  20.512  0.00  0.00    +0.000 C 
BRANCH  24  25
ATOM     25  C   UNL     1       1.254   2.675  21.687  0.00  0.00    +0.000 C 
BRANCH  25  26
ATOM     26  O   UNL     1       2.311   3.257  22.445  0.00  0.00    +0.000 OA
ATOM     27  H   UNL     1       1.914   3.707  23.210  0.00  0.00    +0.000 HD
ENDBRANCH  25  26
ENDBRANCH  24  25
ENDBRANCH  23  24
ENDBRANCH  17  23
ENDBRANCH   1  21
TORSDOF 6
ENDMDL
MODEL 4
REMARK VINA RESULT:      -7.7      1.575      1.936
REMARK  Name = 
REMARK  7 active torsions:
REMARK  status: ('A' for Active; 'I' for Inactive)
REMARK    1  A    between atoms: C_1  and  C_2
REMARK    2  A    between atoms: C_2  and  C_3
REMARK    3  A    between atoms: C_2  and  N_6
REMARK    4  A    between atoms: C_3  and  C_4
REMARK    5  A    between atoms: C_4  and  O_5
REMARK    6  A    between atoms: C_10  and  C_11
REMARK    7  A    between atoms: C_15  and  N_16
REMARK                            x       y       z     vdW  Elec       q    Type
REMARK                         _______ _______ _______ _____ _____    ______ ____
ROOT
ATOM      1  C   UNL     1       4.226   5.145  19.582  0.00  0.00    +0.000 A 
ATOM      2  C   UNL     1       3.653   4.050  20.214  0.00  0.00    +0.000 A 
ATOM      3  C   UNL     1       2.372   4.176  20.727  0.00  0.00    +0.000 A 
ATOM      4  C   UNL     1       1.724   5.402  20.625  0.00  0.00    +0.000 A 
ATOM      5  C   UNL     1       2.375   6.483  20.026  0.00  0.00    +0.000 A 
ATOM      6  N   UNL     1       3.606   6.344  19.487  0.00  0.00    +0.000 NA
ENDROOT
BRANCH   5   7
ATOM      7  N   UNL     1       1.755   7.750  19.996  0.00  0.00    +0.000 N 
ATOM      8  C   UNL     1       1.167   8.372  21.169  0.00  0.00    +0.000 C 
ATOM      9  C   UNL     1       0.753   9.715  20.677  0.00  0.00    +0.000 A 
ATOM     10  C   UNL     1       0.151  10.761  21.356  0.00  0.00    +0.000 A 
ATOM     11  C   UNL     1      -0.118  11.936  20.647  0.00  0.00    +0.000 A 
ATOM     12  C   UNL     1       0.213  12.050  19.283  0.00  0.00    +0.000 A 
ATOM     13  C   UNL     1       0.818  10.990  18.608  0.00  0.00    +0.000 A 
ATOM     14  C   UNL     1       1.073   9.837  19.327  0.00  0.00    +0.000 A 
ATOM     15  C   UNL     1       1.704   8.585  18.881  0.00  0.00    +0.000 C 
ATOM     16  O   UNL     1       2.071   8.423  17.732  0.00  0.00    +0.000 OA
ENDBRANCH   5   7
BRANCH   1  21
ATOM     17  N   UNL     1       5.908   4.667  17.710  0.00  0.00    +0.000 N 
ATOM     18  C   UNL     1       7.280   4.688  17.693  0.00  0.00    +0.000 A 
ATOM     19  N   UNL     1       7.748   4.990  18.877  0.00  0.00    +0.000 NA
ATOM     20  N   UNL     1       6.677   5.187  19.697  0.00  0.00    +0.000 NA
ATOM     21  C   UNL     1       5.562   5.028  19.000  0.00  0.00    +0.000 A 
BRANCH  17  23
ATOM     22  C   UNL     1       5.809   4.213  15.240  0.00  0.00    +0.000 C 
ATOM     23  C   UNL     1       5.043   4.361  16.571  0.00  0.00    +0.000 C 
BRANCH  23  24
ATOM     24  C   UNL     1       4.127   3.132  16.771  0.00  0.00    +0.000 C 
BRANCH  24  25
ATOM     25  C   UNL     1       2.645   3.434  16.953  0.00  0.00    +0.000 C 
BRANCH  25  26
ATOM     26  O   UNL     1       2.008   2.315  17.564  0.00  0.00    +0.000 OA
ATOM     27  H   UNL     1       2.345   1.511  17.133  0.00  0.00    +0.000 HD
ENDBRANCH  25  26
ENDBRANCH  24  25
ENDBRANCH  23  24
ENDBRANCH  17  23
ENDBRANCH   1  21
TORSDOF 6
ENDMDL
MODEL 5
REMARK VINA RESULT:      -7.6      1.066      1.285
REMARK  Name = 
REMARK  7 active torsions:
REMARK  status: ('A' for Active; 'I' for Inactive)
REMARK    1  A    between atoms: C_1  and  C_2
REMARK    2  A    between atoms: C_2  and  C_3
REMARK    3  A    between atoms: C_2  and  N_6
REMARK    4  A    between atoms: C_3  and  C_4
REMARK    5  A    between atoms: C_4  and  O_5
REMARK    6  A    between atoms: C_10  and  C_11
REMARK    7  A    between atoms: C_15  and  N_16
REMARK                            x       y       z     vdW  Elec       q    Type
REMARK                         _______ _______ _______ _____ _____    ______ ____
ROOT
ATOM      1  C   UNL     1       4.363   4.986  19.458  0.00  0.00    +0.000 A 
ATOM      2  C   UNL     1       3.750   3.830  19.923  0.00  0.00    +0.000 A 
ATOM      3  C   UNL     1       2.430   3.900  20.337  0.00  0.00    +0.000 A 
ATOM      4  C   UNL     1       1.779   5.129  20.306  0.00  0.00    +0.000 A 
ATOM      5  C   UNL     1       2.466   6.267  19.878  0.00  0.00    +0.000 A 
ATOM      6  N   UNL     1       3.740   6.187  19.434  0.00  0.00    +0.000 NA
ENDROOT
BRANCH   5   7
ATOM      7  N   UNL     1       1.838   7.529  19.925  0.00  0.00    +0.000 N 
ATOM      8  C   UNL     1       1.278   8.089  21.142  0.00  0.00    +0.000 C 
ATOM      9  C   UNL     1       0.842   9.451  20.726  0.00  0.00    +0.000 A 
ATOM     10  C   UNL     1       0.251  10.459  21.470  0.00  0.00    +0.000 A 
ATOM     11  C   UNL     1      -0.045  11.664  20.826  0.00  0.00    +0.000 A 
ATOM     12  C   UNL     1       0.248  11.846  19.461  0.00  0.00    +0.000 A 
ATOM     13  C   UNL     1       0.841  10.823  18.719  0.00  0.00    +0.000 A 
ATOM     14  C   UNL     1       1.123   9.639  19.375  0.00  0.00    +0.000 A 
ATOM     15  C   UNL     1       1.750   8.416  18.853  0.00  0.00    +0.000 C 
ATOM     16  O   UNL     1       2.087   8.312  17.688  0.00  0.00    +0.000 OA
ENDBRANCH   5   7
BRANCH   1  21
ATOM     17  N   UNL     1       6.210   4.549  17.737  0.00  0.00    +0.000 N 
ATOM     18  C   UNL     1       7.575   4.655  17.823  0.00  0.00    +0.000 A 
ATOM     19  N   UNL     1       7.932   5.025  19.026  0.00  0.00    +0.000 NA
ATOM     20  N   UNL     1       6.791   5.183  19.755  0.00  0.00    +0.000 NA
ATOM     21  C   UNL     1       5.745   4.932  18.983  0.00  0.00    +0.000 A 
BRANCH  17  23
ATOM     22  C   UNL     1       4.050   3.601  16.871  0.00  0.00    +0.000 C 
ATOM     23  C   UNL     1       5.455   4.151  16.550  0.00  0.00    +0.000 C 
BRANCH  23  24
ATOM     24  C   UNL     1       5.338   5.245  15.465  0.00  0.00    +0.000 C 
BRANCH  24  25
ATOM     25  C   UNL     1       5.428   6.683  15.960  0.00  0.00    +0.000 C 
BRANCH  25  26
ATOM     26  O   UNL     1       4.220   7.025  16.635  0.00  0.00    +0.000 OA
ATOM     27  H   UNL     1       4.066   6.355  17.323  0.00  0.00    +0.000 HD
ENDBRANCH  25  26
ENDBRANCH  24  25
ENDBRANCH  23  24
ENDBRANCH  17  23
ENDBRANCH   1  21
TORSDOF 6
ENDMDL
MODEL 6
REMARK VINA RESULT:      -7.6      2.190      3.211
REMARK  Name = 
REMARK  7 active torsions:
REMARK  status: ('A' for Active; 'I' for Inactive)
REMARK    1  A    between atoms: C_1  and  C_2
REMARK    2  A    between atoms: C_2  and  C_3
REMARK    3  A    between atoms: C_2  and  N_6
REMARK    4  A    between atoms: C_3  and  C_4
REMARK    5  A    between atoms: C_4  and  O_5
REMARK    6  A    between atoms: C_10  and  C_11
REMARK    7  A    between atoms: C_15  and  N_16
REMARK                            x       y       z     vdW  Elec       q    Type
REMARK                         _______ _______ _______ _____ _____    ______ ____
ROOT
ATOM      1  C   UNL     1       4.435   4.466  16.901  0.00  0.00    +0.000 A 
ATOM      2  C   UNL     1       4.057   3.252  17.460  0.00  0.00    +0.000 A 
ATOM      3  C   UNL     1       3.062   3.247  18.423  0.00  0.00    +0.000 A 
ATOM      4  C   UNL     1       2.504   4.457  18.821  0.00  0.00    +0.000 A 
ATOM      5  C   UNL     1       2.964   5.651  18.259  0.00  0.00    +0.000 A 
ATOM      6  N   UNL     1       3.904   5.648  17.289  0.00  0.00    +0.000 NA
ENDROOT
BRANCH   5   7
ATOM      7  N   UNL     1       2.462   6.885  18.721  0.00  0.00    +0.000 N 
ATOM      8  C   UNL     1       2.374   8.068  17.883  0.00  0.00    +0.000 C 
ATOM      9  C   UNL     1       1.690   9.061  18.757  0.00  0.00    +0.000 A 
ATOM     10  C   UNL     1       1.317  10.367  18.491  0.00  0.00    +0.000 A 
ATOM     11  C   UNL     1       0.664  11.082  19.500  0.00  0.00    +0.000 A 
ATOM     12  C   UNL     1       0.396  10.491  20.749  0.00  0.00    +0.000 A 
ATOM     13  C   UNL     1       0.778   9.174  21.008  0.00  0.00    +0.000 A 
ATOM     14  C   UNL     1       1.424   8.486  19.997  0.00  0.00    +0.000 A 
ATOM     15  C   UNL     1       1.921   7.102  19.988  0.00  0.00    +0.000 C 
ATOM     16  O   UNL     1       1.823   6.376  20.960  0.00  0.00    +0.000 OA
ENDBRANCH   5   7
BRANCH   1  21
ATOM     17  N   UNL     1       6.682   5.142  15.872  0.00  0.00    +0.000 N 
ATOM     18  C   UNL     1       7.238   4.872  14.647  0.00  0.00    +0.000 A 
ATOM     19  N   UNL     1       6.417   4.161  13.917  0.00  0.00    +0.000 NA
ATOM     20  N   UNL     1       5.300   3.939  14.666  0.00  0.00    +0.000 NA
ATOM     21  C   UNL     1       5.458   4.495  15.857  0.00  0.00    +0.000 A 
BRANCH  17  23
ATOM     22  C   UNL     1       6.652   7.299  17.161  0.00  0.00    +0.000 C 
ATOM     23  C   UNL     1       7.305   5.918  16.942  0.00  0.00    +0.000 C 
BRANCH  23  24
ATOM     24  C   UNL     1       7.405   5.181  18.298  0.00  0.00    +0.000 C 
BRANCH  24  25
ATOM     25  C   UNL     1       8.013   5.980  19.443  0.00  0.00    +0.000 C 
BRANCH  25  26
ATOM     26  O   UNL     1       8.001   5.189  20.628  0.00  0.00    +0.000 OA
ATOM     27  H   UNL     1       7.156   5.348  21.082  0.00  0.00    +0.000 HD
ENDBRANCH  25  26
ENDBRANCH  24  25
ENDBRANCH  23  24
ENDBRANCH  17  23
ENDBRANCH   1  21
TORSDOF 6
ENDMDL
MODEL 7
REMARK VINA RESULT:      -7.6      3.010      8.103
REMARK  Name = 
REMARK  7 active torsions:
REMARK  status: ('A' for Active; 'I' for Inactive)
REMARK    1  A    between atoms: C_1  and  C_2
REMARK    2  A    between atoms: C_2  and  C_3
REMARK    3  A    between atoms: C_2  and  N_6
REMARK    4  A    between atoms: C_3  and  C_4
REMARK    5  A    between atoms: C_4  and  O_5
REMARK    6  A    between atoms: C_10  and  C_11
REMARK    7  A    between atoms: C_15  and  N_16
REMARK                            x       y       z     vdW  Elec       q    Type
REMARK                         _______ _______ _______ _____ _____    ______ ____
ROOT
ATOM      1  C   UNL     1       0.781  10.059  19.706  0.00  0.00    +0.000 A 
ATOM      2  C   UNL     1       0.382   9.687  20.983  0.00  0.00    +0.000 A 
ATOM      3  C   UNL     1       0.820   8.474  21.487  0.00  0.00    +0.000 A 
ATOM      4  C   UNL     1       1.611   7.657  20.686  0.00  0.00    +0.000 A 
ATOM      5  C   UNL     1       1.935   8.064  19.390  0.00  0.00    +0.000 A 
ATOM      6  N   UNL     1       1.543   9.267  18.917  0.00  0.00    +0.000 NA
ENDROOT
BRANCH   5   7
ATOM      7  N   UNL     1       2.665   7.202  18.544  0.00  0.00    +0.000 N 
ATOM      8  C   UNL     1       3.660   7.676  17.598  0.00  0.00    +0.000 C 
ATOM      9  C   UNL     1       4.226   6.420  17.033  0.00  0.00    +0.000 A 
ATOM     10  C   UNL     1       5.228   6.243  16.095  0.00  0.00    +0.000 A 
ATOM     11  C   UNL     1       5.582   4.935  15.751  0.00  0.00    +0.000 A 
ATOM     12  C   UNL     1       4.937   3.831  16.341  0.00  0.00    +0.000 A 
ATOM     13  C   UNL     1       3.927   4.020  17.285  0.00  0.00    +0.000 A 
ATOM     14  C   UNL     1       3.591   5.322  17.609  0.00  0.00    +0.000 A 
ATOM     15  C   UNL     1       2.587   5.810  18.566  0.00  0.00    +0.000 C 
ATOM     16  O   UNL     1       1.880   5.050  19.202  0.00  0.00    +0.000 OA
ENDBRANCH   5   7
BRANCH   1  21
ATOM     17  N   UNL     1      -0.840  11.680  18.563  0.00  0.00    +0.000 N 
ATOM     18  C   UNL     1      -0.710  13.000  18.213  0.00  0.00    +0.000 A 
ATOM     19  N   UNL     1       0.482  13.442  18.525  0.00  0.00    +0.000 NA
ATOM     20  N   UNL     1       1.157  12.408  19.104  0.00  0.00    +0.000 NA
ATOM     21  C   UNL     1       0.362  11.350  19.163  0.00  0.00    +0.000 A 
BRANCH  17  23
ATOM     22  C   UNL     1      -3.352  11.607  18.611  0.00  0.00    +0.000 C 
ATOM     23  C   UNL     1      -2.029  10.854  18.358  0.00  0.00    +0.000 C 
BRANCH  23  24
ATOM     24  C   UNL     1      -2.098  10.153  16.982  0.00  0.00    +0.000 C 
BRANCH  24  25
ATOM     25  C   UNL     1      -3.361  10.408  16.171  0.00  0.00    +0.000 C 
BRANCH  25  26
ATOM     26  O   UNL     1      -3.112  11.444  15.224  0.00  0.00    +0.000 OA
ATOM     27  H   UNL     1      -2.151  11.488  15.080  0.00  0.00    +0.000 HD
ENDBRANCH  25  26
ENDBRANCH  24  25
ENDBRANCH  23  24
ENDBRANCH  17  23
ENDBRANCH   1  21
TORSDOF 6
ENDMDL
MODEL 8
REMARK VINA RESULT:      -7.6      1.730      2.456
REMARK  Name = 
REMARK  7 active torsions:
REMARK  status: ('A' for Active; 'I' for Inactive)
REMARK    1  A    between atoms: C_1  and  C_2
REMARK    2  A    between atoms: C_2  and  C_3
REMARK    3  A    between atoms: C_2  and  N_6
REMARK    4  A    between atoms: C_3  and  C_4
REMARK    5  A    between atoms: C_4  and  O_5
REMARK    6  A    between atoms: C_10  and  C_11
REMARK    7  A    between atoms: C_15  and  N_16
REMARK                            x       y       z     vdW  Elec       q    Type
REMARK                         _______ _______ _______ _____ _____    ______ ____
ROOT
ATOM      1  C   UNL     1       3.994   5.029  18.452  0.00  0.00    +0.000 A 
ATOM      2  C   UNL     1       3.738   4.012  19.362  0.00  0.00    +0.000 A 
ATOM      3  C   UNL     1       2.780   4.223  20.340  0.00  0.00    +0.000 A 
ATOM      4  C   UNL     1       2.139   5.456  20.400  0.00  0.00    +0.000 A 
ATOM      5  C   UNL     1       2.479   6.459  19.490  0.00  0.00    +0.000 A 
ATOM      6  N   UNL     1       3.382   6.234  18.509  0.00  0.00    +0.000 NA
ENDROOT
BRANCH   5   7
ATOM      7  N   UNL     1       1.895   7.738  19.599  0.00  0.00    +0.000 N 
ATOM      8  C   UNL     1       1.324   8.244  20.835  0.00  0.00    +0.000 C 
ATOM      9  C   UNL     1       0.946   9.644  20.492  0.00  0.00    +0.000 A 
ATOM     10  C   UNL     1       0.373  10.626  21.282  0.00  0.00    +0.000 A 
ATOM     11  C   UNL     1       0.135  11.877  20.705  0.00  0.00    +0.000 A 
ATOM     12  C   UNL     1       0.468  12.130  19.361  0.00  0.00    +0.000 A 
ATOM     13  C   UNL     1       1.044  11.133  18.573  0.00  0.00    +0.000 A 
ATOM     14  C   UNL     1       1.268   9.902  19.162  0.00  0.00    +0.000 A 
ATOM     15  C   UNL     1       1.865   8.690  18.581  0.00  0.00    +0.000 C 
ATOM     16  O   UNL     1       2.227   8.644  17.420  0.00  0.00    +0.000 OA
ENDBRANCH   5   7
BRANCH   1  21
ATOM     17  N   UNL     1       6.211   5.418  17.229  0.00  0.00    +0.000 N 
ATOM     18  C   UNL     1       6.711   4.894  16.064  0.00  0.00    +0.000 A 
ATOM     19  N   UNL     1       5.845   4.077  15.521  0.00  0.00    +0.000 NA
ATOM     20  N   UNL     1       4.754   4.042  16.339  0.00  0.00    +0.000 NA
ATOM     21  C   UNL     1       4.974   4.819  17.388  0.00  0.00    +0.000 A 
BRANCH  17  23
ATOM     22  C   UNL     1       7.683   5.704  19.247  0.00  0.00    +0.000 C 
ATOM     23  C   UNL     1       6.895   6.373  18.100  0.00  0.00    +0.000 C 
BRANCH  23  24
ATOM     24  C   UNL     1       7.818   7.370  17.364  0.00  0.00    +0.000 C 
BRANCH  24  25
ATOM     25  C   UNL     1       7.850   8.785  17.929  0.00  0.00    +0.000 C 
BRANCH  25  26
ATOM     26  O   UNL     1       8.869   8.872  18.922  0.00  0.00    +0.000 OA
ATOM     27  H   UNL     1       9.573   9.445  18.573  0.00  0.00    +0.000 HD
ENDBRANCH  25  26
ENDBRANCH  24  25
ENDBRANCH  23  24
ENDBRANCH  17  23
ENDBRANCH   1  21
TORSDOF 6
ENDMDL
MODEL 9
REMARK VINA RESULT:      -7.5      1.459      1.872
REMARK  Name = 
REMARK  7 active torsions:
REMARK  status: ('A' for Active; 'I' for Inactive)
REMARK    1  A    between atoms: C_1  and  C_2
REMARK    2  A    between atoms: C_2  and  C_3
REMARK    3  A    between atoms: C_2  and  N_6
REMARK    4  A    between atoms: C_3  and  C_4
REMARK    5  A    between atoms: C_4  and  O_5
REMARK    6  A    between atoms: C_10  and  C_11
REMARK    7  A    between atoms: C_15  and  N_16
REMARK                            x       y       z     vdW  Elec       q    Type
REMARK                         _______ _______ _______ _____ _____    ______ ____
ROOT
ATOM      1  C   UNL     1       4.238   4.916  18.161  0.00  0.00    +0.000 A 
ATOM      2  C   UNL     1       3.403   3.807  18.133  0.00  0.00    +0.000 A 
ATOM      3  C   UNL     1       2.047   3.993  18.350  0.00  0.00    +0.000 A 
ATOM      4  C   UNL     1       1.578   5.273  18.624  0.00  0.00    +0.000 A 
ATOM      5  C   UNL     1       2.476   6.340  18.691  0.00  0.00    +0.000 A 
ATOM      6  N   UNL     1       3.791   6.163  18.436  0.00  0.00    +0.000 NA
ENDROOT
BRANCH   5   7
ATOM      7  N   UNL     1       2.018   7.625  19.053  0.00  0.00    +0.000 N 
ATOM      8  C   UNL     1       1.919   8.725  18.110  0.00  0.00    +0.000 C 
ATOM      9  C   UNL     1       1.291   9.811  18.913  0.00  0.00    +0.000 A 
ATOM     10  C   UNL     1       0.933  11.095  18.539  0.00  0.00    +0.000 A 
ATOM     11  C   UNL     1       0.336  11.917  19.499  0.00  0.00    +0.000 A 
ATOM     12  C   UNL     1       0.106  11.451  20.808  0.00  0.00    +0.000 A 
ATOM     13  C   UNL     1       0.472  10.156  21.175  0.00  0.00    +0.000 A 
ATOM     14  C   UNL     1       1.064   9.361  20.210  0.00  0.00    +0.000 A 
ATOM     15  C   UNL     1       1.532   7.971  20.313  0.00  0.00    +0.000 C 
ATOM     16  O   UNL     1       1.459   7.342  21.353  0.00  0.00    +0.000 OA
ENDBRANCH   5   7
BRANCH   1  21
ATOM     17  N   UNL     1       6.308   4.632  16.679  0.00  0.00    +0.000 N 
ATOM     18  C   UNL     1       7.636   4.478  16.992  0.00  0.00    +0.000 A 
ATOM     19  N   UNL     1       7.801   4.459  18.289  0.00  0.00    +0.000 NA
ATOM     20  N   UNL     1       6.571   4.615  18.857  0.00  0.00    +0.000 NA
ATOM     21  C   UNL     1       5.667   4.753  17.899  0.00  0.00    +0.000 A 
BRANCH  17  23
ATOM     22  C   UNL     1       5.325   6.108  14.899  0.00  0.00    +0.000 C 
ATOM     23  C   UNL     1       5.748   4.688  15.330  0.00  0.00    +0.000 C 
BRANCH  23  24
ATOM     24  C   UNL     1       6.645   4.070  14.234  0.00  0.00    +0.000 C 
BRANCH  24  25
ATOM     25  C   UNL     1       5.965   3.792  12.899  0.00  0.00    +0.000 C 
BRANCH  25  26
ATOM     26  O   UNL     1       6.407   2.534  12.398  0.00  0.00    +0.000 OA
ATOM     27  H   UNL     1       5.716   1.878  12.593  0.00  0.00    +0.000 HD
ENDBRANCH  25  26
ENDBRANCH  24  25
ENDBRANCH  23  24
ENDBRANCH  17  23
ENDBRANCH   1  21
TORSDOF 6
ENDMDL
