MODEL 1
REMARK VINA RESULT:      -7.7      0.000      0.000
REMARK  Name = 
REMARK  5 active torsions:
REMARK  status: ('A' for Active; 'I' for Inactive)
REMARK    1  A    between atoms: C_2  and  C_15
REMARK    2  A    between atoms: N_3  and  C_4
REMARK    3  A    between atoms: C_7  and  O_8
REMARK    4  A    between atoms: C_9  and  C_10
REMARK    5  A    between atoms: C_19  and  N_20
REMARK                            x       y       z     vdW  Elec       q    Type
REMARK                         _______ _______ _______ _____ _____    ______ ____
ROOT
ATOM      1  O   UNL     1       2.309   8.912  17.171  0.00  0.00    +0.000 OA
ATOM      2  C   UNL     1       2.114   8.366  18.255  0.00  0.00    +0.000 C 
ATOM      3  N   UNL     1       1.276   8.845  19.256  0.00  0.00    +0.000 N 
ATOM      4  H   UNL     1       1.328   8.371  20.152  0.00  0.00    +0.000 HD
ENDROOT
BRANCH   3   5
ATOM      5  C   UNL     1       0.537  10.053  19.156  0.00  0.00    +0.000 A 
ATOM      6  C   UNL     1       1.032  11.271  19.631  0.00  0.00    +0.000 A 
ATOM      7  C   UNL     1       0.249  12.423  19.637  0.00  0.00    +0.000 A 
ATOM      8  C   UNL     1      -1.049  12.376  19.144  0.00  0.00    +0.000 A 
ATOM      9  C   UNL     1      -1.566  11.195  18.607  0.00  0.00    +0.000 A 
ATOM     10  C   UNL     1      -0.748  10.035  18.600  0.00  0.00    +0.000 A 
BRANCH   9  11
ATOM     11  C   UNL     1      -2.973  11.102  18.059  0.00  0.00    +0.000 C 
ATOM     12  F   UNL     1      -3.225  11.804  16.921  0.00  0.00    +0.000 F 
ATOM     13  F   UNL     1      -3.324   9.814  17.782  0.00  0.00    +0.000 F 
ATOM     14  F   UNL     1      -3.894  11.542  18.965  0.00  0.00    +0.000 F 
ENDBRANCH   9  11
BRANCH   8  15
ATOM     15  O   UNL     1      -1.812  13.503  19.196  0.00  0.00    +0.000 OA
ATOM     16  H   UNL     1      -1.566  14.097  18.467  0.00  0.00    +0.000 HD
ENDBRANCH   8  15
ENDBRANCH   3   5
BRANCH   2  17
ATOM     17  C   UNL     1       2.893   7.121  18.539  0.00  0.00    +0.000 A 
ATOM     18  C   UNL     1       2.521   6.392  19.668  0.00  0.00    +0.000 A 
ATOM     19  C   UNL     1       3.212   5.234  19.974  0.00  0.00    +0.000 A 
ATOM     20  C   UNL     1       4.259   4.841  19.151  0.00  0.00    +0.000 A 
ATOM     21  C   UNL     1       4.584   5.623  18.038  0.00  0.00    +0.000 A 
ATOM     22  N   UNL     1       3.907   6.764  17.703  0.00  0.00    +0.000 NA
BRANCH  21  23
ATOM     23  N   UNL     1       5.682   5.221  17.223  0.00  0.00    +0.000 N 
ATOM     24  C   UNL     1       5.748   5.142  15.846  0.00  0.00    +0.000 A 
ATOM     25  C   UNL     1       7.014   4.692  15.555  0.00  0.00    +0.000 A 
ATOM     26  N   UNL     1       7.732   4.492  16.698  0.00  0.00    +0.000 NA
ATOM     27  C   UNL     1       6.914   4.815  17.679  0.00  0.00    +0.000 A 
ENDBRANCH  21  23
ENDBRANCH   2  17
TORSDOF 5
ENDMDL
MODEL 2
REMARK VINA RESULT:      -7.7      4.769      9.023
REMARK  Name = 
REMARK  5 active torsions:
REMARK  status: ('A' for Active; 'I' for Inactive)
REMARK    1  A    between atoms: C_2  and  C_15
REMARK    2  A    between atoms: N_3  and  C_4
REMARK    3  A    between atoms: C_7  and  O_8
REMARK    4  A    between atoms: C_9  and  C_10
REMARK    5  A    between atoms: C_19  and  N_20
REMARK                            x       y       z     vdW  Elec       q    Type
REMARK                         _______ _______ _______ _____ _____    ______ ____
ROOT
ATOM      1  O   UNL     1       2.477   6.047  18.996  0.00  0.00    +0.000 OA
ATOM      2  C   UNL     1       2.759   7.137  18.503  0.00  0.00    +0.000 C 
ATOM      3  N   UNL     1       3.918   7.420  17.789  0.00  0.00    +0.000 N 
ATOM      4  H   UNL     1       4.086   8.397  17.571  0.00  0.00    +0.000 HD
ENDROOT
BRANCH   3   5
ATOM      5  C   UNL     1       4.946   6.471  17.546  0.00  0.00    +0.000 A 
ATOM      6  C   UNL     1       5.879   6.117  18.525  0.00  0.00    +0.000 A 
ATOM      7  C   UNL     1       6.954   5.279  18.237  0.00  0.00    +0.000 A 
ATOM      8  C   UNL     1       7.101   4.762  16.956  0.00  0.00    +0.000 A 
ATOM      9  C   UNL     1       6.162   5.044  15.961  0.00  0.00    +0.000 A 
ATOM     10  C   UNL     1       5.067   5.890  16.278  0.00  0.00    +0.000 A 
BRANCH   9  11
ATOM     11  C   UNL     1       6.283   4.500  14.555  0.00  0.00    +0.000 C 
ATOM     12  F   UNL     1       6.529   3.166  14.443  0.00  0.00    +0.000 F 
ATOM     13  F   UNL     1       5.155   4.729  13.825  0.00  0.00    +0.000 F 
ATOM     14  F   UNL     1       7.291   5.111  13.867  0.00  0.00    +0.000 F 
ENDBRANCH   9  11
BRANCH   8  15
ATOM     15  O   UNL     1       8.181   3.978  16.685  0.00  0.00    +0.000 OA
ATOM     16  H   UNL     1       8.497   3.563  17.505  0.00  0.00    +0.000 HD
ENDBRANCH   8  15
ENDBRANCH   3   5
BRANCH   2  17
ATOM     17  C   UNL     1       1.804   8.262  18.750  0.00  0.00    +0.000 A 
ATOM     18  C   UNL     1       1.400   8.997  17.636  0.00  0.00    +0.000 A 
ATOM     19  C   UNL     1       0.519  10.048  17.812  0.00  0.00    +0.000 A 
ATOM     20  C   UNL     1       0.074  10.342  19.094  0.00  0.00    +0.000 A 
ATOM     21  C   UNL     1       0.524   9.568  20.169  0.00  0.00    +0.000 A 
ATOM     22  N   UNL     1       1.383   8.513  20.021  0.00  0.00    +0.000 NA
BRANCH  21  23
ATOM     23  N   UNL     1       0.082   9.904  21.481  0.00  0.00    +0.000 N 
ATOM     24  C   UNL     1      -0.852  10.848  21.858  0.00  0.00    +0.000 A 
ATOM     25  C   UNL     1      -0.910  10.794  23.231  0.00  0.00    +0.000 A 
ATOM     26  N   UNL     1      -0.048   9.853  23.714  0.00  0.00    +0.000 NA
ATOM     27  C   UNL     1       0.531   9.336  22.650  0.00  0.00    +0.000 A 
ENDBRANCH  21  23
ENDBRANCH   2  17
TORSDOF 5
ENDMDL
MODEL 3
REMARK VINA RESULT:      -7.7      1.117      1.352
REMARK  Name = 
REMARK  5 active torsions:
REMARK  status: ('A' for Active; 'I' for Inactive)
REMARK    1  A    between atoms: C_2  and  C_15
REMARK    2  A    between atoms: N_3  and  C_4
REMARK    3  A    between atoms: C_7  and  O_8
REMARK    4  A    between atoms: C_9  and  C_10
REMARK    5  A    between atoms: C_19  and  N_20
REMARK                            x       y       z     vdW  Elec       q    Type
REMARK                         _______ _______ _______ _____ _____    ______ ____
ROOT
ATOM      1  O   UNL     1       1.809   8.017  20.267  0.00  0.00    +0.000 OA
ATOM      2  C   UNL     1       2.088   7.790  19.091  0.00  0.00    +0.000 C 
ATOM      3  N   UNL     1       1.743   8.598  18.014  0.00  0.00    +0.000 N 
ATOM      4  H   UNL     1       1.908   8.211  17.089  0.00  0.00    +0.000 HD
ENDROOT
BRANCH   3   5
ATOM      5  C   UNL     1       1.000   9.801  18.136  0.00  0.00    +0.000 A 
ATOM      6  C   UNL     1       1.588  11.001  18.547  0.00  0.00    +0.000 A 
ATOM      7  C   UNL     1       0.825  12.144  18.779  0.00  0.00    +0.000 A 
ATOM      8  C   UNL     1      -0.549  12.106  18.582  0.00  0.00    +0.000 A 
ATOM      9  C   UNL     1      -1.172  10.945  18.118  0.00  0.00    +0.000 A 
ATOM     10  C   UNL     1      -0.376   9.796  17.876  0.00  0.00    +0.000 A 
BRANCH   9  11
ATOM     11  C   UNL     1      -2.665  10.863  17.889  0.00  0.00    +0.000 C 
ATOM     12  F   UNL     1      -3.457  11.328  18.894  0.00  0.00    +0.000 F 
ATOM     13  F   UNL     1      -3.044  11.549  16.774  0.00  0.00    +0.000 F 
ATOM     14  F   UNL     1      -3.070   9.576  17.680  0.00  0.00    +0.000 F 
ENDBRANCH   9  11
BRANCH   8  15
ATOM     15  O   UNL     1      -1.282  13.222  18.854  0.00  0.00    +0.000 OA
ATOM     16  H   UNL     1      -0.821  14.006  18.511  0.00  0.00    +0.000 HD
ENDBRANCH   8  15
ENDBRANCH   3   5
BRANCH   2  17
ATOM     17  C   UNL     1       2.800   6.508  18.797  0.00  0.00    +0.000 A 
ATOM     18  C   UNL     1       2.390   5.384  19.516  0.00  0.00    +0.000 A 
ATOM     19  C   UNL     1       3.019   4.175  19.282  0.00  0.00    +0.000 A 
ATOM     20  C   UNL     1       4.043   4.122  18.346  0.00  0.00    +0.000 A 
ATOM     21  C   UNL     1       4.408   5.288  17.665  0.00  0.00    +0.000 A 
ATOM     22  N   UNL     1       3.793   6.494  17.865  0.00  0.00    +0.000 NA
BRANCH  21  23
ATOM     23  N   UNL     1       5.483   5.222  16.731  0.00  0.00    +0.000 N 
ATOM     24  C   UNL     1       5.672   4.325  15.700  0.00  0.00    +0.000 A 
ATOM     25  C   UNL     1       6.861   4.677  15.106  0.00  0.00    +0.000 A 
ATOM     26  N   UNL     1       7.412   5.757  15.731  0.00  0.00    +0.000 NA
ATOM     27  C   UNL     1       6.571   6.063  16.697  0.00  0.00    +0.000 A 
ENDBRANCH  21  23
ENDBRANCH   2  17
TORSDOF 5
ENDMDL
MODEL 4
REMARK VINA RESULT:      -7.6      4.758      8.992
REMARK  Name = 
REMARK  5 active torsions:
REMARK  status: ('A' for Active; 'I' for Inactive)
REMARK    1  A    between atoms: C_2  and  C_15
REMARK    2  A    between atoms: N_3  and  C_4
REMARK    3  A    between atoms: C_7  and  O_8
REMARK    4  A    between atoms: C_9  and  C_10
REMARK    5  A    between atoms: C_19  and  N_20
REMARK                            x       y       z     vdW  Elec       q    Type
REMARK                         _______ _______ _______ _____ _____    ______ ____
ROOT
ATOM      1  O   UNL     1       2.242   8.331  17.517  0.00  0.00    +0.000 OA
ATOM      2  C   UNL     1       2.256   7.935  18.681  0.00  0.00    +0.000 C 
ATOM      3  N   UNL     1       2.858   6.762  19.123  0.00  0.00    +0.000 N 
ATOM      4  H   UNL     1       2.663   6.488  20.081  0.00  0.00    +0.000 HD
ENDROOT
BRANCH   3   5
ATOM      5  C   UNL     1       3.532   5.850  18.269  0.00  0.00    +0.000 A 
ATOM      6  C   UNL     1       2.931   4.674  17.812  0.00  0.00    +0.000 A 
ATOM      7  C   UNL     1       3.643   3.730  17.075  0.00  0.00    +0.000 A 
ATOM      8  C   UNL     1       4.977   3.963  16.765  0.00  0.00    +0.000 A 
ATOM      9  C   UNL     1       5.603   5.150  17.152  0.00  0.00    +0.000 A 
ATOM     10  C   UNL     1       4.857   6.103  17.892  0.00  0.00    +0.000 A 
BRANCH   9  11
ATOM     11  C   UNL     1       7.053   5.442  16.833  0.00  0.00    +0.000 C 
ATOM     12  F   UNL     1       7.392   5.446  15.515  0.00  0.00    +0.000 F 
ATOM     13  F   UNL     1       7.442   6.656  17.317  0.00  0.00    +0.000 F 
ATOM     14  F   UNL     1       7.888   4.534  17.417  0.00  0.00    +0.000 F 
ENDBRANCH   9  11
BRANCH   8  15
ATOM     15  O   UNL     1       5.667   3.010  16.078  0.00  0.00    +0.000 OA
ATOM     16  H   UNL     1       5.043   2.426  15.614  0.00  0.00    +0.000 HD
ENDBRANCH   8  15
ENDBRANCH   3   5
BRANCH   2  17
ATOM     17  C   UNL     1       1.510   8.754  19.686  0.00  0.00    +0.000 A 
ATOM     18  C   UNL     1       1.304   8.174  20.938  0.00  0.00    +0.000 A 
ATOM     19  C   UNL     1       0.617   8.890  21.901  0.00  0.00    +0.000 A 
ATOM     20  C   UNL     1       0.150  10.159  21.587  0.00  0.00    +0.000 A 
ATOM     21  C   UNL     1       0.386  10.678  20.309  0.00  0.00    +0.000 A 
ATOM     22  N   UNL     1       1.076   9.998  19.343  0.00  0.00    +0.000 NA
BRANCH  21  23
ATOM     23  N   UNL     1      -0.130  11.969  19.994  0.00  0.00    +0.000 N 
ATOM     24  C   UNL     1      -1.076  12.706  20.676  0.00  0.00    +0.000 A 
ATOM     25  C   UNL     1      -1.233  13.871  19.962  0.00  0.00    +0.000 A 
ATOM     26  N   UNL     1      -0.420  13.879  18.866  0.00  0.00    +0.000 NA
ATOM     27  C   UNL     1       0.228  12.734  18.909  0.00  0.00    +0.000 A 
ENDBRANCH  21  23
ENDBRANCH   2  17
TORSDOF 5
ENDMDL
MODEL 5
REMARK VINA RESULT:      -7.6      4.795      8.990
REMARK  Name = 
REMARK  5 active torsions:
REMARK  status: ('A' for Active; 'I' for Inactive)
REMARK    1  A    between atoms: C_2  and  C_15
REMARK    2  A    between atoms: N_3  and  C_4
REMARK    3  A    between atoms: C_7  and  O_8
REMARK    4  A    between atoms: C_9  and  C_10
REMARK    5  A    between atoms: C_19  and  N_20
REMARK                            x       y       z     vdW  Elec       q    Type
REMARK                         _______ _______ _______ _____ _____    ______ ____
ROOT
ATOM      1  O   UNL     1       2.352   8.454  17.359  0.00  0.00    +0.000 OA
ATOM      2  C   UNL     1       2.303   8.063  18.524  0.00  0.00    +0.000 C 
ATOM      3  N   UNL     1       2.848   6.874  18.995  0.00  0.00    +0.000 N 
ATOM      4  H   UNL     1       2.602   6.611  19.945  0.00  0.00    +0.000 HD
ENDROOT
BRANCH   3   5
ATOM      5  C   UNL     1       3.529   5.938  18.174  0.00  0.00    +0.000 A 
ATOM      6  C   UNL     1       2.925   4.757  17.731  0.00  0.00    +0.000 A 
ATOM      7  C   UNL     1       3.643   3.791  17.029  0.00  0.00    +0.000 A 
ATOM      8  C   UNL     1       4.984   4.005  16.739  0.00  0.00    +0.000 A 
ATOM      9  C   UNL     1       5.614   5.194  17.112  0.00  0.00    +0.000 A 
ATOM     10  C   UNL     1       4.863   6.170  17.817  0.00  0.00    +0.000 A 
BRANCH   9  11
ATOM     11  C   UNL     1       7.072   5.467  16.815  0.00  0.00    +0.000 C 
ATOM     12  F   UNL     1       7.558   6.668  17.229  0.00  0.00    +0.000 F 
ATOM     13  F   UNL     1       7.886   4.527  17.374  0.00  0.00    +0.000 F 
ATOM     14  F   UNL     1       7.327   5.418  15.475  0.00  0.00    +0.000 F 
ENDBRANCH   9  11
BRANCH   8  15
ATOM     15  O   UNL     1       5.678   3.030  16.087  0.00  0.00    +0.000 OA
ATOM     16  H   UNL     1       5.059   2.461  15.599  0.00  0.00    +0.000 HD
ENDBRANCH   8  15
ENDBRANCH   3   5
BRANCH   2  17
ATOM     17  C   UNL     1       1.540   8.910  19.493  0.00  0.00    +0.000 A 
ATOM     18  C   UNL     1       1.245   8.335  20.730  0.00  0.00    +0.000 A 
ATOM     19  C   UNL     1       0.540   9.077  21.660  0.00  0.00    +0.000 A 
ATOM     20  C   UNL     1       0.142  10.365  21.328  0.00  0.00    +0.000 A 
ATOM     21  C   UNL     1       0.466  10.877  20.067  0.00  0.00    +0.000 A 
ATOM     22  N   UNL     1       1.176  10.172  19.134  0.00  0.00    +0.000 NA
BRANCH  21  23
ATOM     23  N   UNL     1       0.021  12.189  19.731  0.00  0.00    +0.000 N 
ATOM     24  C   UNL     1       0.448  13.006  18.704  0.00  0.00    +0.000 A 
ATOM     25  C   UNL     1      -0.280  14.167  18.817  0.00  0.00    +0.000 A 
ATOM     26  N   UNL     1      -1.140  14.097  19.874  0.00  0.00    +0.000 NA
ATOM     27  C   UNL     1      -0.942  12.907  20.402  0.00  0.00    +0.000 A 
ENDBRANCH  21  23
ENDBRANCH   2  17
TORSDOF 5
ENDMDL
MODEL 6
REMARK VINA RESULT:      -7.5      4.038      8.600
REMARK  Name = 
REMARK  5 active torsions:
REMARK  status: ('A' for Active; 'I' for Inactive)
REMARK    1  A    between atoms: C_2  and  C_15
REMARK    2  A    between atoms: N_3  and  C_4
REMARK    3  A    between atoms: C_7  and  O_8
REMARK    4  A    between atoms: C_9  and  C_10
REMARK    5  A    between atoms: C_19  and  N_20
REMARK                            x       y       z     vdW  Elec       q    Type
REMARK                         _______ _______ _______ _____ _____    ______ ____
ROOT
ATOM      1  O   UNL     1       1.740   8.438  20.173  0.00  0.00    +0.000 OA
ATOM      2  C   UNL     1       1.460   8.774  19.024  0.00  0.00    +0.000 C 
ATOM      3  N   UNL     1       1.887   8.124  17.871  0.00  0.00    +0.000 N 
ATOM      4  H   UNL     1       1.703   8.598  16.992  0.00  0.00    +0.000 HD
ENDROOT
BRANCH   3   5
ATOM      5  C   UNL     1       2.724   6.978  17.875  0.00  0.00    +0.000 A 
ATOM      6  C   UNL     1       4.098   7.058  17.627  0.00  0.00    +0.000 A 
ATOM      7  C   UNL     1       4.886   5.914  17.514  0.00  0.00    +0.000 A 
ATOM      8  C   UNL     1       4.307   4.661  17.669  0.00  0.00    +0.000 A 
ATOM      9  C   UNL     1       2.950   4.535  17.973  0.00  0.00    +0.000 A 
ATOM     10  C   UNL     1       2.167   5.712  18.096  0.00  0.00    +0.000 A 
BRANCH   9  11
ATOM     11  C   UNL     1       2.281   3.190  18.151  0.00  0.00    +0.000 C 
ATOM     12  F   UNL     1       2.414   2.308  17.122  0.00  0.00    +0.000 F 
ATOM     13  F   UNL     1       2.743   2.538  19.256  0.00  0.00    +0.000 F 
ATOM     14  F   UNL     1       0.936   3.320  18.341  0.00  0.00    +0.000 F 
ENDBRANCH   9  11
BRANCH   8  15
ATOM     15  O   UNL     1       5.086   3.555  17.514  0.00  0.00    +0.000 OA
ATOM     16  H   UNL     1       4.545   2.818  17.183  0.00  0.00    +0.000 HD
ENDBRANCH   8  15
ENDBRANCH   3   5
BRANCH   2  17
ATOM     17  C   UNL     1       0.649  10.020  18.858  0.00  0.00    +0.000 A 
ATOM     18  C   UNL     1       1.142  11.174  19.468  0.00  0.00    +0.000 A 
ATOM     19  C   UNL     1       0.427  12.351  19.345  0.00  0.00    +0.000 A 
ATOM     20  C   UNL     1      -0.761  12.343  18.627  0.00  0.00    +0.000 A 
ATOM     21  C   UNL     1      -1.201  11.148  18.047  0.00  0.00    +0.000 A 
ATOM     22  N   UNL     1      -0.506   9.973  18.139  0.00  0.00    +0.000 NA
BRANCH  21  23
ATOM     23  N   UNL     1      -2.440  11.151  17.341  0.00  0.00    +0.000 N 
ATOM     24  C   UNL     1      -3.686  11.536  17.793  0.00  0.00    +0.000 A 
ATOM     25  C   UNL     1      -4.546  11.339  16.739  0.00  0.00    +0.000 A 
ATOM     26  N   UNL     1      -3.878  10.849  15.655  0.00  0.00    +0.000 NA
ATOM     27  C   UNL     1      -2.623  10.746  16.040  0.00  0.00    +0.000 A 
ENDBRANCH  21  23
ENDBRANCH   2  17
TORSDOF 5
ENDMDL
MODEL 7
REMARK VINA RESULT:      -7.5      1.124      1.377
REMARK  Name = 
REMARK  5 active torsions:
REMARK  status: ('A' for Active; 'I' for Inactive)
REMARK    1  A    between atoms: C_2  and  C_15
REMARK    2  A    between atoms: N_3  and  C_4
REMARK    3  A    between atoms: C_7  and  O_8
REMARK    4  A    between atoms: C_9  and  C_10
REMARK    5  A    between atoms: C_19  and  N_20
REMARK                            x       y       z     vdW  Elec       q    Type
REMARK                         _______ _______ _______ _____ _____    ______ ____
ROOT
ATOM      1  O   UNL     1       1.560   8.102  20.684  0.00  0.00    +0.000 OA
ATOM      2  C   UNL     1       1.986   7.791  19.573  0.00  0.00    +0.000 C 
ATOM      3  N   UNL     1       1.825   8.540  18.413  0.00  0.00    +0.000 N 
ATOM      4  H   UNL     1       2.098   8.089  17.545  0.00  0.00    +0.000 HD
ENDROOT
BRANCH   3   5
ATOM      5  C   UNL     1       1.124   9.773  18.360  0.00  0.00    +0.000 A 
ATOM      6  C   UNL     1       1.755  10.999  18.590  0.00  0.00    +0.000 A 
ATOM      7  C   UNL     1       1.033  12.189  18.655  0.00  0.00    +0.000 A 
ATOM      8  C   UNL     1      -0.343  12.170  18.470  0.00  0.00    +0.000 A 
ATOM      9  C   UNL     1      -1.009  10.976  18.183  0.00  0.00    +0.000 A 
ATOM     10  C   UNL     1      -0.254   9.777  18.109  0.00  0.00    +0.000 A 
BRANCH   9  11
ATOM     11  C   UNL     1      -2.505  10.913  17.973  0.00  0.00    +0.000 C 
ATOM     12  F   UNL     1      -3.037   9.674  17.788  0.00  0.00    +0.000 F 
ATOM     13  F   UNL     1      -3.186  11.452  19.024  0.00  0.00    +0.000 F 
ATOM     14  F   UNL     1      -2.890  11.636  16.882  0.00  0.00    +0.000 F 
ENDBRANCH   9  11
BRANCH   8  15
ATOM     15  O   UNL     1      -1.036  13.338  18.579  0.00  0.00    +0.000 OA
ATOM     16  H   UNL     1      -0.413  14.081  18.657  0.00  0.00    +0.000 HD
ENDBRANCH   8  15
ENDBRANCH   3   5
BRANCH   2  17
ATOM     17  C   UNL     1       2.676   6.469  19.457  0.00  0.00    +0.000 A 
ATOM     18  C   UNL     1       2.209   5.443  20.279  0.00  0.00    +0.000 A 
ATOM     19  C   UNL     1       2.816   4.203  20.209  0.00  0.00    +0.000 A 
ATOM     20  C   UNL     1       3.875   4.022  19.330  0.00  0.00    +0.000 A 
ATOM     21  C   UNL     1       4.297   5.096  18.539  0.00  0.00    +0.000 A 
ATOM     22  N   UNL     1       3.705   6.329  18.575  0.00  0.00    +0.000 NA
BRANCH  21  23
ATOM     23  N   UNL     1       5.407   4.901  17.665  0.00  0.00    +0.000 N 
ATOM     24  C   UNL     1       5.399   4.638  16.311  0.00  0.00    +0.000 A 
ATOM     25  C   UNL     1       6.718   4.524  15.941  0.00  0.00    +0.000 A 
ATOM     26  N   UNL     1       7.539   4.707  17.016  0.00  0.00    +0.000 NA
ATOM     27  C   UNL     1       6.732   4.931  18.032  0.00  0.00    +0.000 A 
ENDBRANCH  21  23
ENDBRANCH   2  17
TORSDOF 5
ENDMDL
MODEL 8
REMARK VINA RESULT:      -7.5      4.540      8.940
REMARK  Name = 
REMARK  5 active torsions:
REMARK  status: ('A' for Active; 'I' for Inactive)
REMARK    1  A    between atoms: C_2  and  C_15
REMARK    2  A    between atoms: N_3  and  C_4
REMARK    3  A    between atoms: C_7  and  O_8
REMARK    4  A    between atoms: C_9  and  C_10
REMARK    5  A    between atoms: C_19  and  N_20
REMARK                            x       y       z     vdW  Elec       q    Type
REMARK                         _______ _______ _______ _____ _____    ______ ____
ROOT
ATOM      1  O   UNL     1       2.487   9.116  17.040  0.00  0.00    +0.000 OA
ATOM      2  C   UNL     1       1.896   8.667  18.021  0.00  0.00    +0.000 C 
ATOM      3  N   UNL     1       2.127   7.423  18.596  0.00  0.00    +0.000 N 
ATOM      4  H   UNL     1       1.465   7.125  19.306  0.00  0.00    +0.000 HD
ENDROOT
BRANCH   3   5
ATOM      5  C   UNL     1       3.079   6.491  18.106  0.00  0.00    +0.000 A 
ATOM      6  C   UNL     1       2.759   5.150  17.874  0.00  0.00    +0.000 A 
ATOM      7  C   UNL     1       3.732   4.222  17.510  0.00  0.00    +0.000 A 
ATOM      8  C   UNL     1       5.050   4.630  17.353  0.00  0.00    +0.000 A 
ATOM      9  C   UNL     1       5.406   5.971  17.520  0.00  0.00    +0.000 A 
ATOM     10  C   UNL     1       4.398   6.903  17.879  0.00  0.00    +0.000 A 
BRANCH   9  11
ATOM     11  C   UNL     1       6.829   6.457  17.357  0.00  0.00    +0.000 C 
ATOM     12  F   UNL     1       7.448   6.133  16.189  0.00  0.00    +0.000 F 
ATOM     13  F   UNL     1       6.914   7.814  17.454  0.00  0.00    +0.000 F 
ATOM     14  F   UNL     1       7.641   5.972  18.341  0.00  0.00    +0.000 F 
ENDBRANCH   9  11
BRANCH   8  15
ATOM     15  O   UNL     1       5.993   3.699  17.037  0.00  0.00    +0.000 OA
ATOM     16  H   UNL     1       6.174   3.142  17.813  0.00  0.00    +0.000 HD
ENDBRANCH   8  15
ENDBRANCH   3   5
BRANCH   2  17
ATOM     17  C   UNL     1       0.801   9.506  18.597  0.00  0.00    +0.000 A 
ATOM     18  C   UNL     1       0.955   9.915  19.922  0.00  0.00    +0.000 A 
ATOM     19  C   UNL     1      -0.032  10.691  20.501  0.00  0.00    +0.000 A 
ATOM     20  C   UNL     1      -1.147  11.031  19.747  0.00  0.00    +0.000 A 
ATOM     21  C   UNL     1      -1.241  10.581  18.425  0.00  0.00    +0.000 A 
ATOM     22  N   UNL     1      -0.273   9.826  17.822  0.00  0.00    +0.000 NA
BRANCH  21  23
ATOM     23  N   UNL     1      -2.409  10.912  17.677  0.00  0.00    +0.000 N 
ATOM     24  C   UNL     1      -3.599  11.442  18.130  0.00  0.00    +0.000 A 
ATOM     25  C   UNL     1      -4.405  11.564  17.023  0.00  0.00    +0.000 A 
ATOM     26  N   UNL     1      -3.756  11.129  15.903  0.00  0.00    +0.000 NA
ATOM     27  C   UNL     1      -2.567  10.746  16.321  0.00  0.00    +0.000 A 
ENDBRANCH  21  23
ENDBRANCH   2  17
TORSDOF 5
ENDMDL
MODEL 9
REMARK VINA RESULT:      -7.5      4.048      8.629
REMARK  Name = 
REMARK  5 active torsions:
REMARK  status: ('A' for Active; 'I' for Inactive)
REMARK    1  A    between atoms: C_2  and  C_15
REMARK    2  A    between atoms: N_3  and  C_4
REMARK    3  A    between atoms: C_7  and  O_8
REMARK    4  A    between atoms: C_9  and  C_10
REMARK    5  A    between atoms: C_19  and  N_20
REMARK                            x       y       z     vdW  Elec       q    Type
REMARK                         _______ _______ _______ _____ _____    ______ ____
ROOT
ATOM      1  O   UNL     1       1.769   8.423  20.184  0.00  0.00    +0.000 OA
ATOM      2  C   UNL     1       1.472   8.759  19.039  0.00  0.00    +0.000 C 
ATOM      3  N   UNL     1       1.884   8.111  17.881  0.00  0.00    +0.000 N 
ATOM      4  H   UNL     1       1.687   8.585  17.005  0.00  0.00    +0.000 HD
ENDROOT
BRANCH   3   5
ATOM      5  C   UNL     1       2.726   6.968  17.872  0.00  0.00    +0.000 A 
ATOM      6  C   UNL     1       4.086   7.046  17.557  0.00  0.00    +0.000 A 
ATOM      7  C   UNL     1       4.872   5.902  17.434  0.00  0.00    +0.000 A 
ATOM      8  C   UNL     1       4.307   4.652  17.646  0.00  0.00    +0.000 A 
ATOM      9  C   UNL     1       2.966   4.529  18.019  0.00  0.00    +0.000 A 
ATOM     10  C   UNL     1       2.185   5.706  18.150  0.00  0.00    +0.000 A 
BRANCH   9  11
ATOM     11  C   UNL     1       2.313   3.186  18.261  0.00  0.00    +0.000 C 
ATOM     12  F   UNL     1       2.854   2.420  19.247  0.00  0.00    +0.000 F 
ATOM     13  F   UNL     1       0.993   3.316  18.579  0.00  0.00    +0.000 F 
ATOM     14  F   UNL     1       2.341   2.406  17.142  0.00  0.00    +0.000 F 
ENDBRANCH   9  11
BRANCH   8  15
ATOM     15  O   UNL     1       5.082   3.544  17.481  0.00  0.00    +0.000 OA
ATOM     16  H   UNL     1       4.557   2.748  17.668  0.00  0.00    +0.000 HD
ENDBRANCH   8  15
ENDBRANCH   3   5
BRANCH   2  17
ATOM     17  C   UNL     1       0.654  10.002  18.887  0.00  0.00    +0.000 A 
ATOM     18  C   UNL     1       1.120  11.143  19.540  0.00  0.00    +0.000 A 
ATOM     19  C   UNL     1       0.398  12.317  19.430  0.00  0.00    +0.000 A 
ATOM     20  C   UNL     1      -0.770  12.318  18.681  0.00  0.00    +0.000 A 
ATOM     21  C   UNL     1      -1.184  11.136  18.057  0.00  0.00    +0.000 A 
ATOM     22  N   UNL     1      -0.481   9.965  18.135  0.00  0.00    +0.000 NA
BRANCH  21  23
ATOM     23  N   UNL     1      -2.403  11.148  17.319  0.00  0.00    +0.000 N 
ATOM     24  C   UNL     1      -2.615  10.791  16.003  0.00  0.00    +0.000 A 
ATOM     25  C   UNL     1      -3.955  10.992  15.769  0.00  0.00    +0.000 A 
ATOM     26  N   UNL     1      -4.577  11.460  16.890  0.00  0.00    +0.000 NA
ATOM     27  C   UNL     1      -3.629  11.544  17.800  0.00  0.00    +0.000 A 
ENDBRANCH  21  23
ENDBRANCH   2  17
TORSDOF 5
ENDMDL
