MODEL 1
REMARK VINA RESULT:      -7.5      0.000      0.000
REMARK  Name = 
REMARK  11 active torsions:
REMARK  status: ('A' for Active; 'I' for Inactive)
REMARK    1  A    between atoms: C_1  and  C_2
REMARK    2  A    between atoms: C_2  and  C_3
REMARK    3  A    between atoms: C_2  and  C_4
REMARK    4  A    between atoms: C_4  and  O_5
REMARK    5  A    between atoms: C_4  and  P_18
REMARK    6  A    between atoms: O_5  and  C_6
REMARK    7  A    between atoms: C_6  and  C_8
REMARK    8  A    between atoms: C_8  and  O_9
REMARK    9  A    between atoms: O_9  and  C_10
REMARK   10  A    between atoms: C_22  and  C_23
REMARK   11  A    between atoms: C_22  and  C_24
REMARK                            x       y       z     vdW  Elec       q    Type
REMARK                         _______ _______ _______ _____ _____    ______ ____
ROOT
ATOM      1  C   UNL     1       2.478   4.660  18.993  0.00  0.00    +0.000 C 
ENDROOT
BRANCH   1   2
ATOM      2  P   UNL     1       4.119   3.872  18.935  0.00  0.00    +0.000 P 
ATOM      3  O   UNL     1       4.378   2.896  20.046  0.00  0.00    +0.000 OA
ATOM      4  O   UNL     1       5.180   5.088  18.925  0.00  0.00    +0.000 OA
ATOM      5  C   UNL     1       5.226   5.918  17.782  0.00  0.00    +0.000 C 
ATOM      6  C   UNL     1       5.595   5.105  16.537  0.00  0.00    +0.000 C 
ATOM      7  C   UNL     1       5.619   6.029  15.312  0.00  0.00    +0.000 C 
ATOM      8  C   UNL     1       6.990   4.477  16.726  0.00  0.00    +0.000 C 
ATOM      9  C   UNL     1       4.540   4.006  16.328  0.00  0.00    +0.000 C 
ATOM     10  O   UNL     1       4.340   3.211  17.480  0.00  0.00    +0.000 OA
ENDBRANCH   1   2
BRANCH   1  12
ATOM     11  C   UNL     1       1.317   2.408  18.613  0.00  0.00    +0.000 C 
ATOM     12  C   UNL     1       1.296   3.733  19.364  0.00  0.00    +0.000 C 
ATOM     13  C   UNL     1       1.203   3.456  20.868  0.00  0.00    +0.000 C 
ENDBRANCH   1  12
BRANCH   1  14
ATOM     14  O   UNL     1       2.610   5.654  20.047  0.00  0.00    +0.000 OA
BRANCH  14  15
ATOM     15  C   UNL     1       2.258   6.930  19.734  0.00  0.00    +0.000 C 
ATOM     16  O   UNL     1       2.269   7.396  18.603  0.00  0.00    +0.000 OA
BRANCH  15  17
ATOM     17  C   UNL     1       1.647   7.594  20.965  0.00  0.00    +0.000 C 
BRANCH  17  18
ATOM     18  O   UNL     1       0.284   7.908  20.815  0.00  0.00    +0.000 OA
BRANCH  18  19
ATOM     19  C   UNL     1      -0.138   9.079  21.395  0.00  0.00    +0.000 A 
ATOM     20  C   UNL     1      -0.424   9.256  22.753  0.00  0.00    +0.000 A 
ATOM     21  C   UNL     1      -0.816  10.501  23.240  0.00  0.00    +0.000 A 
ATOM     22  C   UNL     1      -0.900  11.590  22.373  0.00  0.00    +0.000 A 
ATOM     23 CL   UNL     1      -1.361  13.134  22.980  0.00  0.00    +0.000 Cl
ATOM     24  C   UNL     1      -0.611  11.439  21.022  0.00  0.00    +0.000 A 
ATOM     25  C   UNL     1      -0.228  10.191  20.536  0.00  0.00    +0.000 A 
ATOM     26 CL   UNL     1       0.114  10.041  18.844  0.00  0.00    +0.000 Cl
ENDBRANCH  18  19
ENDBRANCH  17  18
ENDBRANCH  15  17
ENDBRANCH  14  15
ENDBRANCH   1  14
TORSDOF 7
ENDMDL
MODEL 2
REMARK VINA RESULT:      -7.4      1.182      1.654
REMARK  Name = 
REMARK  11 active torsions:
REMARK  status: ('A' for Active; 'I' for Inactive)
REMARK    1  A    between atoms: C_1  and  C_2
REMARK    2  A    between atoms: C_2  and  C_3
REMARK    3  A    between atoms: C_2  and  C_4
REMARK    4  A    between atoms: C_4  and  O_5
REMARK    5  A    between atoms: C_4  and  P_18
REMARK    6  A    between atoms: O_5  and  C_6
REMARK    7  A    between atoms: C_6  and  C_8
REMARK    8  A    between atoms: C_8  and  O_9
REMARK    9  A    between atoms: O_9  and  C_10
REMARK   10  A    between atoms: C_22  and  C_23
REMARK   11  A    between atoms: C_22  and  C_24
REMARK                            x       y       z     vdW  Elec       q    Type
REMARK                         _______ _______ _______ _____ _____    ______ ____
ROOT
ATOM      1  C   UNL     1       2.599   4.482  19.137  0.00  0.00    +0.000 C 
ENDROOT
BRANCH   1   2
ATOM      2  P   UNL     1       4.261   3.751  18.994  0.00  0.00    +0.000 P 
ATOM      3  O   UNL     1       4.608   2.782  20.087  0.00  0.00    +0.000 OA
ATOM      4  O   UNL     1       5.278   5.002  18.934  0.00  0.00    +0.000 OA
ATOM      5  C   UNL     1       5.239   5.834  17.793  0.00  0.00    +0.000 C 
ATOM      6  C   UNL     1       5.572   5.036  16.528  0.00  0.00    +0.000 C 
ATOM      7  C   UNL     1       5.503   5.962  15.307  0.00  0.00    +0.000 C 
ATOM      8  C   UNL     1       6.995   4.456  16.646  0.00  0.00    +0.000 C 
ATOM      9  C   UNL     1       4.545   3.902  16.369  0.00  0.00    +0.000 C 
ATOM     10  O   UNL     1       4.430   3.100  17.528  0.00  0.00    +0.000 OA
ENDBRANCH   1   2
BRANCH   1  12
ATOM     11  C   UNL     1       1.450   2.204  18.915  0.00  0.00    +0.000 C 
ATOM     12  C   UNL     1       1.486   3.538  19.649  0.00  0.00    +0.000 C 
ATOM     13  C   UNL     1       1.570   3.279  21.157  0.00  0.00    +0.000 C 
ENDBRANCH   1  12
BRANCH   1  14
ATOM     14  O   UNL     1       2.771   5.540  20.120  0.00  0.00    +0.000 OA
BRANCH  14  15
ATOM     15  C   UNL     1       2.310   6.774  19.782  0.00  0.00    +0.000 C 
ATOM     16  O   UNL     1       2.528   7.328  18.713  0.00  0.00    +0.000 OA
BRANCH  15  17
ATOM     17  C   UNL     1       1.314   7.240  20.840  0.00  0.00    +0.000 C 
BRANCH  17  18
ATOM     18  O   UNL     1       1.603   8.516  21.360  0.00  0.00    +0.000 OA
BRANCH  18  19
ATOM     19  C   UNL     1       0.773   9.536  20.966  0.00  0.00    +0.000 A 
ATOM     20  C   UNL     1       0.656  10.030  19.662  0.00  0.00    +0.000 A 
ATOM     21  C   UNL     1      -0.244  11.051  19.368  0.00  0.00    +0.000 A 
ATOM     22  C   UNL     1      -1.058  11.571  20.375  0.00  0.00    +0.000 A 
ATOM     23 CL   UNL     1      -2.188  12.816  20.005  0.00  0.00    +0.000 Cl
ATOM     24  C   UNL     1      -0.965  11.088  21.675  0.00  0.00    +0.000 A 
ATOM     25  C   UNL     1      -0.057  10.073  21.968  0.00  0.00    +0.000 A 
ATOM     26 CL   UNL     1       0.036   9.505  23.603  0.00  0.00    +0.000 Cl
ENDBRANCH  18  19
ENDBRANCH  17  18
ENDBRANCH  15  17
ENDBRANCH  14  15
ENDBRANCH   1  14
TORSDOF 7
ENDMDL
MODEL 3
REMARK VINA RESULT:      -7.1      3.708      8.886
REMARK  Name = 
REMARK  11 active torsions:
REMARK  status: ('A' for Active; 'I' for Inactive)
REMARK    1  A    between atoms: C_1  and  C_2
REMARK    2  A    between atoms: C_2  and  C_3
REMARK    3  A    between atoms: C_2  and  C_4
REMARK    4  A    between atoms: C_4  and  O_5
REMARK    5  A    between atoms: C_4  and  P_18
REMARK    6  A    between atoms: O_5  and  C_6
REMARK    7  A    between atoms: C_6  and  C_8
REMARK    8  A    between atoms: C_8  and  O_9
REMARK    9  A    between atoms: O_9  and  C_10
REMARK   10  A    between atoms: C_22  and  C_23
REMARK   11  A    between atoms: C_22  and  C_24
REMARK                            x       y       z     vdW  Elec       q    Type
REMARK                         _______ _______ _______ _____ _____    ______ ____
ROOT
ATOM      1  C   UNL     1      -0.108  10.760  20.528  0.00  0.00    +0.000 C 
ENDROOT
BRANCH   1   2
ATOM      2  P   UNL     1       0.040  12.390  21.326  0.00  0.00    +0.000 P 
ATOM      3  O   UNL     1       1.427  12.965  21.309  0.00  0.00    +0.000 OA
ATOM      4  O   UNL     1      -0.524  12.188  22.825  0.00  0.00    +0.000 OA
ATOM      5  C   UNL     1      -1.902  11.922  22.984  0.00  0.00    +0.000 C 
ATOM      6  C   UNL     1      -2.744  13.078  22.433  0.00  0.00    +0.000 C 
ATOM      7  C   UNL     1      -4.234  12.751  22.604  0.00  0.00    +0.000 C 
ATOM      8  C   UNL     1      -2.415  14.369  23.207  0.00  0.00    +0.000 C 
ATOM      9  C   UNL     1      -2.428  13.257  20.939  0.00  0.00    +0.000 C 
ATOM     10  O   UNL     1      -1.044  13.397  20.684  0.00  0.00    +0.000 OA
ENDBRANCH   1   2
BRANCH   1  12
ATOM     11  C   UNL     1       0.722   9.927  18.253  0.00  0.00    +0.000 C 
ATOM     12  C   UNL     1      -0.304  10.774  18.993  0.00  0.00    +0.000 C 
ATOM     13  C   UNL     1      -1.711  10.346  18.566  0.00  0.00    +0.000 C 
ENDBRANCH   1  12
BRANCH   1  14
ATOM     14  O   UNL     1       1.169  10.122  20.807  0.00  0.00    +0.000 OA
BRANCH  14  15
ATOM     15  C   UNL     1       1.190   9.204  21.810  0.00  0.00    +0.000 C 
ATOM     16  O   UNL     1       1.106   9.474  23.000  0.00  0.00    +0.000 OA
BRANCH  15  17
ATOM     17  C   UNL     1       1.108   7.804  21.207  0.00  0.00    +0.000 C 
BRANCH  17  18
ATOM     18  O   UNL     1       2.138   7.527  20.289  0.00  0.00    +0.000 OA
BRANCH  18  19
ATOM     19  C   UNL     1       2.182   6.250  19.790  0.00  0.00    +0.000 A 
ATOM     20  C   UNL     1       1.679   5.111  20.429  0.00  0.00    +0.000 A 
ATOM     21  C   UNL     1       1.749   3.863  19.814  0.00  0.00    +0.000 A 
ATOM     22  C   UNL     1       2.299   3.747  18.539  0.00  0.00    +0.000 A 
ATOM     23 CL   UNL     1       2.363   2.208  17.769  0.00  0.00    +0.000 Cl
ATOM     24  C   UNL     1       2.795   4.867  17.881  0.00  0.00    +0.000 A 
ATOM     25  C   UNL     1       2.733   6.113  18.502  0.00  0.00    +0.000 A 
ATOM     26 CL   UNL     1       3.371   7.482  17.655  0.00  0.00    +0.000 Cl
ENDBRANCH  18  19
ENDBRANCH  17  18
ENDBRANCH  15  17
ENDBRANCH  14  15
ENDBRANCH   1  14
TORSDOF 7
ENDMDL
MODEL 4
REMARK VINA RESULT:      -7.0      2.147      4.300
REMARK  Name = 
REMARK  11 active torsions:
REMARK  status: ('A' for Active; 'I' for Inactive)
REMARK    1  A    between atoms: C_1  and  C_2
REMARK    2  A    between atoms: C_2  and  C_3
REMARK    3  A    between atoms: C_2  and  C_4
REMARK    4  A    between atoms: C_4  and  O_5
REMARK    5  A    between atoms: C_4  and  P_18
REMARK    6  A    between atoms: O_5  and  C_6
REMARK    7  A    between atoms: C_6  and  C_8
REMARK    8  A    between atoms: C_8  and  O_9
REMARK    9  A    between atoms: O_9  and  C_10
REMARK   10  A    between atoms: C_22  and  C_23
REMARK   11  A    between atoms: C_22  and  C_24
REMARK                            x       y       z     vdW  Elec       q    Type
REMARK                         _______ _______ _______ _____ _____    ______ ____
ROOT
ATOM      1  C   UNL     1       4.073   5.929  18.307  0.00  0.00    +0.000 C 
ENDROOT
BRANCH   1   2
ATOM      2  P   UNL     1       3.631   4.268  17.703  0.00  0.00    +0.000 P 
ATOM      3  O   UNL     1       4.127   3.958  16.321  0.00  0.00    +0.000 OA
ATOM      4  O   UNL     1       2.023   4.185  17.812  0.00  0.00    +0.000 OA
ATOM      5  C   UNL     1       1.445   4.177  19.101  0.00  0.00    +0.000 C 
ATOM      6  C   UNL     1       1.926   2.964  19.903  0.00  0.00    +0.000 C 
ATOM      7  C   UNL     1       1.297   2.994  21.303  0.00  0.00    +0.000 C 
ATOM      8  C   UNL     1       1.500   1.669  19.184  0.00  0.00    +0.000 C 
ATOM      9  C   UNL     1       3.457   3.024  20.030  0.00  0.00    +0.000 C 
ATOM     10  O   UNL     1       4.106   3.167  18.781  0.00  0.00    +0.000 OA
ENDBRANCH   1   2
BRANCH   1  12
ATOM     11  C   UNL     1       6.604   5.544  18.243  0.00  0.00    +0.000 C 
ATOM     12  C   UNL     1       5.453   6.465  17.860  0.00  0.00    +0.000 C 
ATOM     13  C   UNL     1       5.522   6.758  16.358  0.00  0.00    +0.000 C 
ENDBRANCH   1  12
BRANCH   1  14
ATOM     14  O   UNL     1       3.053   6.789  17.727  0.00  0.00    +0.000 OA
BRANCH  14  15
ATOM     15  C   UNL     1       2.396   7.622  18.578  0.00  0.00    +0.000 C 
ATOM     16  O   UNL     1       2.350   7.478  19.792  0.00  0.00    +0.000 OA
BRANCH  15  17
ATOM     17  C   UNL     1       1.930   8.855  17.809  0.00  0.00    +0.000 C 
BRANCH  17  18
ATOM     18  O   UNL     1       1.555   9.927  18.639  0.00  0.00    +0.000 OA
BRANCH  18  19
ATOM     19  C   UNL     1       0.249  10.338  18.548  0.00  0.00    +0.000 A 
ATOM     20  C   UNL     1      -0.699   9.840  17.646  0.00  0.00    +0.000 A 
ATOM     21  C   UNL     1      -2.010  10.311  17.663  0.00  0.00    +0.000 A 
ATOM     22  C   UNL     1      -2.393  11.267  18.603  0.00  0.00    +0.000 A 
ATOM     23 CL   UNL     1      -4.020  11.829  18.638  0.00  0.00    +0.000 Cl
ATOM     24  C   UNL     1      -1.471  11.767  19.514  0.00  0.00    +0.000 A 
ATOM     25  C   UNL     1      -0.158  11.303  19.490  0.00  0.00    +0.000 A 
ATOM     26 CL   UNL     1       0.964  11.959  20.635  0.00  0.00    +0.000 Cl
ENDBRANCH  18  19
ENDBRANCH  17  18
ENDBRANCH  15  17
ENDBRANCH  14  15
ENDBRANCH   1  14
TORSDOF 7
ENDMDL
MODEL 5
REMARK VINA RESULT:      -6.9      1.191      1.462
REMARK  Name = 
REMARK  11 active torsions:
REMARK  status: ('A' for Active; 'I' for Inactive)
REMARK    1  A    between atoms: C_1  and  C_2
REMARK    2  A    between atoms: C_2  and  C_3
REMARK    3  A    between atoms: C_2  and  C_4
REMARK    4  A    between atoms: C_4  and  O_5
REMARK    5  A    between atoms: C_4  and  P_18
REMARK    6  A    between atoms: O_5  and  C_6
REMARK    7  A    between atoms: C_6  and  C_8
REMARK    8  A    between atoms: C_8  and  O_9
REMARK    9  A    between atoms: O_9  and  C_10
REMARK   10  A    between atoms: C_22  and  C_23
REMARK   11  A    between atoms: C_22  and  C_24
REMARK                            x       y       z     vdW  Elec       q    Type
REMARK                         _______ _______ _______ _____ _____    ______ ____
ROOT
ATOM      1  C   UNL     1       2.948   5.388  18.490  0.00  0.00    +0.000 C 
ENDROOT
BRANCH   1   2
ATOM      2  P   UNL     1       4.762   5.247  18.567  0.00  0.00    +0.000 P 
ATOM      3  O   UNL     1       5.342   5.455  19.936  0.00  0.00    +0.000 OA
ATOM      4  O   UNL     1       5.323   6.312  17.492  0.00  0.00    +0.000 OA
ATOM      5  C   UNL     1       5.081   6.062  16.123  0.00  0.00    +0.000 C 
ATOM      6  C   UNL     1       5.723   4.739  15.692  0.00  0.00    +0.000 C 
ATOM      7  C   UNL     1       5.426   4.488  14.207  0.00  0.00    +0.000 C 
ATOM      8  C   UNL     1       7.248   4.816  15.899  0.00  0.00    +0.000 C 
ATOM      9  C   UNL     1       5.127   3.598  16.532  0.00  0.00    +0.000 C 
ATOM     10  O   UNL     1       5.213   3.838  17.923  0.00  0.00    +0.000 OA
ENDBRANCH   1   2
BRANCH   1  12
ATOM     11  C   UNL     1       1.571   3.755  19.902  0.00  0.00    +0.000 C 
ATOM     12  C   UNL     1       2.164   4.055  18.532  0.00  0.00    +0.000 C 
ATOM     13  C   UNL     1       1.056   3.980  17.477  0.00  0.00    +0.000 C 
ENDBRANCH   1  12
BRANCH   1  14
ATOM     14  O   UNL     1       2.609   6.141  19.687  0.00  0.00    +0.000 OA
BRANCH  14  15
ATOM     15  C   UNL     1       2.224   7.433  19.511  0.00  0.00    +0.000 C 
ATOM     16  O   UNL     1       2.265   8.031  18.445  0.00  0.00    +0.000 OA
BRANCH  15  17
ATOM     17  C   UNL     1       1.538   7.926  20.782  0.00  0.00    +0.000 C 
BRANCH  17  18
ATOM     18  O   UNL     1       1.681   9.309  20.998  0.00  0.00    +0.000 OA
BRANCH  18  19
ATOM     19  C   UNL     1       0.607   9.951  21.562  0.00  0.00    +0.000 A 
ATOM     20  C   UNL     1       0.036   9.643  22.803  0.00  0.00    +0.000 A 
ATOM     21  C   UNL     1      -1.036  10.384  23.294  0.00  0.00    +0.000 A 
ATOM     22  C   UNL     1      -1.530  11.461  22.559  0.00  0.00    +0.000 A 
ATOM     23 CL   UNL     1      -2.840  12.392  23.180  0.00  0.00    +0.000 Cl
ATOM     24  C   UNL     1      -0.971  11.791  21.330  0.00  0.00    +0.000 A 
ATOM     25  C   UNL     1       0.094  11.042  20.836  0.00  0.00    +0.000 A 
ATOM     26 CL   UNL     1       0.756  11.479  19.296  0.00  0.00    +0.000 Cl
ENDBRANCH  18  19
ENDBRANCH  17  18
ENDBRANCH  15  17
ENDBRANCH  14  15
ENDBRANCH   1  14
TORSDOF 7
ENDMDL
MODEL 6
REMARK VINA RESULT:      -6.9      1.781      2.098
REMARK  Name = 
REMARK  11 active torsions:
REMARK  status: ('A' for Active; 'I' for Inactive)
REMARK    1  A    between atoms: C_1  and  C_2
REMARK    2  A    between atoms: C_2  and  C_3
REMARK    3  A    between atoms: C_2  and  C_4
REMARK    4  A    between atoms: C_4  and  O_5
REMARK    5  A    between atoms: C_4  and  P_18
REMARK    6  A    between atoms: O_5  and  C_6
REMARK    7  A    between atoms: C_6  and  C_8
REMARK    8  A    between atoms: C_8  and  O_9
REMARK    9  A    between atoms: O_9  and  C_10
REMARK   10  A    between atoms: C_22  and  C_23
REMARK   11  A    between atoms: C_22  and  C_24
REMARK                            x       y       z     vdW  Elec       q    Type
REMARK                         _______ _______ _______ _____ _____    ______ ____
ROOT
ATOM      1  C   UNL     1       3.184   5.651  18.313  0.00  0.00    +0.000 C 
ENDROOT
BRANCH   1   2
ATOM      2  P   UNL     1       4.991   5.418  18.331  0.00  0.00    +0.000 P 
ATOM      3  O   UNL     1       5.636   5.670  19.663  0.00  0.00    +0.000 OA
ATOM      4  O   UNL     1       5.561   6.390  17.176  0.00  0.00    +0.000 OA
ATOM      5  C   UNL     1       5.251   6.078  15.834  0.00  0.00    +0.000 C 
ATOM      6  C   UNL     1       5.807   4.702  15.455  0.00  0.00    +0.000 C 
ATOM      7  C   UNL     1       5.438   4.385  13.999  0.00  0.00    +0.000 C 
ATOM      8  C   UNL     1       7.341   4.708  15.600  0.00  0.00    +0.000 C 
ATOM      9  C   UNL     1       5.188   3.642  16.381  0.00  0.00    +0.000 C 
ATOM     10  O   UNL     1       5.343   3.954  17.752  0.00  0.00    +0.000 OA
ENDBRANCH   1   2
BRANCH   1  12
ATOM     11  C   UNL     1       1.632   4.995  20.242  0.00  0.00    +0.000 C 
ATOM     12  C   UNL     1       2.352   4.532  18.982  0.00  0.00    +0.000 C 
ATOM     13  C   UNL     1       1.337   3.892  18.030  0.00  0.00    +0.000 C 
ENDBRANCH   1  12
BRANCH   1  14
ATOM     14  O   UNL     1       2.987   6.870  19.081  0.00  0.00    +0.000 OA
BRANCH  14  15
ATOM     15  C   UNL     1       2.535   7.958  18.400  0.00  0.00    +0.000 C 
ATOM     16  O   UNL     1       2.753   8.176  17.217  0.00  0.00    +0.000 OA
BRANCH  15  17
ATOM     17  C   UNL     1       1.548   8.721  19.279  0.00  0.00    +0.000 C 
BRANCH  17  18
ATOM     18  O   UNL     1       1.253  10.012  18.803  0.00  0.00    +0.000 OA
BRANCH  18  19
ATOM     19  C   UNL     1       0.375  10.752  19.555  0.00  0.00    +0.000 A 
ATOM     20  C   UNL     1       0.680  11.395  20.760  0.00  0.00    +0.000 A 
ATOM     21  C   UNL     1      -0.285  12.149  21.425  0.00  0.00    +0.000 A 
ATOM     22  C   UNL     1      -1.558  12.289  20.875  0.00  0.00    +0.000 A 
ATOM     23 CL   UNL     1      -2.742  13.242  21.686  0.00  0.00    +0.000 Cl
ATOM     24  C   UNL     1      -1.879  11.667  19.674  0.00  0.00    +0.000 A 
ATOM     25  C   UNL     1      -0.916  10.906  19.015  0.00  0.00    +0.000 A 
ATOM     26 CL   UNL     1      -1.357  10.138  17.526  0.00  0.00    +0.000 Cl
ENDBRANCH  18  19
ENDBRANCH  17  18
ENDBRANCH  15  17
ENDBRANCH  14  15
ENDBRANCH   1  14
TORSDOF 7
ENDMDL
MODEL 7
REMARK VINA RESULT:      -6.9      2.153      2.562
REMARK  Name = 
REMARK  11 active torsions:
REMARK  status: ('A' for Active; 'I' for Inactive)
REMARK    1  A    between atoms: C_1  and  C_2
REMARK    2  A    between atoms: C_2  and  C_3
REMARK    3  A    between atoms: C_2  and  C_4
REMARK    4  A    between atoms: C_4  and  O_5
REMARK    5  A    between atoms: C_4  and  P_18
REMARK    6  A    between atoms: O_5  and  C_6
REMARK    7  A    between atoms: C_6  and  C_8
REMARK    8  A    between atoms: C_8  and  O_9
REMARK    9  A    between atoms: O_9  and  C_10
REMARK   10  A    between atoms: C_22  and  C_23
REMARK   11  A    between atoms: C_22  and  C_24
REMARK                            x       y       z     vdW  Elec       q    Type
REMARK                         _______ _______ _______ _____ _____    ______ ____
ROOT
ATOM      1  C   UNL     1       2.893   5.875  18.228  0.00  0.00    +0.000 C 
ENDROOT
BRANCH   1   2
ATOM      2  P   UNL     1       4.643   5.416  18.440  0.00  0.00    +0.000 P 
ATOM      3  O   UNL     1       5.158   5.564  19.842  0.00  0.00    +0.000 OA
ATOM      4  O   UNL     1       5.457   6.328  17.386  0.00  0.00    +0.000 OA
ATOM      5  C   UNL     1       5.267   6.080  16.009  0.00  0.00    +0.000 C 
ATOM      6  C   UNL     1       5.689   4.651  15.652  0.00  0.00    +0.000 C 
ATOM      7  C   UNL     1       5.453   4.407  14.156  0.00  0.00    +0.000 C 
ATOM      8  C   UNL     1       7.185   4.462  15.968  0.00  0.00    +0.000 C 
ATOM      9  C   UNL     1       4.843   3.662  16.471  0.00  0.00    +0.000 C 
ATOM     10  O   UNL     1       4.877   3.930  17.860  0.00  0.00    +0.000 OA
ENDBRANCH   1   2
BRANCH   1  12
ATOM     11  C   UNL     1       1.573   3.699  17.932  0.00  0.00    +0.000 C 
ATOM     12  C   UNL     1       1.860   4.894  18.832  0.00  0.00    +0.000 C 
ATOM     13  C   UNL     1       2.256   4.392  20.224  0.00  0.00    +0.000 C 
ENDBRANCH   1  12
BRANCH   1  14
ATOM     14  O   UNL     1       2.778   7.136  18.943  0.00  0.00    +0.000 OA
BRANCH  14  15
ATOM     15  C   UNL     1       2.435   8.228  18.208  0.00  0.00    +0.000 C 
ATOM     16  O   UNL     1       2.789   8.429  17.055  0.00  0.00    +0.000 OA
BRANCH  15  17
ATOM     17  C   UNL     1       1.377   9.025  18.967  0.00  0.00    +0.000 C 
BRANCH  17  18
ATOM     18  O   UNL     1       1.102  10.281  18.395  0.00  0.00    +0.000 OA
BRANCH  18  19
ATOM     19  C   UNL     1      -0.146  10.799  18.633  0.00  0.00    +0.000 A 
ATOM     20  C   UNL     1      -1.326  10.401  17.992  0.00  0.00    +0.000 A 
ATOM     21  C   UNL     1      -2.548  10.975  18.336  0.00  0.00    +0.000 A 
ATOM     22  C   UNL     1      -2.605  11.935  19.346  0.00  0.00    +0.000 A 
ATOM     23 CL   UNL     1      -4.120  12.625  19.787  0.00  0.00    +0.000 Cl
ATOM     24  C   UNL     1      -1.447  12.336  20.002  0.00  0.00    +0.000 A 
ATOM     25  C   UNL     1      -0.225  11.768  19.650  0.00  0.00    +0.000 A 
ATOM     26 CL   UNL     1       1.196  12.303  20.484  0.00  0.00    +0.000 Cl
ENDBRANCH  18  19
ENDBRANCH  17  18
ENDBRANCH  15  17
ENDBRANCH  14  15
ENDBRANCH   1  14
TORSDOF 7
ENDMDL
MODEL 8
REMARK VINA RESULT:      -6.9      1.077      1.192
REMARK  Name = 
REMARK  11 active torsions:
REMARK  status: ('A' for Active; 'I' for Inactive)
REMARK    1  A    between atoms: C_1  and  C_2
REMARK    2  A    between atoms: C_2  and  C_3
REMARK    3  A    between atoms: C_2  and  C_4
REMARK    4  A    between atoms: C_4  and  O_5
REMARK    5  A    between atoms: C_4  and  P_18
REMARK    6  A    between atoms: O_5  and  C_6
REMARK    7  A    between atoms: C_6  and  C_8
REMARK    8  A    between atoms: C_8  and  O_9
REMARK    9  A    between atoms: O_9  and  C_10
REMARK   10  A    between atoms: C_22  and  C_23
REMARK   11  A    between atoms: C_22  and  C_24
REMARK                            x       y       z     vdW  Elec       q    Type
REMARK                         _______ _______ _______ _____ _____    ______ ____
ROOT
ATOM      1  C   UNL     1       2.647   4.557  18.994  0.00  0.00    +0.000 C 
ENDROOT
BRANCH   1   2
ATOM      2  P   UNL     1       4.109   3.533  18.632  0.00  0.00    +0.000 P 
ATOM      3  O   UNL     1       3.921   2.067  18.895  0.00  0.00    +0.000 OA
ATOM      4  O   UNL     1       5.306   4.167  19.509  0.00  0.00    +0.000 OA
ATOM      5  C   UNL     1       5.772   5.455  19.162  0.00  0.00    +0.000 C 
ATOM      6  C   UNL     1       6.325   5.464  17.733  0.00  0.00    +0.000 C 
ATOM      7  C   UNL     1       6.805   6.879  17.380  0.00  0.00    +0.000 C 
ATOM      8  C   UNL     1       7.512   4.487  17.634  0.00  0.00    +0.000 C 
ATOM      9  C   UNL     1       5.208   5.046  16.762  0.00  0.00    +0.000 C 
ATOM     10  O   UNL     1       4.598   3.822  17.122  0.00  0.00    +0.000 OA
ENDBRANCH   1   2
BRANCH   1  12
ATOM     11  C   UNL     1       0.814   2.811  19.385  0.00  0.00    +0.000 C 
ATOM     12  C   UNL     1       1.626   3.950  19.986  0.00  0.00    +0.000 C 
ATOM     13  C   UNL     1       2.272   3.473  21.291  0.00  0.00    +0.000 C 
ENDBRANCH   1  12
BRANCH   1  14
ATOM     14  O   UNL     1       3.206   5.751  19.608  0.00  0.00    +0.000 OA
BRANCH  14  15
ATOM     15  C   UNL     1       2.816   6.947  19.089  0.00  0.00    +0.000 C 
ATOM     16  O   UNL     1       2.970   7.281  17.922  0.00  0.00    +0.000 OA
BRANCH  15  17
ATOM     17  C   UNL     1       1.975   7.688  20.124  0.00  0.00    +0.000 C 
BRANCH  17  18
ATOM     18  O   UNL     1       1.178   8.709  19.574  0.00  0.00    +0.000 OA
BRANCH  18  19
ATOM     19  C   UNL     1       0.563   9.550  20.468  0.00  0.00    +0.000 A 
ATOM     20  C   UNL     1      -0.072   9.153  21.650  0.00  0.00    +0.000 A 
ATOM     21  C   UNL     1      -0.639  10.098  22.502  0.00  0.00    +0.000 A 
ATOM     22  C   UNL     1      -0.551  11.455  22.192  0.00  0.00    +0.000 A 
ATOM     23 CL   UNL     1      -1.230  12.624  23.258  0.00  0.00    +0.000 Cl
ATOM     24  C   UNL     1       0.084  11.871  21.028  0.00  0.00    +0.000 A 
ATOM     25  C   UNL     1       0.642  10.924  20.172  0.00  0.00    +0.000 A 
ATOM     26 CL   UNL     1       1.416  11.482  18.726  0.00  0.00    +0.000 Cl
ENDBRANCH  18  19
ENDBRANCH  17  18
ENDBRANCH  15  17
ENDBRANCH  14  15
ENDBRANCH   1  14
TORSDOF 7
ENDMDL
MODEL 9
REMARK VINA RESULT:      -6.8      1.693      2.346
REMARK  Name = 
REMARK  11 active torsions:
REMARK  status: ('A' for Active; 'I' for Inactive)
REMARK    1  A    between atoms: C_1  and  C_2
REMARK    2  A    between atoms: C_2  and  C_3
REMARK    3  A    between atoms: C_2  and  C_4
REMARK    4  A    between atoms: C_4  and  O_5
REMARK    5  A    between atoms: C_4  and  P_18
REMARK    6  A    between atoms: O_5  and  C_6
REMARK    7  A    between atoms: C_6  and  C_8
REMARK    8  A    between atoms: C_8  and  O_9
REMARK    9  A    between atoms: O_9  and  C_10
REMARK   10  A    between atoms: C_22  and  C_23
REMARK   11  A    between atoms: C_22  and  C_24
REMARK                            x       y       z     vdW  Elec       q    Type
REMARK                         _______ _______ _______ _____ _____    ______ ____
ROOT
ATOM      1  C   UNL     1       2.634   5.190  18.666  0.00  0.00    +0.000 C 
ENDROOT
BRANCH   1   2
ATOM      2  P   UNL     1       4.224   4.325  18.861  0.00  0.00    +0.000 P 
ATOM      3  O   UNL     1       4.356   3.550  20.140  0.00  0.00    +0.000 OA
ATOM      4  O   UNL     1       5.357   5.465  18.712  0.00  0.00    +0.000 OA
ATOM      5  C   UNL     1       5.521   6.074  17.448  0.00  0.00    +0.000 C 
ATOM      6  C   UNL     1       5.914   5.035  16.393  0.00  0.00    +0.000 C 
ATOM      7  C   UNL     1       6.067   5.724  15.030  0.00  0.00    +0.000 C 
ATOM      8  C   UNL     1       7.254   4.383  16.786  0.00  0.00    +0.000 C 
ATOM      9  C   UNL     1       4.808   3.970  16.306  0.00  0.00    +0.000 C 
ATOM     10  O   UNL     1       4.491   3.405  17.563  0.00  0.00    +0.000 OA
ENDBRANCH   1   2
BRANCH   1  12
ATOM     11  C   UNL     1       1.284   3.016  18.570  0.00  0.00    +0.000 C 
ATOM     12  C   UNL     1       1.382   4.421  19.149  0.00  0.00    +0.000 C 
ATOM     13  C   UNL     1       1.281   4.344  20.675  0.00  0.00    +0.000 C 
ENDBRANCH   1  12
BRANCH   1  14
ATOM     14  O   UNL     1       2.780   6.371  19.503  0.00  0.00    +0.000 OA
BRANCH  14  15
ATOM     15  C   UNL     1       2.392   7.558  18.962  0.00  0.00    +0.000 C 
ATOM     16  O   UNL     1       2.660   7.924  17.826  0.00  0.00    +0.000 OA
BRANCH  15  17
ATOM     17  C   UNL     1       1.404   8.236  19.907  0.00  0.00    +0.000 C 
BRANCH  17  18
ATOM     18  O   UNL     1       1.310   9.627  19.718  0.00  0.00    +0.000 OA
BRANCH  18  19
ATOM     19  C   UNL     1       0.132  10.092  19.189  0.00  0.00    +0.000 A 
ATOM     20  C   UNL     1      -0.424   9.692  17.969  0.00  0.00    +0.000 A 
ATOM     21  C   UNL     1      -1.646  10.208  17.543  0.00  0.00    +0.000 A 
ATOM     22  C   UNL     1      -2.337  11.111  18.350  0.00  0.00    +0.000 A 
ATOM     23 CL   UNL     1      -3.860  11.729  17.833  0.00  0.00    +0.000 Cl
ATOM     24  C   UNL     1      -1.808  11.514  19.570  0.00  0.00    +0.000 A 
ATOM     25  C   UNL     1      -0.582  11.004  19.990  0.00  0.00    +0.000 A 
ATOM     26 CL   UNL     1       0.049  11.538  21.513  0.00  0.00    +0.000 Cl
ENDBRANCH  18  19
ENDBRANCH  17  18
ENDBRANCH  15  17
ENDBRANCH  14  15
ENDBRANCH   1  14
TORSDOF 7
ENDMDL
