MODEL 1
REMARK VINA RESULT:      -8.2      0.000      0.000
REMARK  Name = 
REMARK  12 active torsions:
REMARK  status: ('A' for Active; 'I' for Inactive)
REMARK    1  A    between atoms: C_1  and  O_2
REMARK    2  A    between atoms: O_2  and  C_3
REMARK    3  A    between atoms: C_3  and  C_5
REMARK    4  A    between atoms: C_5  and  N_6
REMARK    5  A    between atoms: C_5  and  C_31
REMARK    6  A    between atoms: C_7  and  C_9
REMARK    7  A    between atoms: C_12  and  O_13
REMARK    8  A    between atoms: O_13  and  C_14
REMARK    9  A    between atoms: C_22  and  C_23
REMARK   10  A    between atoms: C_31  and  C_32
REMARK   11  A    between atoms: C_31  and  C_33
REMARK   12  A    between atoms: C_31  and  C_34
REMARK                            x       y       z     vdW  Elec       q    Type
REMARK                         _______ _______ _______ _____ _____    ______ ____
ROOT
ATOM      1  C   UNL     1       2.137   7.599  18.974  0.00  0.00    +0.000 A 
ATOM      2  C   UNL     1       1.744   8.031  20.228  0.00  0.00    +0.000 A 
ATOM      3  N   UNL     1       1.149   9.284  20.270  0.00  0.00    +0.000 NA
ATOM      4  C   UNL     1       1.122   9.813  19.064  0.00  0.00    +0.000 A 
ATOM      5  S   UNL     1       1.773   8.830  17.825  0.00  0.00    +0.000 S 
ENDROOT
BRANCH   1   7
ATOM      6  N   UNL     1       4.107   6.447  18.261  0.00  0.00    +0.000 N 
ATOM      7  C   UNL     1       2.776   6.349  18.585  0.00  0.00    +0.000 C 
ATOM      8  O   UNL     1       2.159   5.275  18.541  0.00  0.00    +0.000 OA
ATOM      9  H   UNL     1       4.537   7.366  18.365  0.00  0.00    +0.000 HD
BRANCH   6  10
ATOM     10  C   UNL     1       4.968   5.325  17.831  0.00  0.00    +0.000 C 
BRANCH  10  11
ATOM     11  C   UNL     1       6.028   5.782  16.763  0.00  0.00    +0.000 C 
ATOM     12  C   UNL     1       6.726   7.093  17.195  0.00  0.00    +0.000 C 
ATOM     13  C   UNL     1       7.106   4.694  16.538  0.00  0.00    +0.000 C 
ATOM     14  C   UNL     1       5.375   6.032  15.388  0.00  0.00    +0.000 C 
ENDBRANCH  10  11
BRANCH  10  15
ATOM     15  C   UNL     1       5.635   4.650  19.068  0.00  0.00    +0.000 C 
ATOM     16  O   UNL     1       6.360   5.224  19.869  0.00  0.00    +0.000 OA
BRANCH  15  18
ATOM     17  C   UNL     1       4.249   2.977  19.946  0.00  0.00    +0.000 C 
ATOM     18  O   UNL     1       5.358   3.311  19.107  0.00  0.00    +0.000 OA
ENDBRANCH  15  18
ENDBRANCH  10  15
ENDBRANCH   6  10
ENDBRANCH   1   7
BRANCH   4  19
ATOM     19  O   UNL     1       0.614  11.018  18.773  0.00  0.00    +0.000 OA
BRANCH  19  20
ATOM     20  C   UNL     1       1.221  12.180  19.192  0.00  0.00    +0.000 A 
ATOM     21  C   UNL     1       0.988  12.733  20.453  0.00  0.00    +0.000 A 
ATOM     22  C   UNL     1       1.561  13.948  20.797  0.00  0.00    +0.000 A 
ATOM     23  C   UNL     1       2.372  14.620  19.882  0.00  0.00    +0.000 A 
ATOM     24  C   UNL     1       2.720  14.026  18.661  0.00  0.00    +0.000 A 
ATOM     25  C   UNL     1       2.132  12.798  18.321  0.00  0.00    +0.000 A 
ATOM     26  C   UNL     1       3.595  14.756  17.674  0.00  0.00    +0.000 C 
ATOM     27  C   UNL     1       4.117  16.065  18.257  0.00  0.00    +0.000 C 
ATOM     28  C   UNL     1       3.036  16.755  19.100  0.00  0.00    +0.000 C 
ATOM     29  O   UNL     1       2.705  15.905  20.220  0.00  0.00    +0.000 OA
BRANCH  28  30
ATOM     30  C   UNL     1       1.798  17.269  18.352  0.00  0.00    +0.000 A 
ATOM     31  C   UNL     1       0.514  17.138  18.909  0.00  0.00    +0.000 A 
ATOM     32  C   UNL     1      -0.619  17.601  18.228  0.00  0.00    +0.000 A 
ATOM     33  C   UNL     1      -0.495  18.237  16.995  0.00  0.00    +0.000 A 
ATOM     34  C   UNL     1       0.763  18.394  16.432  0.00  0.00    +0.000 A 
ATOM     35  C   UNL     1       1.890  17.912  17.096  0.00  0.00    +0.000 A 
ENDBRANCH  28  30
ENDBRANCH  19  20
ENDBRANCH   4  19
TORSDOF 8
ENDMDL
MODEL 2
REMARK VINA RESULT:      -7.9      1.632      2.902
REMARK  Name = 
REMARK  12 active torsions:
REMARK  status: ('A' for Active; 'I' for Inactive)
REMARK    1  A    between atoms: C_1  and  O_2
REMARK    2  A    between atoms: O_2  and  C_3
REMARK    3  A    between atoms: C_3  and  C_5
REMARK    4  A    between atoms: C_5  and  N_6
REMARK    5  A    between atoms: C_5  and  C_31
REMARK    6  A    between atoms: C_7  and  C_9
REMARK    7  A    between atoms: C_12  and  O_13
REMARK    8  A    between atoms: O_13  and  C_14
REMARK    9  A    between atoms: C_22  and  C_23
REMARK   10  A    between atoms: C_31  and  C_32
REMARK   11  A    between atoms: C_31  and  C_33
REMARK   12  A    between atoms: C_31  and  C_34
REMARK                            x       y       z     vdW  Elec       q    Type
REMARK                         _______ _______ _______ _____ _____    ______ ____
ROOT
ATOM      1  C   UNL     1       1.885   8.113  19.371  0.00  0.00    +0.000 A 
ATOM      2  C   UNL     1       1.428   8.373  20.651  0.00  0.00    +0.000 A 
ATOM      3  N   UNL     1       0.757   9.576  20.814  0.00  0.00    +0.000 NA
ATOM      4  C   UNL     1       0.736  10.240  19.677  0.00  0.00    +0.000 A 
ATOM      5  S   UNL     1       1.483   9.447  18.358  0.00  0.00    +0.000 S 
ENDROOT
BRANCH   1   7
ATOM      6  N   UNL     1       2.215   5.745  19.380  0.00  0.00    +0.000 N 
ATOM      7  C   UNL     1       2.611   6.955  18.866  0.00  0.00    +0.000 C 
ATOM      8  O   UNL     1       3.528   7.058  18.038  0.00  0.00    +0.000 OA
ATOM      9  H   UNL     1       1.426   5.757  20.026  0.00  0.00    +0.000 HD
BRANCH   6  10
ATOM     10  C   UNL     1       2.802   4.434  19.029  0.00  0.00    +0.000 C 
BRANCH  10  11
ATOM     11  C   UNL     1       2.550   3.365  20.156  0.00  0.00    +0.000 C 
ATOM     12  C   UNL     1       3.775   2.438  20.330  0.00  0.00    +0.000 C 
ATOM     13  C   UNL     1       2.239   4.042  21.513  0.00  0.00    +0.000 C 
ATOM     14  C   UNL     1       1.333   2.474  19.829  0.00  0.00    +0.000 C 
ENDBRANCH  10  11
BRANCH  10  15
ATOM     15  C   UNL     1       2.274   3.958  17.641  0.00  0.00    +0.000 C 
ATOM     16  O   UNL     1       1.150   4.175  17.211  0.00  0.00    +0.000 OA
BRANCH  15  18
ATOM     17  C   UNL     1       4.415   3.920  16.688  0.00  0.00    +0.000 C 
ATOM     18  O   UNL     1       3.213   3.205  16.989  0.00  0.00    +0.000 OA
ENDBRANCH  15  18
ENDBRANCH  10  15
ENDBRANCH   6  10
ENDBRANCH   1   7
BRANCH   4  19
ATOM     19  O   UNL     1       0.165  11.440  19.507  0.00  0.00    +0.000 OA
BRANCH  19  20
ATOM     20  C   UNL     1       0.844  12.608  19.767  0.00  0.00    +0.000 A 
ATOM     21  C   UNL     1       0.727  13.287  20.982  0.00  0.00    +0.000 A 
ATOM     22  C   UNL     1       1.369  14.502  21.166  0.00  0.00    +0.000 A 
ATOM     23  C   UNL     1       2.133  15.049  20.134  0.00  0.00    +0.000 A 
ATOM     24  C   UNL     1       2.365  14.330  18.955  0.00  0.00    +0.000 A 
ATOM     25  C   UNL     1       1.708  13.102  18.777  0.00  0.00    +0.000 A 
ATOM     26  C   UNL     1       3.190  14.925  17.842  0.00  0.00    +0.000 C 
ATOM     27  C   UNL     1       3.801  16.259  18.257  0.00  0.00    +0.000 C 
ATOM     28  C   UNL     1       2.814  17.071  19.105  0.00  0.00    +0.000 C 
ATOM     29  O   UNL     1       2.537  16.345  20.322  0.00  0.00    +0.000 OA
BRANCH  28  30
ATOM     30  C   UNL     1       1.542  17.567  18.400  0.00  0.00    +0.000 A 
ATOM     31  C   UNL     1       1.587  18.027  17.073  0.00  0.00    +0.000 A 
ATOM     32  C   UNL     1       0.431  18.484  16.428  0.00  0.00    +0.000 A 
ATOM     33  C   UNL     1      -0.801  18.458  17.078  0.00  0.00    +0.000 A 
ATOM     34  C   UNL     1      -0.875  17.993  18.382  0.00  0.00    +0.000 A 
ATOM     35  C   UNL     1       0.279  17.561  19.035  0.00  0.00    +0.000 A 
ENDBRANCH  28  30
ENDBRANCH  19  20
ENDBRANCH   4  19
TORSDOF 8
ENDMDL
MODEL 3
REMARK VINA RESULT:      -7.8      1.086      1.963
REMARK  Name = 
REMARK  12 active torsions:
REMARK  status: ('A' for Active; 'I' for Inactive)
REMARK    1  A    between atoms: C_1  and  O_2
REMARK    2  A    between atoms: O_2  and  C_3
REMARK    3  A    between atoms: C_3  and  C_5
REMARK    4  A    between atoms: C_5  and  N_6
REMARK    5  A    between atoms: C_5  and  C_31
REMARK    6  A    between atoms: C_7  and  C_9
REMARK    7  A    between atoms: C_12  and  O_13
REMARK    8  A    between atoms: O_13  and  C_14
REMARK    9  A    between atoms: C_22  and  C_23
REMARK   10  A    between atoms: C_31  and  C_32
REMARK   11  A    between atoms: C_31  and  C_33
REMARK   12  A    between atoms: C_31  and  C_34
REMARK                            x       y       z     vdW  Elec       q    Type
REMARK                         _______ _______ _______ _____ _____    ______ ____
ROOT
ATOM      1  C   UNL     1       1.866   7.624  19.940  0.00  0.00    +0.000 A 
ATOM      2  C   UNL     1       1.117   8.297  20.889  0.00  0.00    +0.000 A 
ATOM      3  N   UNL     1       0.686   9.564  20.522  0.00  0.00    +0.000 NA
ATOM      4  C   UNL     1       1.134   9.864  19.320  0.00  0.00    +0.000 A 
ATOM      5  S   UNL     1       2.057   8.640  18.562  0.00  0.00    +0.000 S 
ENDROOT
BRANCH   1   7
ATOM      6  N   UNL     1       3.392   6.022  19.033  0.00  0.00    +0.000 N 
ATOM      7  C   UNL     1       2.458   6.294  20.003  0.00  0.00    +0.000 C 
ATOM      8  O   UNL     1       2.134   5.465  20.865  0.00  0.00    +0.000 OA
ATOM      9  H   UNL     1       3.621   6.781  18.392  0.00  0.00    +0.000 HD
BRANCH   6  10
ATOM     10  C   UNL     1       4.124   4.745  18.885  0.00  0.00    +0.000 C 
BRANCH  10  11
ATOM     11  C   UNL     1       3.494   3.843  17.761  0.00  0.00    +0.000 C 
ATOM     12  C   UNL     1       3.571   2.345  18.139  0.00  0.00    +0.000 C 
ATOM     13  C   UNL     1       2.014   4.217  17.503  0.00  0.00    +0.000 C 
ATOM     14  C   UNL     1       4.225   4.023  16.415  0.00  0.00    +0.000 C 
ENDBRANCH  10  11
BRANCH  10  15
ATOM     15  C   UNL     1       5.639   5.016  18.639  0.00  0.00    +0.000 C 
ATOM     16  O   UNL     1       6.539   4.231  18.904  0.00  0.00    +0.000 OA
BRANCH  15  18
ATOM     17  C   UNL     1       6.976   6.384  17.285  0.00  0.00    +0.000 C 
ATOM     18  O   UNL     1       5.840   6.277  18.147  0.00  0.00    +0.000 OA
ENDBRANCH  15  18
ENDBRANCH  10  15
ENDBRANCH   6  10
ENDBRANCH   1   7
BRANCH   4  19
ATOM     19  O   UNL     1       0.893  11.019  18.686  0.00  0.00    +0.000 OA
BRANCH  19  20
ATOM     20  C   UNL     1       1.438  12.208  19.112  0.00  0.00    +0.000 A 
ATOM     21  C   UNL     1       1.204  12.722  20.390  0.00  0.00    +0.000 A 
ATOM     22  C   UNL     1       1.711  13.963  20.745  0.00  0.00    +0.000 A 
ATOM     23  C   UNL     1       2.457  14.700  19.824  0.00  0.00    +0.000 A 
ATOM     24  C   UNL     1       2.809  14.152  18.584  0.00  0.00    +0.000 A 
ATOM     25  C   UNL     1       2.288  12.897  18.233  0.00  0.00    +0.000 A 
ATOM     26  C   UNL     1       3.614  14.951  17.591  0.00  0.00    +0.000 C 
ATOM     27  C   UNL     1       4.070  16.279  18.188  0.00  0.00    +0.000 C 
ATOM     28  C   UNL     1       2.971  16.886  19.071  0.00  0.00    +0.000 C 
ATOM     29  O   UNL     1       2.720  15.997  20.180  0.00  0.00    +0.000 OA
BRANCH  28  30
ATOM     30  C   UNL     1       1.685  17.338  18.362  0.00  0.00    +0.000 A 
ATOM     31  C   UNL     1       0.428  17.140  18.959  0.00  0.00    +0.000 A 
ATOM     32  C   UNL     1      -0.748  17.546  18.315  0.00  0.00    +0.000 A 
ATOM     33  C   UNL     1      -0.695  18.190  17.081  0.00  0.00    +0.000 A 
ATOM     34  C   UNL     1       0.535  18.411  16.479  0.00  0.00    +0.000 A 
ATOM     35  C   UNL     1       1.706  17.986  17.106  0.00  0.00    +0.000 A 
ENDBRANCH  28  30
ENDBRANCH  19  20
ENDBRANCH   4  19
TORSDOF 8
ENDMDL
MODEL 4
REMARK VINA RESULT:      -7.6      1.587      2.772
REMARK  Name = 
REMARK  12 active torsions:
REMARK  status: ('A' for Active; 'I' for Inactive)
REMARK    1  A    between atoms: C_1  and  O_2
REMARK    2  A    between atoms: O_2  and  C_3
REMARK    3  A    between atoms: C_3  and  C_5
REMARK    4  A    between atoms: C_5  and  N_6
REMARK    5  A    between atoms: C_5  and  C_31
REMARK    6  A    between atoms: C_7  and  C_9
REMARK    7  A    between atoms: C_12  and  O_13
REMARK    8  A    between atoms: O_13  and  C_14
REMARK    9  A    between atoms: C_22  and  C_23
REMARK   10  A    between atoms: C_31  and  C_32
REMARK   11  A    between atoms: C_31  and  C_33
REMARK   12  A    between atoms: C_31  and  C_34
REMARK                            x       y       z     vdW  Elec       q    Type
REMARK                         _______ _______ _______ _____ _____    ______ ____
ROOT
ATOM      1  C   UNL     1       1.965   8.008  19.267  0.00  0.00    +0.000 A 
ATOM      2  C   UNL     1       1.489   8.319  20.529  0.00  0.00    +0.000 A 
ATOM      3  N   UNL     1       0.826   9.533  20.635  0.00  0.00    +0.000 NA
ATOM      4  C   UNL     1       0.831  10.155  19.475  0.00  0.00    +0.000 A 
ATOM      5  S   UNL     1       1.594   9.308  18.200  0.00  0.00    +0.000 S 
ENDROOT
BRANCH   1   7
ATOM      6  N   UNL     1       2.220   5.631  19.304  0.00  0.00    +0.000 N 
ATOM      7  C   UNL     1       2.689   6.827  18.818  0.00  0.00    +0.000 C 
ATOM      8  O   UNL     1       3.666   6.898  18.058  0.00  0.00    +0.000 OA
ATOM      9  H   UNL     1       1.387   5.671  19.891  0.00  0.00    +0.000 HD
BRANCH   6  10
ATOM     10  C   UNL     1       2.789   4.301  18.998  0.00  0.00    +0.000 C 
BRANCH  10  11
ATOM     11  C   UNL     1       2.211   3.190  19.950  0.00  0.00    +0.000 C 
ATOM     12  C   UNL     1       0.952   3.692  20.694  0.00  0.00    +0.000 C 
ATOM     13  C   UNL     1       1.847   1.908  19.162  0.00  0.00    +0.000 C 
ATOM     14  C   UNL     1       3.244   2.763  21.015  0.00  0.00    +0.000 C 
ENDBRANCH  10  11
BRANCH  10  15
ATOM     15  C   UNL     1       2.576   3.953  17.494  0.00  0.00    +0.000 C 
ATOM     16  O   UNL     1       1.487   3.760  16.970  0.00  0.00    +0.000 OA
BRANCH  15  18
ATOM     17  C   UNL     1       4.894   3.693  17.723  0.00  0.00    +0.000 C 
ATOM     18  O   UNL     1       3.773   3.827  16.844  0.00  0.00    +0.000 OA
ENDBRANCH  15  18
ENDBRANCH  10  15
ENDBRANCH   6  10
ENDBRANCH   1   7
BRANCH   4  19
ATOM     19  O   UNL     1       0.274  11.353  19.251  0.00  0.00    +0.000 OA
BRANCH  19  20
ATOM     20  C   UNL     1       0.926  12.524  19.563  0.00  0.00    +0.000 A 
ATOM     21  C   UNL     1       0.778  13.156  20.799  0.00  0.00    +0.000 A 
ATOM     22  C   UNL     1       1.392  14.377  21.036  0.00  0.00    +0.000 A 
ATOM     23  C   UNL     1       2.161  14.975  20.037  0.00  0.00    +0.000 A 
ATOM     24  C   UNL     1       2.425  14.302  18.836  0.00  0.00    +0.000 A 
ATOM     25  C   UNL     1       1.795  13.069  18.605  0.00  0.00    +0.000 A 
ATOM     26  C   UNL     1       3.254  14.952  17.758  0.00  0.00    +0.000 C 
ATOM     27  C   UNL     1       3.833  16.282  18.230  0.00  0.00    +0.000 C 
ATOM     28  C   UNL     1       2.817  17.045  19.090  0.00  0.00    +0.000 C 
ATOM     29  O   UNL     1       2.537  16.270  20.277  0.00  0.00    +0.000 OA
BRANCH  28  30
ATOM     30  C   UNL     1       1.547  17.541  18.384  0.00  0.00    +0.000 A 
ATOM     31  C   UNL     1       0.304  17.523  19.042  0.00  0.00    +0.000 A 
ATOM     32  C   UNL     1      -0.858  17.970  18.401  0.00  0.00    +0.000 A 
ATOM     33  C   UNL     1      -0.803  18.478  17.106  0.00  0.00    +0.000 A 
ATOM     34  C   UNL     1       0.414  18.521  16.441  0.00  0.00    +0.000 A 
ATOM     35  C   UNL     1       1.569  18.054  17.068  0.00  0.00    +0.000 A 
ENDBRANCH  28  30
ENDBRANCH  19  20
ENDBRANCH   4  19
TORSDOF 8
ENDMDL
MODEL 5
REMARK VINA RESULT:      -7.6      1.409      2.514
REMARK  Name = 
REMARK  12 active torsions:
REMARK  status: ('A' for Active; 'I' for Inactive)
REMARK    1  A    between atoms: C_1  and  O_2
REMARK    2  A    between atoms: O_2  and  C_3
REMARK    3  A    between atoms: C_3  and  C_5
REMARK    4  A    between atoms: C_5  and  N_6
REMARK    5  A    between atoms: C_5  and  C_31
REMARK    6  A    between atoms: C_7  and  C_9
REMARK    7  A    between atoms: C_12  and  O_13
REMARK    8  A    between atoms: O_13  and  C_14
REMARK    9  A    between atoms: C_22  and  C_23
REMARK   10  A    between atoms: C_31  and  C_32
REMARK   11  A    between atoms: C_31  and  C_33
REMARK   12  A    between atoms: C_31  and  C_34
REMARK                            x       y       z     vdW  Elec       q    Type
REMARK                         _______ _______ _______ _____ _____    ______ ____
ROOT
ATOM      1  C   UNL     1       1.991   8.110  19.132  0.00  0.00    +0.000 A 
ATOM      2  C   UNL     1       2.231   8.582  17.853  0.00  0.00    +0.000 A 
ATOM      3  N   UNL     1       1.679   9.820  17.560  0.00  0.00    +0.000 NA
ATOM      4  C   UNL     1       0.996  10.269  18.593  0.00  0.00    +0.000 A 
ATOM      5  S   UNL     1       1.009   9.252  19.969  0.00  0.00    +0.000 S 
ENDROOT
BRANCH   1   7
ATOM      6  N   UNL     1       3.079   5.991  18.923  0.00  0.00    +0.000 N 
ATOM      7  C   UNL     1       2.425   6.867  19.755  0.00  0.00    +0.000 C 
ATOM      8  O   UNL     1       2.210   6.614  20.949  0.00  0.00    +0.000 OA
ATOM      9  H   UNL     1       3.243   6.304  17.966  0.00  0.00    +0.000 HD
BRANCH   6  10
ATOM     10  C   UNL     1       3.607   4.668  19.318  0.00  0.00    +0.000 C 
BRANCH  10  11
ATOM     11  C   UNL     1       2.568   3.521  19.037  0.00  0.00    +0.000 C 
ATOM     12  C   UNL     1       1.645   3.881  17.850  0.00  0.00    +0.000 C 
ATOM     13  C   UNL     1       3.280   2.181  18.727  0.00  0.00    +0.000 C 
ATOM     14  C   UNL     1       1.670   3.257  20.264  0.00  0.00    +0.000 C 
ENDBRANCH  10  11
BRANCH  10  15
ATOM     15  C   UNL     1       4.977   4.402  18.623  0.00  0.00    +0.000 C 
ATOM     16  O   UNL     1       5.949   3.899  19.168  0.00  0.00    +0.000 OA
BRANCH  15  18
ATOM     17  C   UNL     1       5.586   3.974  16.401  0.00  0.00    +0.000 C 
ATOM     18  O   UNL     1       4.973   4.866  17.336  0.00  0.00    +0.000 OA
ENDBRANCH  15  18
ENDBRANCH  10  15
ENDBRANCH   6  10
ENDBRANCH   1   7
BRANCH   4  19
ATOM     19  O   UNL     1       0.341  11.437  18.624  0.00  0.00    +0.000 OA
BRANCH  19  20
ATOM     20  C   UNL     1       0.926  12.582  19.113  0.00  0.00    +0.000 A 
ATOM     21  C   UNL     1       0.555  13.148  20.335  0.00  0.00    +0.000 A 
ATOM     22  C   UNL     1       1.117  14.347  20.747  0.00  0.00    +0.000 A 
ATOM     23  C   UNL     1       2.055  14.991  19.938  0.00  0.00    +0.000 A 
ATOM     24  C   UNL     1       2.533  14.382  18.770  0.00  0.00    +0.000 A 
ATOM     25  C   UNL     1       1.955  13.170  18.361  0.00  0.00    +0.000 A 
ATOM     26  C   UNL     1       3.544  15.081  17.898  0.00  0.00    +0.000 C 
ATOM     27  C   UNL     1       4.028  16.377  18.540  0.00  0.00    +0.000 C 
ATOM     28  C   UNL     1       2.873  17.102  19.243  0.00  0.00    +0.000 C 
ATOM     29  O   UNL     1       2.381  16.267  20.314  0.00  0.00    +0.000 OA
BRANCH  28  30
ATOM     30  C   UNL     1       1.752  17.649  18.346  0.00  0.00    +0.000 A 
ATOM     31  C   UNL     1       1.888  17.655  16.947  0.00  0.00    +0.000 A 
ATOM     32  C   UNL     1       0.871  18.157  16.125  0.00  0.00    +0.000 A 
ATOM     33  C   UNL     1      -0.318  18.629  16.677  0.00  0.00    +0.000 A 
ATOM     34  C   UNL     1      -0.483  18.619  18.054  0.00  0.00    +0.000 A 
ATOM     35  C   UNL     1       0.538  18.143  18.876  0.00  0.00    +0.000 A 
ENDBRANCH  28  30
ENDBRANCH  19  20
ENDBRANCH   4  19
TORSDOF 8
ENDMDL
MODEL 6
REMARK VINA RESULT:      -7.5      1.298      2.255
REMARK  Name = 
REMARK  12 active torsions:
REMARK  status: ('A' for Active; 'I' for Inactive)
REMARK    1  A    between atoms: C_1  and  O_2
REMARK    2  A    between atoms: O_2  and  C_3
REMARK    3  A    between atoms: C_3  and  C_5
REMARK    4  A    between atoms: C_5  and  N_6
REMARK    5  A    between atoms: C_5  and  C_31
REMARK    6  A    between atoms: C_7  and  C_9
REMARK    7  A    between atoms: C_12  and  O_13
REMARK    8  A    between atoms: O_13  and  C_14
REMARK    9  A    between atoms: C_22  and  C_23
REMARK   10  A    between atoms: C_31  and  C_32
REMARK   11  A    between atoms: C_31  and  C_33
REMARK   12  A    between atoms: C_31  and  C_34
REMARK                            x       y       z     vdW  Elec       q    Type
REMARK                         _______ _______ _______ _____ _____    ______ ____
ROOT
ATOM      1  C   UNL     1       1.736   8.153  19.332  0.00  0.00    +0.000 A 
ATOM      2  C   UNL     1       1.775   8.631  18.033  0.00  0.00    +0.000 A 
ATOM      3  N   UNL     1       1.181   9.868  17.833  0.00  0.00    +0.000 NA
ATOM      4  C   UNL     1       0.663  10.310  18.960  0.00  0.00    +0.000 A 
ATOM      5  S   UNL     1       0.891   9.288  20.313  0.00  0.00    +0.000 S 
ENDROOT
BRANCH   1   7
ATOM      6  N   UNL     1       3.261   6.322  19.135  0.00  0.00    +0.000 N 
ATOM      7  C   UNL     1       2.264   6.910  19.876  0.00  0.00    +0.000 C 
ATOM      8  O   UNL     1       1.837   6.413  20.928  0.00  0.00    +0.000 OA
ATOM      9  H   UNL     1       3.572   6.826  18.305  0.00  0.00    +0.000 HD
BRANCH   6  10
ATOM     10  C   UNL     1       3.948   5.058  19.476  0.00  0.00    +0.000 C 
BRANCH  10  11
ATOM     11  C   UNL     1       3.184   3.809  18.900  0.00  0.00    +0.000 C 
ATOM     12  C   UNL     1       2.247   3.189  19.962  0.00  0.00    +0.000 C 
ATOM     13  C   UNL     1       2.346   4.187  17.654  0.00  0.00    +0.000 C 
ATOM     14  C   UNL     1       4.164   2.708  18.443  0.00  0.00    +0.000 C 
ENDBRANCH  10  11
BRANCH  10  15
ATOM     15  C   UNL     1       5.433   5.106  19.004  0.00  0.00    +0.000 C 
ATOM     16  O   UNL     1       6.387   4.716  19.663  0.00  0.00    +0.000 OA
BRANCH  15  18
ATOM     17  C   UNL     1       6.541   5.118  16.939  0.00  0.00    +0.000 C 
ATOM     18  O   UNL     1       5.541   5.703  17.778  0.00  0.00    +0.000 OA
ENDBRANCH  15  18
ENDBRANCH  10  15
ENDBRANCH   6  10
ENDBRANCH   1   7
BRANCH   4  19
ATOM     19  O   UNL     1       0.017  11.475  19.095  0.00  0.00    +0.000 OA
BRANCH  19  20
ATOM     20  C   UNL     1       0.671  12.628  19.463  0.00  0.00    +0.000 A 
ATOM     21  C   UNL     1       0.436  13.264  20.685  0.00  0.00    +0.000 A 
ATOM     22  C   UNL     1       1.062  14.467  20.975  0.00  0.00    +0.000 A 
ATOM     23  C   UNL     1       1.928  15.044  20.046  0.00  0.00    +0.000 A 
ATOM     24  C   UNL     1       2.275  14.365  18.871  0.00  0.00    +0.000 A 
ATOM     25  C   UNL     1       1.633  13.150  18.584  0.00  0.00    +0.000 A 
ATOM     26  C   UNL     1       3.210  14.992  17.868  0.00  0.00    +0.000 C 
ATOM     27  C   UNL     1       3.783  16.305  18.390  0.00  0.00    +0.000 C 
ATOM     28  C   UNL     1       2.719  17.095  19.164  0.00  0.00    +0.000 C 
ATOM     29  O   UNL     1       2.317  16.329  20.320  0.00  0.00    +0.000 OA
BRANCH  28  30
ATOM     30  C   UNL     1       1.526  17.626  18.354  0.00  0.00    +0.000 A 
ATOM     31  C   UNL     1       0.254  17.746  18.940  0.00  0.00    +0.000 A 
ATOM     32  C   UNL     1      -0.837  18.225  18.205  0.00  0.00    +0.000 A 
ATOM     33  C   UNL     1      -0.678  18.629  16.881  0.00  0.00    +0.000 A 
ATOM     34  C   UNL     1       0.571  18.536  16.284  0.00  0.00    +0.000 A 
ATOM     35  C   UNL     1       1.654  18.036  17.007  0.00  0.00    +0.000 A 
ENDBRANCH  28  30
ENDBRANCH  19  20
ENDBRANCH   4  19
TORSDOF 8
ENDMDL
MODEL 7
REMARK VINA RESULT:      -7.5      4.740      6.354
REMARK  Name = 
REMARK  12 active torsions:
REMARK  status: ('A' for Active; 'I' for Inactive)
REMARK    1  A    between atoms: C_1  and  O_2
REMARK    2  A    between atoms: O_2  and  C_3
REMARK    3  A    between atoms: C_3  and  C_5
REMARK    4  A    between atoms: C_5  and  N_6
REMARK    5  A    between atoms: C_5  and  C_31
REMARK    6  A    between atoms: C_7  and  C_9
REMARK    7  A    between atoms: C_12  and  O_13
REMARK    8  A    between atoms: O_13  and  C_14
REMARK    9  A    between atoms: C_22  and  C_23
REMARK   10  A    between atoms: C_31  and  C_32
REMARK   11  A    between atoms: C_31  and  C_33
REMARK   12  A    between atoms: C_31  and  C_34
REMARK                            x       y       z     vdW  Elec       q    Type
REMARK                         _______ _______ _______ _____ _____    ______ ____
ROOT
ATOM      1  C   UNL     1       1.151   9.048  19.393  0.00  0.00    +0.000 A 
ATOM      2  C   UNL     1       1.460   9.633  18.177  0.00  0.00    +0.000 A 
ATOM      3  N   UNL     1       0.705  10.746  17.840  0.00  0.00    +0.000 NA
ATOM      4  C   UNL     1      -0.193  10.985  18.774  0.00  0.00    +0.000 A 
ATOM      5  S   UNL     1      -0.155   9.915  20.107  0.00  0.00    +0.000 S 
ENDROOT
BRANCH   1   7
ATOM      6  N   UNL     1       2.431   7.038  19.203  0.00  0.00    +0.000 N 
ATOM      7  C   UNL     1       1.747   7.887  20.038  0.00  0.00    +0.000 C 
ATOM      8  O   UNL     1       1.637   7.675  21.255  0.00  0.00    +0.000 OA
ATOM      9  H   UNL     1       2.501   7.316  18.224  0.00  0.00    +0.000 HD
BRANCH   6  10
ATOM     10  C   UNL     1       3.114   5.794  19.619  0.00  0.00    +0.000 C 
BRANCH  10  11
ATOM     11  C   UNL     1       2.276   4.518  19.243  0.00  0.00    +0.000 C 
ATOM     12  C   UNL     1       3.170   3.258  19.185  0.00  0.00    +0.000 C 
ATOM     13  C   UNL     1       1.136   4.273  20.263  0.00  0.00    +0.000 C 
ATOM     14  C   UNL     1       1.596   4.672  17.866  0.00  0.00    +0.000 C 
ENDBRANCH  10  11
BRANCH  10  15
ATOM     15  C   UNL     1       4.555   5.744  19.026  0.00  0.00    +0.000 C 
ATOM     16  O   UNL     1       5.549   5.377  19.638  0.00  0.00    +0.000 OA
BRANCH  15  18
ATOM     17  C   UNL     1       5.891   6.544  17.274  0.00  0.00    +0.000 C 
ATOM     18  O   UNL     1       4.578   6.229  17.746  0.00  0.00    +0.000 OA
ENDBRANCH  15  18
ENDBRANCH  10  15
ENDBRANCH   6  10
ENDBRANCH   1   7
BRANCH   4  19
ATOM     19  O   UNL     1      -1.077  11.990  18.739  0.00  0.00    +0.000 OA
BRANCH  19  20
ATOM     20  C   UNL     1      -2.410  11.774  18.472  0.00  0.00    +0.000 A 
ATOM     21  C   UNL     1      -2.856  11.282  17.244  0.00  0.00    +0.000 A 
ATOM     22  C   UNL     1      -4.215  11.158  16.994  0.00  0.00    +0.000 A 
ATOM     23  C   UNL     1      -5.138  11.525  17.974  0.00  0.00    +0.000 A 
ATOM     24  C   UNL     1      -4.714  11.901  19.255  0.00  0.00    +0.000 A 
ATOM     25  C   UNL     1      -3.337  12.028  19.495  0.00  0.00    +0.000 A 
ATOM     26  C   UNL     1      -5.715  12.299  20.309  0.00  0.00    +0.000 C 
ATOM     27  C   UNL     1      -7.146  12.082  19.826  0.00  0.00    +0.000 C 
ATOM     28  C   UNL     1      -7.284  12.458  18.345  0.00  0.00    +0.000 C 
ATOM     29  O   UNL     1      -6.444  11.583  17.562  0.00  0.00    +0.000 OA
BRANCH  28  30
ATOM     30  C   UNL     1      -7.102  13.940  17.988  0.00  0.00    +0.000 A 
ATOM     31  C   UNL     1      -7.184  14.375  16.653  0.00  0.00    +0.000 A 
ATOM     32  C   UNL     1      -7.014  15.724  16.322  0.00  0.00    +0.000 A 
ATOM     33  C   UNL     1      -6.796  16.676  17.315  0.00  0.00    +0.000 A 
ATOM     34  C   UNL     1      -6.727  16.276  18.641  0.00  0.00    +0.000 A 
ATOM     35  C   UNL     1      -6.871  14.929  18.971  0.00  0.00    +0.000 A 
ENDBRANCH  28  30
ENDBRANCH  19  20
ENDBRANCH   4  19
TORSDOF 8
ENDMDL
MODEL 8
REMARK VINA RESULT:      -7.5      0.750      1.360
REMARK  Name = 
REMARK  12 active torsions:
REMARK  status: ('A' for Active; 'I' for Inactive)
REMARK    1  A    between atoms: C_1  and  O_2
REMARK    2  A    between atoms: O_2  and  C_3
REMARK    3  A    between atoms: C_3  and  C_5
REMARK    4  A    between atoms: C_5  and  N_6
REMARK    5  A    between atoms: C_5  and  C_31
REMARK    6  A    between atoms: C_7  and  C_9
REMARK    7  A    between atoms: C_12  and  O_13
REMARK    8  A    between atoms: O_13  and  C_14
REMARK    9  A    between atoms: C_22  and  C_23
REMARK   10  A    between atoms: C_31  and  C_32
REMARK   11  A    between atoms: C_31  and  C_33
REMARK   12  A    between atoms: C_31  and  C_34
REMARK                            x       y       z     vdW  Elec       q    Type
REMARK                         _______ _______ _______ _____ _____    ______ ____
ROOT
ATOM      1  C   UNL     1       2.226   7.562  19.061  0.00  0.00    +0.000 A 
ATOM      2  C   UNL     1       1.640   8.032  20.224  0.00  0.00    +0.000 A 
ATOM      3  N   UNL     1       1.064   9.291  20.137  0.00  0.00    +0.000 NA
ATOM      4  C   UNL     1       1.242   9.788  18.930  0.00  0.00    +0.000 A 
ATOM      5  S   UNL     1       2.072   8.765  17.838  0.00  0.00    +0.000 S 
ENDROOT
BRANCH   1   7
ATOM      6  N   UNL     1       3.953   6.355  17.931  0.00  0.00    +0.000 N 
ATOM      7  C   UNL     1       2.903   6.296  18.814  0.00  0.00    +0.000 C 
ATOM      8  O   UNL     1       2.548   5.239  19.355  0.00  0.00    +0.000 OA
ATOM      9  H   UNL     1       4.194   7.277  17.567  0.00  0.00    +0.000 HD
BRANCH   6  10
ATOM     10  C   UNL     1       4.787   5.207  17.515  0.00  0.00    +0.000 C 
BRANCH  10  11
ATOM     11  C   UNL     1       5.419   5.434  16.093  0.00  0.00    +0.000 C 
ATOM     12  C   UNL     1       4.958   4.345  15.097  0.00  0.00    +0.000 C 
ATOM     13  C   UNL     1       5.040   6.824  15.524  0.00  0.00    +0.000 C 
ATOM     14  C   UNL     1       6.961   5.396  16.146  0.00  0.00    +0.000 C 
ENDBRANCH  10  11
BRANCH  10  15
ATOM     15  C   UNL     1       5.869   4.905  18.596  0.00  0.00    +0.000 C 
ATOM     16  O   UNL     1       5.949   3.863  19.230  0.00  0.00    +0.000 OA
BRANCH  15  18
ATOM     17  C   UNL     1       7.773   5.733  19.684  0.00  0.00    +0.000 C 
ATOM     18  O   UNL     1       6.683   5.987  18.793  0.00  0.00    +0.000 OA
ENDBRANCH  15  18
ENDBRANCH  10  15
ENDBRANCH   6  10
ENDBRANCH   1   7
BRANCH   4  19
ATOM     19  O   UNL     1       0.806  10.990  18.530  0.00  0.00    +0.000 OA
BRANCH  19  20
ATOM     20  C   UNL     1       1.351  12.157  19.014  0.00  0.00    +0.000 A 
ATOM     21  C   UNL     1       1.036  12.661  20.278  0.00  0.00    +0.000 A 
ATOM     22  C   UNL     1       1.549  13.882  20.689  0.00  0.00    +0.000 A 
ATOM     23  C   UNL     1       2.383  14.608  19.838  0.00  0.00    +0.000 A 
ATOM     24  C   UNL     1       2.813  14.066  18.620  0.00  0.00    +0.000 A 
ATOM     25  C   UNL     1       2.284  12.831  18.212  0.00  0.00    +0.000 A 
ATOM     26  C   UNL     1       3.713  14.854  17.702  0.00  0.00    +0.000 C 
ATOM     27  C   UNL     1       4.160  16.160  18.351  0.00  0.00    +0.000 C 
ATOM     28  C   UNL     1       3.015  16.788  19.157  0.00  0.00    +0.000 C 
ATOM     29  O   UNL     1       2.655  15.892  20.232  0.00  0.00    +0.000 OA
BRANCH  28  30
ATOM     30  C   UNL     1       1.800  17.286  18.361  0.00  0.00    +0.000 A 
ATOM     31  C   UNL     1       0.500  17.176  18.886  0.00  0.00    +0.000 A 
ATOM     32  C   UNL     1      -0.611  17.624  18.162  0.00  0.00    +0.000 A 
ATOM     33  C   UNL     1      -0.450  18.225  16.916  0.00  0.00    +0.000 A 
ATOM     34  C   UNL     1       0.823  18.361  16.382  0.00  0.00    +0.000 A 
ATOM     35  C   UNL     1       1.930  17.892  17.091  0.00  0.00    +0.000 A 
ENDBRANCH  28  30
ENDBRANCH  19  20
ENDBRANCH   4  19
TORSDOF 8
ENDMDL
MODEL 9
REMARK VINA RESULT:      -7.4      1.218      2.213
REMARK  Name = 
REMARK  12 active torsions:
REMARK  status: ('A' for Active; 'I' for Inactive)
REMARK    1  A    between atoms: C_1  and  O_2
REMARK    2  A    between atoms: O_2  and  C_3
REMARK    3  A    between atoms: C_3  and  C_5
REMARK    4  A    between atoms: C_5  and  N_6
REMARK    5  A    between atoms: C_5  and  C_31
REMARK    6  A    between atoms: C_7  and  C_9
REMARK    7  A    between atoms: C_12  and  O_13
REMARK    8  A    between atoms: O_13  and  C_14
REMARK    9  A    between atoms: C_22  and  C_23
REMARK   10  A    between atoms: C_31  and  C_32
REMARK   11  A    between atoms: C_31  and  C_33
REMARK   12  A    between atoms: C_31  and  C_34
REMARK                            x       y       z     vdW  Elec       q    Type
REMARK                         _______ _______ _______ _____ _____    ______ ____
ROOT
ATOM      1  C   UNL     1       1.594   7.807  20.353  0.00  0.00    +0.000 A 
ATOM      2  C   UNL     1       0.934   8.403  21.413  0.00  0.00    +0.000 A 
ATOM      3  N   UNL     1       0.411   9.663  21.159  0.00  0.00    +0.000 NA
ATOM      4  C   UNL     1       0.700  10.034  19.929  0.00  0.00    +0.000 A 
ATOM      5  S   UNL     1       1.578   8.888  19.012  0.00  0.00    +0.000 S 
ENDROOT
BRANCH   1   7
ATOM      6  N   UNL     1       3.180   6.369  19.288  0.00  0.00    +0.000 N 
ATOM      7  C   UNL     1       2.244   6.505  20.284  0.00  0.00    +0.000 C 
ATOM      8  O   UNL     1       1.963   5.582  21.062  0.00  0.00    +0.000 OA
ATOM      9  H   UNL     1       3.370   7.196  18.723  0.00  0.00    +0.000 HD
BRANCH   6  10
ATOM     10  C   UNL     1       3.966   5.147  19.014  0.00  0.00    +0.000 C 
BRANCH  10  11
ATOM     11  C   UNL     1       3.139   4.102  18.178  0.00  0.00    +0.000 C 
ATOM     12  C   UNL     1       2.808   2.849  19.021  0.00  0.00    +0.000 C 
ATOM     13  C   UNL     1       1.817   4.716  17.658  0.00  0.00    +0.000 C 
ATOM     14  C   UNL     1       3.917   3.633  16.930  0.00  0.00    +0.000 C 
ENDBRANCH  10  11
BRANCH  10  15
ATOM     15  C   UNL     1       5.315   5.515  18.323  0.00  0.00    +0.000 C 
ATOM     16  O   UNL     1       5.456   6.407  17.500  0.00  0.00    +0.000 OA
BRANCH  15  18
ATOM     17  C   UNL     1       7.490   4.749  17.902  0.00  0.00    +0.000 C 
ATOM     18  O   UNL     1       6.313   4.662  18.710  0.00  0.00    +0.000 OA
ENDBRANCH  15  18
ENDBRANCH  10  15
ENDBRANCH   6  10
ENDBRANCH   1   7
BRANCH   4  19
ATOM     19  O   UNL     1       0.338  11.202  19.382  0.00  0.00    +0.000 OA
BRANCH  19  20
ATOM     20  C   UNL     1       1.022  12.367  19.643  0.00  0.00    +0.000 A 
ATOM     21  C   UNL     1       0.923  13.034  20.866  0.00  0.00    +0.000 A 
ATOM     22  C   UNL     1       1.568  14.248  21.053  0.00  0.00    +0.000 A 
ATOM     23  C   UNL     1       2.319  14.803  20.016  0.00  0.00    +0.000 A 
ATOM     24  C   UNL     1       2.535  14.094  18.827  0.00  0.00    +0.000 A 
ATOM     25  C   UNL     1       1.874  12.869  18.647  0.00  0.00    +0.000 A 
ATOM     26  C   UNL     1       3.345  14.699  17.709  0.00  0.00    +0.000 C 
ATOM     27  C   UNL     1       3.964  16.028  18.128  0.00  0.00    +0.000 C 
ATOM     28  C   UNL     1       2.989  16.834  18.996  0.00  0.00    +0.000 C 
ATOM     29  O   UNL     1       2.727  16.097  20.210  0.00  0.00    +0.000 OA
BRANCH  28  30
ATOM     30  C   UNL     1       1.708  17.337  18.314  0.00  0.00    +0.000 A 
ATOM     31  C   UNL     1       1.758  17.937  17.043  0.00  0.00    +0.000 A 
ATOM     32  C   UNL     1       0.594  18.402  16.419  0.00  0.00    +0.000 A 
ATOM     33  C   UNL     1      -0.649  18.247  17.029  0.00  0.00    +0.000 A 
ATOM     34  C   UNL     1      -0.726  17.644  18.276  0.00  0.00    +0.000 A 
ATOM     35  C   UNL     1       0.434  17.202  18.911  0.00  0.00    +0.000 A 
ENDBRANCH  28  30
ENDBRANCH  19  20
ENDBRANCH   4  19
TORSDOF 8
ENDMDL
