MODEL 1
REMARK VINA RESULT:      -6.9      0.000      0.000
REMARK  Name = 
REMARK  6 active torsions:
REMARK  status: ('A' for Active; 'I' for Inactive)
REMARK    1  A    between atoms: C_1  and  N_2
REMARK    2  A    between atoms: N_2  and  C_3
REMARK    3  A    between atoms: N_2  and  C_4
REMARK    4  A    between atoms: C_7  and  N_8
REMARK    5  A    between atoms: C_21  and  C_22
REMARK    6  A    between atoms: C_24  and  O_25
REMARK                            x       y       z     vdW  Elec       q    Type
REMARK                         _______ _______ _______ _____ _____    ______ ____
ROOT
ATOM      1  N   UNL     1      -1.843  12.292  23.291  0.00  0.00    +0.000 N 
ATOM      2  C   UNL     1      -0.889  11.378  22.818  0.00  0.00    +0.000 A 
ATOM      3  N   UNL     1      -0.781  10.227  23.496  0.00  0.00    +0.000 NA
ATOM      4  C   UNL     1       0.036   9.294  22.975  0.00  0.00    +0.000 A 
ATOM      5  C   UNL     1       0.722   9.467  21.798  0.00  0.00    +0.000 A 
ATOM      6  C   UNL     1       0.589  10.708  21.183  0.00  0.00    +0.000 A 
ATOM      7  N   UNL     1      -0.200  11.664  21.697  0.00  0.00    +0.000 NA
ATOM      8  N   UNL     1       1.285  10.905  19.951  0.00  0.00    +0.000 N 
ATOM      9  C   UNL     1       0.751  11.931  19.063  0.00  0.00    +0.000 C 
ATOM     10  C   UNL     1      -0.351  11.193  18.326  0.00  0.00    +0.000 C 
ATOM     11  C   UNL     1       0.246   9.796  18.209  0.00  0.00    +0.000 C 
ATOM     12  O   UNL     1      -0.216   8.911  17.503  0.00  0.00    +0.000 OA
ATOM     13  N   UNL     1       1.280   9.700  19.172  0.00  0.00    +0.000 N 
ATOM     14  C   UNL     1       1.660   8.529  19.811  0.00  0.00    +0.000 C 
ATOM     15  C   UNL     1       1.475   8.410  21.132  0.00  0.00    +0.000 C 
ATOM     16  H   UNL     1      -2.415  11.786  23.959  0.00  0.00    +0.000 HD
ENDROOT
BRANCH  14  17
ATOM     17  C   UNL     1       2.472   7.499  19.137  0.00  0.00    +0.000 A 
ATOM     18  C   UNL     1       3.285   7.852  18.045  0.00  0.00    +0.000 A 
ATOM     19  C   UNL     1       3.824   6.852  17.233  0.00  0.00    +0.000 A 
ATOM     20  C   UNL     1       3.597   5.507  17.500  0.00  0.00    +0.000 A 
ATOM     21  C   UNL     1       2.818   5.145  18.595  0.00  0.00    +0.000 A 
ATOM     22  C   UNL     1       2.255   6.132  19.409  0.00  0.00    +0.000 A 
ATOM     23 CL   UNL     1       1.222   5.603  20.696  0.00  0.00    +0.000 Cl
BRANCH  19  24
ATOM     24  O   UNL     1       4.551   7.151  16.118  0.00  0.00    +0.000 OA
ATOM     25  H   UNL     1       4.310   8.040  15.811  0.00  0.00    +0.000 HD
ENDBRANCH  19  24
ENDBRANCH  14  17
BRANCH   1  29
ATOM     26  C   UNL     1      -4.230  14.830  20.829  0.00  0.00    +0.000 A 
ATOM     27  C   UNL     1      -3.061  15.296  21.446  0.00  0.00    +0.000 A 
ATOM     28  C   UNL     1      -2.261  14.467  22.238  0.00  0.00    +0.000 A 
ATOM     29  C   UNL     1      -2.604  13.133  22.457  0.00  0.00    +0.000 A 
ATOM     30  C   UNL     1      -3.687  12.616  21.753  0.00  0.00    +0.000 A 
ATOM     31  C   UNL     1      -4.493  13.456  20.967  0.00  0.00    +0.000 A 
BRANCH  26  33
ATOM     32  C   UNL     1      -4.775  17.105  20.049  0.00  0.00    +0.000 C 
ATOM     33  N   UNL     1      -5.072  15.676  20.097  0.00  0.00    +0.000 N 
ATOM     34  C   UNL     1      -6.481  15.302  19.991  0.00  0.00    +0.000 C 
ENDBRANCH  26  33
ENDBRANCH   1  29
TORSDOF 4
ENDMDL
MODEL 2
REMARK VINA RESULT:      -6.8      3.423      8.837
REMARK  Name = 
REMARK  6 active torsions:
REMARK  status: ('A' for Active; 'I' for Inactive)
REMARK    1  A    between atoms: C_1  and  N_2
REMARK    2  A    between atoms: N_2  and  C_3
REMARK    3  A    between atoms: N_2  and  C_4
REMARK    4  A    between atoms: C_7  and  N_8
REMARK    5  A    between atoms: C_21  and  C_22
REMARK    6  A    between atoms: C_24  and  O_25
REMARK                            x       y       z     vdW  Elec       q    Type
REMARK                         _______ _______ _______ _____ _____    ______ ____
ROOT
ATOM      1  N   UNL     1       1.482   7.065  20.981  0.00  0.00    +0.000 N 
ATOM      2  C   UNL     1       0.958   8.359  21.119  0.00  0.00    +0.000 A 
ATOM      3  N   UNL     1       0.774   8.795  22.374  0.00  0.00    +0.000 NA
ATOM      4  C   UNL     1       0.395  10.078  22.518  0.00  0.00    +0.000 A 
ATOM      5  C   UNL     1       0.218  10.933  21.457  0.00  0.00    +0.000 A 
ATOM      6  C   UNL     1       0.385  10.387  20.188  0.00  0.00    +0.000 A 
ATOM      7  N   UNL     1       0.738   9.104  20.019  0.00  0.00    +0.000 NA
ATOM      8  N   UNL     1       0.217  11.263  19.073  0.00  0.00    +0.000 N 
ATOM      9  C   UNL     1       0.889  10.873  17.839  0.00  0.00    +0.000 C 
ATOM     10  C   UNL     1       2.296  11.401  18.045  0.00  0.00    +0.000 C 
ATOM     11  C   UNL     1       2.029  12.678  18.832  0.00  0.00    +0.000 C 
ATOM     12  O   UNL     1       2.870  13.539  19.047  0.00  0.00    +0.000 OA
ATOM     13  N   UNL     1       0.726  12.569  19.377  0.00  0.00    +0.000 N 
ATOM     14  C   UNL     1       0.316  13.148  20.569  0.00  0.00    +0.000 C 
ATOM     15  C   UNL     1      -0.026  12.365  21.599  0.00  0.00    +0.000 C 
ATOM     16  H   UNL     1       1.813   6.792  21.901  0.00  0.00    +0.000 HD
ENDROOT
BRANCH  14  17
ATOM     17  C   UNL     1       0.018  14.589  20.675  0.00  0.00    +0.000 A 
ATOM     18  C   UNL     1      -1.095  15.126  20.003  0.00  0.00    +0.000 A 
ATOM     19  C   UNL     1      -1.217  16.509  19.864  0.00  0.00    +0.000 A 
ATOM     20  C   UNL     1      -0.272  17.374  20.405  0.00  0.00    +0.000 A 
ATOM     21  C   UNL     1       0.819  16.855  21.096  0.00  0.00    +0.000 A 
ATOM     22  C   UNL     1       0.967  15.472  21.230  0.00  0.00    +0.000 A 
ATOM     23 CL   UNL     1       2.400  14.903  22.023  0.00  0.00    +0.000 Cl
BRANCH  19  24
ATOM     24  O   UNL     1      -2.238  17.069  19.153  0.00  0.00    +0.000 OA
ATOM     25  H   UNL     1      -2.866  17.480  19.770  0.00  0.00    +0.000 HD
ENDBRANCH  19  24
ENDBRANCH  14  17
BRANCH   1  29
ATOM     26  C   UNL     1       4.103   5.829  17.850  0.00  0.00    +0.000 A 
ATOM     27  C   UNL     1       3.431   7.058  17.800  0.00  0.00    +0.000 A 
ATOM     28  C   UNL     1       2.586   7.480  18.831  0.00  0.00    +0.000 A 
ATOM     29  C   UNL     1       2.367   6.684  19.955  0.00  0.00    +0.000 A 
ATOM     30  C   UNL     1       3.122   5.522  20.084  0.00  0.00    +0.000 A 
ATOM     31  C   UNL     1       3.960   5.096  19.041  0.00  0.00    +0.000 A 
BRANCH  26  33
ATOM     32  C   UNL     1       5.227   6.289  15.704  0.00  0.00    +0.000 C 
ATOM     33  N   UNL     1       4.890   5.369  16.787  0.00  0.00    +0.000 N 
ATOM     34  C   UNL     1       4.788   3.955  16.430  0.00  0.00    +0.000 C 
ENDBRANCH  26  33
ENDBRANCH   1  29
TORSDOF 4
ENDMDL
MODEL 3
REMARK VINA RESULT:      -6.7      3.279      8.933
REMARK  Name = 
REMARK  6 active torsions:
REMARK  status: ('A' for Active; 'I' for Inactive)
REMARK    1  A    between atoms: C_1  and  N_2
REMARK    2  A    between atoms: N_2  and  C_3
REMARK    3  A    between atoms: N_2  and  C_4
REMARK    4  A    between atoms: C_7  and  N_8
REMARK    5  A    between atoms: C_21  and  C_22
REMARK    6  A    between atoms: C_24  and  O_25
REMARK                            x       y       z     vdW  Elec       q    Type
REMARK                         _______ _______ _______ _____ _____    ______ ____
ROOT
ATOM      1  N   UNL     1       1.714   6.859  20.712  0.00  0.00    +0.000 N 
ATOM      2  C   UNL     1       1.076   8.069  21.024  0.00  0.00    +0.000 A 
ATOM      3  N   UNL     1       0.839   8.297  22.324  0.00  0.00    +0.000 NA
ATOM      4  C   UNL     1       0.347   9.507  22.645  0.00  0.00    +0.000 A 
ATOM      5  C   UNL     1       0.108  10.492  21.717  0.00  0.00    +0.000 A 
ATOM      6  C   UNL     1       0.337  10.155  20.386  0.00  0.00    +0.000 A 
ATOM      7  N   UNL     1       0.804   8.946  20.040  0.00  0.00    +0.000 NA
ATOM      8  N   UNL     1       0.105  11.169  19.406  0.00  0.00    +0.000 N 
ATOM      9  C   UNL     1       0.823  11.025  18.146  0.00  0.00    +0.000 C 
ATOM     10  C   UNL     1       2.175  11.634  18.461  0.00  0.00    +0.000 C 
ATOM     11  C   UNL     1       1.788  12.753  19.420  0.00  0.00    +0.000 C 
ATOM     12  O   UNL     1       2.547  13.642  19.778  0.00  0.00    +0.000 OA
ATOM     13  N   UNL     1       0.494  12.455  19.911  0.00  0.00    +0.000 N 
ATOM     14  C   UNL     1       0.020  12.814  21.164  0.00  0.00    +0.000 C 
ATOM     15  C   UNL     1      -0.263  11.860  22.060  0.00  0.00    +0.000 C 
ATOM     16  H   UNL     1       2.056   6.482  21.589  0.00  0.00    +0.000 HD
ENDROOT
BRANCH  14  17
ATOM     17  C   UNL     1      -0.404  14.193  21.472  0.00  0.00    +0.000 A 
ATOM     18  C   UNL     1       0.453  15.045  22.190  0.00  0.00    +0.000 A 
ATOM     19  C   UNL     1      -0.045  16.234  22.728  0.00  0.00    +0.000 A 
ATOM     20  C   UNL     1      -1.371  16.608  22.542  0.00  0.00    +0.000 A 
ATOM     21  C   UNL     1      -2.222  15.786  21.809  0.00  0.00    +0.000 A 
ATOM     22  C   UNL     1      -1.746  14.584  21.279  0.00  0.00    +0.000 A 
ATOM     23 CL   UNL     1      -2.890  13.572  20.459  0.00  0.00    +0.000 Cl
BRANCH  19  24
ATOM     24  O   UNL     1       0.730  17.051  23.497  0.00  0.00    +0.000 OA
ATOM     25  H   UNL     1       0.818  17.912  23.055  0.00  0.00    +0.000 HD
ENDBRANCH  19  24
ENDBRANCH  14  17
BRANCH   1  29
ATOM     26  C   UNL     1       4.566   6.502  17.558  0.00  0.00    +0.000 A 
ATOM     27  C   UNL     1       4.520   5.580  18.614  0.00  0.00    +0.000 A 
ATOM     28  C   UNL     1       3.576   5.677  19.641  0.00  0.00    +0.000 A 
ATOM     29  C   UNL     1       2.641   6.711  19.662  0.00  0.00    +0.000 A 
ATOM     30  C   UNL     1       2.585   7.560  18.562  0.00  0.00    +0.000 A 
ATOM     31  C   UNL     1       3.542   7.465  17.538  0.00  0.00    +0.000 A 
BRANCH  26  33
ATOM     32  C   UNL     1       5.355   5.588  15.409  0.00  0.00    +0.000 C 
ATOM     33  N   UNL     1       5.555   6.451  16.570  0.00  0.00    +0.000 N 
ATOM     34  C   UNL     1       6.940   6.669  16.985  0.00  0.00    +0.000 C 
ENDBRANCH  26  33
ENDBRANCH   1  29
TORSDOF 4
ENDMDL
MODEL 4
REMARK VINA RESULT:      -6.6      1.621      2.122
REMARK  Name = 
REMARK  6 active torsions:
REMARK  status: ('A' for Active; 'I' for Inactive)
REMARK    1  A    between atoms: C_1  and  N_2
REMARK    2  A    between atoms: N_2  and  C_3
REMARK    3  A    between atoms: N_2  and  C_4
REMARK    4  A    between atoms: C_7  and  N_8
REMARK    5  A    between atoms: C_21  and  C_22
REMARK    6  A    between atoms: C_24  and  O_25
REMARK                            x       y       z     vdW  Elec       q    Type
REMARK                         _______ _______ _______ _____ _____    ______ ____
ROOT
ATOM      1  N   UNL     1      -2.664  12.940  23.288  0.00  0.00    +0.000 N 
ATOM      2  C   UNL     1      -1.679  12.051  22.833  0.00  0.00    +0.000 A 
ATOM      3  N   UNL     1      -1.492  10.944  23.567  0.00  0.00    +0.000 NA
ATOM      4  C   UNL     1      -0.644  10.026  23.071  0.00  0.00    +0.000 A 
ATOM      5  C   UNL     1      -0.001  10.170  21.865  0.00  0.00    +0.000 A 
ATOM      6  C   UNL     1      -0.215  11.368  21.190  0.00  0.00    +0.000 A 
ATOM      7  N   UNL     1      -1.037  12.309  21.678  0.00  0.00    +0.000 NA
ATOM      8  N   UNL     1       0.435  11.532  19.929  0.00  0.00    +0.000 N 
ATOM      9  C   UNL     1      -0.176  12.481  19.006  0.00  0.00    +0.000 C 
ATOM     10  C   UNL     1      -1.259  11.651  18.343  0.00  0.00    +0.000 C 
ATOM     11  C   UNL     1      -0.595  10.281  18.281  0.00  0.00    +0.000 C 
ATOM     12  O   UNL     1      -1.031   9.337  17.637  0.00  0.00    +0.000 OA
ATOM     13  N   UNL     1       0.469  10.288  19.214  0.00  0.00    +0.000 N 
ATOM     14  C   UNL     1       0.927   9.174  19.902  0.00  0.00    +0.000 C 
ATOM     15  C   UNL     1       0.785   9.117  21.233  0.00  0.00    +0.000 C 
ATOM     16  H   UNL     1      -3.190  12.444  23.999  0.00  0.00    +0.000 HD
ENDROOT
BRANCH  14  17
ATOM     17  C   UNL     1       1.770   8.150  19.258  0.00  0.00    +0.000 A 
ATOM     18  C   UNL     1       1.959   6.904  19.881  0.00  0.00    +0.000 A 
ATOM     19  C   UNL     1       2.968   6.051  19.431  0.00  0.00    +0.000 A 
ATOM     20  C   UNL     1       3.776   6.397  18.354  0.00  0.00    +0.000 A 
ATOM     21  C   UNL     1       3.580   7.615  17.710  0.00  0.00    +0.000 A 
ATOM     22  C   UNL     1       2.586   8.490  18.158  0.00  0.00    +0.000 A 
ATOM     23 CL   UNL     1       2.467  10.026  17.365  0.00  0.00    +0.000 Cl
BRANCH  19  24
ATOM     24  O   UNL     1       3.237   4.868  20.055  0.00  0.00    +0.000 OA
ATOM     25  H   UNL     1       2.520   4.669  20.680  0.00  0.00    +0.000 HD
ENDBRANCH  19  24
ENDBRANCH  14  17
BRANCH   1  29
ATOM     26  C   UNL     1      -5.086  15.249  20.640  0.00  0.00    +0.000 A 
ATOM     27  C   UNL     1      -5.331  13.886  20.858  0.00  0.00    +0.000 A 
ATOM     28  C   UNL     1      -4.556  13.126  21.739  0.00  0.00    +0.000 A 
ATOM     29  C   UNL     1      -3.490  13.696  22.435  0.00  0.00    +0.000 A 
ATOM     30  C   UNL     1      -3.309  15.072  22.332  0.00  0.00    +0.000 A 
ATOM     31  C   UNL     1      -4.084  15.829  21.438  0.00  0.00    +0.000 A 
BRANCH  26  33
ATOM     32  C   UNL     1      -6.590  15.293  18.687  0.00  0.00    +0.000 C 
ATOM     33  N   UNL     1      -5.812  15.995  19.705  0.00  0.00    +0.000 N 
ATOM     34  C   UNL     1      -5.288  17.307  19.330  0.00  0.00    +0.000 C 
ENDBRANCH  26  33
ENDBRANCH   1  29
TORSDOF 4
ENDMDL
MODEL 5
REMARK VINA RESULT:      -6.6      4.095      6.290
REMARK  Name = 
REMARK  6 active torsions:
REMARK  status: ('A' for Active; 'I' for Inactive)
REMARK    1  A    between atoms: C_1  and  N_2
REMARK    2  A    between atoms: N_2  and  C_3
REMARK    3  A    between atoms: N_2  and  C_4
REMARK    4  A    between atoms: C_7  and  N_8
REMARK    5  A    between atoms: C_21  and  C_22
REMARK    6  A    between atoms: C_24  and  O_25
REMARK                            x       y       z     vdW  Elec       q    Type
REMARK                         _______ _______ _______ _____ _____    ______ ____
ROOT
ATOM      1  N   UNL     1      -4.798  15.278  24.441  0.00  0.00    +0.000 N 
ATOM      2  C   UNL     1      -4.708  14.414  23.339  0.00  0.00    +0.000 A 
ATOM      3  N   UNL     1      -5.757  14.407  22.503  0.00  0.00    +0.000 NA
ATOM      4  C   UNL     1      -5.626  13.681  21.378  0.00  0.00    +0.000 A 
ATOM      5  C   UNL     1      -4.483  12.989  21.057  0.00  0.00    +0.000 A 
ATOM      6  C   UNL     1      -3.462  13.012  22.002  0.00  0.00    +0.000 A 
ATOM      7  N   UNL     1      -3.579  13.708  23.143  0.00  0.00    +0.000 NA
ATOM      8  N   UNL     1      -2.261  12.308  21.683  0.00  0.00    +0.000 N 
ATOM      9  C   UNL     1      -1.051  12.752  22.365  0.00  0.00    +0.000 C 
ATOM     10  C   UNL     1      -0.596  13.920  21.511  0.00  0.00    +0.000 C 
ATOM     11  C   UNL     1      -1.003  13.453  20.118  0.00  0.00    +0.000 C 
ATOM     12  O   UNL     1      -0.648  13.998  19.082  0.00  0.00    +0.000 OA
ATOM     13  N   UNL     1      -1.964  12.427  20.284  0.00  0.00    +0.000 N 
ATOM     14  C   UNL     1      -2.990  12.151  19.392  0.00  0.00    +0.000 C 
ATOM     15  C   UNL     1      -4.260  12.339  19.770  0.00  0.00    +0.000 C 
ATOM     16  H   UNL     1      -5.587  15.889  24.260  0.00  0.00    +0.000 HD
ENDROOT
BRANCH  14  17
ATOM     17  C   UNL     1      -2.750  11.440  18.122  0.00  0.00    +0.000 A 
ATOM     18  C   UNL     1      -3.683  11.544  17.075  0.00  0.00    +0.000 A 
ATOM     19  C   UNL     1      -3.612  10.661  15.996  0.00  0.00    +0.000 A 
ATOM     20  C   UNL     1      -2.615   9.696  15.920  0.00  0.00    +0.000 A 
ATOM     21  C   UNL     1      -1.668   9.603  16.936  0.00  0.00    +0.000 A 
ATOM     22  C   UNL     1      -1.734  10.466  18.033  0.00  0.00    +0.000 A 
ATOM     23 CL   UNL     1      -0.577  10.225  19.300  0.00  0.00    +0.000 Cl
BRANCH  19  24
ATOM     24  O   UNL     1      -4.542  10.674  14.998  0.00  0.00    +0.000 OA
ATOM     25  H   UNL     1      -4.129  10.367  14.175  0.00  0.00    +0.000 HD
ENDBRANCH  19  24
ENDBRANCH  14  17
BRANCH   1  29
ATOM     26  C   UNL     1      -1.404  17.322  26.026  0.00  0.00    +0.000 A 
ATOM     27  C   UNL     1      -2.541  18.017  25.588  0.00  0.00    +0.000 A 
ATOM     28  C   UNL     1      -3.665  17.355  25.086  0.00  0.00    +0.000 A 
ATOM     29  C   UNL     1      -3.698  15.964  24.990  0.00  0.00    +0.000 A 
ATOM     30  C   UNL     1      -2.636  15.250  25.535  0.00  0.00    +0.000 A 
ATOM     31  C   UNL     1      -1.504  15.919  26.028  0.00  0.00    +0.000 A 
BRANCH  26  33
ATOM     32  C   UNL     1      -0.248  18.624  27.771  0.00  0.00    +0.000 C 
ATOM     33  N   UNL     1      -0.250  17.984  26.459  0.00  0.00    +0.000 N 
ATOM     34  C   UNL     1       0.606  18.590  25.440  0.00  0.00    +0.000 C 
ENDBRANCH  26  33
ENDBRANCH   1  29
TORSDOF 4
ENDMDL
MODEL 6
REMARK VINA RESULT:      -6.6      1.534      1.751
REMARK  Name = 
REMARK  6 active torsions:
REMARK  status: ('A' for Active; 'I' for Inactive)
REMARK    1  A    between atoms: C_1  and  N_2
REMARK    2  A    between atoms: N_2  and  C_3
REMARK    3  A    between atoms: N_2  and  C_4
REMARK    4  A    between atoms: C_7  and  N_8
REMARK    5  A    between atoms: C_21  and  C_22
REMARK    6  A    between atoms: C_24  and  O_25
REMARK                            x       y       z     vdW  Elec       q    Type
REMARK                         _______ _______ _______ _____ _____    ______ ____
ROOT
ATOM      1  N   UNL     1      -2.233  13.014  23.358  0.00  0.00    +0.000 N 
ATOM      2  C   UNL     1      -1.314  12.059  22.897  0.00  0.00    +0.000 A 
ATOM      3  N   UNL     1      -1.221  10.929  23.614  0.00  0.00    +0.000 NA
ATOM      4  C   UNL     1      -0.440   9.957  23.109  0.00  0.00    +0.000 A 
ATOM      5  C   UNL     1       0.224  10.071  21.912  0.00  0.00    +0.000 A 
ATOM      6  C   UNL     1       0.110  11.293  21.256  0.00  0.00    +0.000 A 
ATOM      7  N   UNL     1      -0.642  12.287  21.753  0.00  0.00    +0.000 NA
ATOM      8  N   UNL     1       0.784  11.428  20.004  0.00  0.00    +0.000 N 
ATOM      9  C   UNL     1       0.258  12.437  19.092  0.00  0.00    +0.000 C 
ATOM     10  C   UNL     1      -0.878  11.704  18.405  0.00  0.00    +0.000 C 
ATOM     11  C   UNL     1      -0.321  10.288  18.325  0.00  0.00    +0.000 C 
ATOM     12  O   UNL     1      -0.821   9.391  17.661  0.00  0.00    +0.000 OA
ATOM     13  N   UNL     1       0.731  10.197  19.268  0.00  0.00    +0.000 N 
ATOM     14  C   UNL     1       1.094   9.040  19.941  0.00  0.00    +0.000 C 
ATOM     15  C   UNL     1       0.935   8.971  21.269  0.00  0.00    +0.000 C 
ATOM     16  H   UNL     1      -2.803  12.547  24.055  0.00  0.00    +0.000 HD
ENDROOT
BRANCH  14  17
ATOM     17  C   UNL     1       1.864   7.965  19.286  0.00  0.00    +0.000 A 
ATOM     18  C   UNL     1       2.006   6.719  19.922  0.00  0.00    +0.000 A 
ATOM     19  C   UNL     1       2.956   5.809  19.453  0.00  0.00    +0.000 A 
ATOM     20  C   UNL     1       3.747   6.098  18.348  0.00  0.00    +0.000 A 
ATOM     21  C   UNL     1       3.595   7.317  17.693  0.00  0.00    +0.000 A 
ATOM     22  C   UNL     1       2.662   8.248  18.158  0.00  0.00    +0.000 A 
ATOM     23 CL   UNL     1       2.599   9.778  17.346  0.00  0.00    +0.000 Cl
BRANCH  19  24
ATOM     24  O   UNL     1       3.182   4.622  20.087  0.00  0.00    +0.000 OA
ATOM     25  H   UNL     1       3.044   4.741  21.041  0.00  0.00    +0.000 HD
ENDBRANCH  19  24
ENDBRANCH  14  17
BRANCH   1  29
ATOM     26  C   UNL     1      -4.608  15.524  20.855  0.00  0.00    +0.000 A 
ATOM     27  C   UNL     1      -3.445  15.999  21.478  0.00  0.00    +0.000 A 
ATOM     28  C   UNL     1      -2.649  15.178  22.283  0.00  0.00    +0.000 A 
ATOM     29  C   UNL     1      -2.990  13.845  22.511  0.00  0.00    +0.000 A 
ATOM     30  C   UNL     1      -4.066  13.319  21.802  0.00  0.00    +0.000 A 
ATOM     31  C   UNL     1      -4.868  14.150  21.004  0.00  0.00    +0.000 A 
BRANCH  26  33
ATOM     32  C   UNL     1      -5.879  17.630  20.688  0.00  0.00    +0.000 C 
ATOM     33  N   UNL     1      -5.446  16.361  20.110  0.00  0.00    +0.000 N 
ATOM     34  C   UNL     1      -6.368  15.730  19.166  0.00  0.00    +0.000 C 
ENDBRANCH  26  33
ENDBRANCH   1  29
TORSDOF 4
ENDMDL
MODEL 7
REMARK VINA RESULT:      -6.5      3.352      8.691
REMARK  Name = 
REMARK  6 active torsions:
REMARK  status: ('A' for Active; 'I' for Inactive)
REMARK    1  A    between atoms: C_1  and  N_2
REMARK    2  A    between atoms: N_2  and  C_3
REMARK    3  A    between atoms: N_2  and  C_4
REMARK    4  A    between atoms: C_7  and  N_8
REMARK    5  A    between atoms: C_21  and  C_22
REMARK    6  A    between atoms: C_24  and  O_25
REMARK                            x       y       z     vdW  Elec       q    Type
REMARK                         _______ _______ _______ _____ _____    ______ ____
ROOT
ATOM      1  N   UNL     1       0.781   7.234  21.495  0.00  0.00    +0.000 N 
ATOM      2  C   UNL     1       0.361   8.572  21.540  0.00  0.00    +0.000 A 
ATOM      3  N   UNL     1       0.226   9.112  22.760  0.00  0.00    +0.000 NA
ATOM      4  C   UNL     1      -0.050  10.428  22.810  0.00  0.00    +0.000 A 
ATOM      5  C   UNL     1      -0.171  11.215  21.690  0.00  0.00    +0.000 A 
ATOM      6  C   UNL     1      -0.062  10.565  20.464  0.00  0.00    +0.000 A 
ATOM      7  N   UNL     1       0.188   9.249  20.389  0.00  0.00    +0.000 NA
ATOM      8  N   UNL     1      -0.173  11.367  19.287  0.00  0.00    +0.000 N 
ATOM      9  C   UNL     1       0.453  10.836  18.082  0.00  0.00    +0.000 C 
ATOM     10  C   UNL     1       1.899  11.264  18.241  0.00  0.00    +0.000 C 
ATOM     11  C   UNL     1       1.741  12.613  18.933  0.00  0.00    +0.000 C 
ATOM     12  O   UNL     1       2.650  13.419  19.079  0.00  0.00    +0.000 OA
ATOM     13  N   UNL     1       0.441  12.648  19.491  0.00  0.00    +0.000 N 
ATOM     14  C   UNL     1       0.090  13.344  20.639  0.00  0.00    +0.000 C 
ATOM     15  C   UNL     1      -0.300  12.667  21.727  0.00  0.00    +0.000 C 
ATOM     16  H   UNL     1       1.099   7.004  22.431  0.00  0.00    +0.000 HD
ENDROOT
BRANCH  14  17
ATOM     17  C   UNL     1      -0.092  14.807  20.640  0.00  0.00    +0.000 A 
ATOM     18  C   UNL     1      -1.167  15.379  19.936  0.00  0.00    +0.000 A 
ATOM     19  C   UNL     1      -1.182  16.754  19.695  0.00  0.00    +0.000 A 
ATOM     20  C   UNL     1      -0.166  17.579  20.165  0.00  0.00    +0.000 A 
ATOM     21  C   UNL     1       0.888  17.028  20.888  0.00  0.00    +0.000 A 
ATOM     22  C   UNL     1       0.929  15.651  21.124  0.00  0.00    +0.000 A 
ATOM     23 CL   UNL     1       2.321  15.031  21.950  0.00  0.00    +0.000 Cl
BRANCH  19  24
ATOM     24  O   UNL     1      -2.163  17.340  18.950  0.00  0.00    +0.000 OA
ATOM     25  H   UNL     1      -1.954  17.229  18.007  0.00  0.00    +0.000 HD
ENDBRANCH  19  24
ENDBRANCH  14  17
BRANCH   1  29
ATOM     26  C   UNL     1       3.409   5.702  18.503  0.00  0.00    +0.000 A 
ATOM     27  C   UNL     1       2.807   4.862  19.450  0.00  0.00    +0.000 A 
ATOM     28  C   UNL     1       1.928   5.352  20.422  0.00  0.00    +0.000 A 
ATOM     29  C   UNL     1       1.622   6.710  20.495  0.00  0.00    +0.000 A 
ATOM     30  C   UNL     1       2.106   7.541  19.489  0.00  0.00    +0.000 A 
ATOM     31  C   UNL     1       2.996   7.046  18.523  0.00  0.00    +0.000 A 
BRANCH  26  33
ATOM     32  C   UNL     1       4.991   6.174  16.673  0.00  0.00    +0.000 C 
ATOM     33  N   UNL     1       4.345   5.227  17.577  0.00  0.00    +0.000 N 
ATOM     34  C   UNL     1       4.170   3.865  17.075  0.00  0.00    +0.000 C 
ENDBRANCH  26  33
ENDBRANCH   1  29
TORSDOF 4
ENDMDL
MODEL 8
REMARK VINA RESULT:      -6.5      3.504      9.265
REMARK  Name = 
REMARK  6 active torsions:
REMARK  status: ('A' for Active; 'I' for Inactive)
REMARK    1  A    between atoms: C_1  and  N_2
REMARK    2  A    between atoms: N_2  and  C_3
REMARK    3  A    between atoms: N_2  and  C_4
REMARK    4  A    between atoms: C_7  and  N_8
REMARK    5  A    between atoms: C_21  and  C_22
REMARK    6  A    between atoms: C_24  and  O_25
REMARK                            x       y       z     vdW  Elec       q    Type
REMARK                         _______ _______ _______ _____ _____    ______ ____
ROOT
ATOM      1  N   UNL     1       1.412   8.729  17.271  0.00  0.00    +0.000 N 
ATOM      2  C   UNL     1       0.728   9.641  18.089  0.00  0.00    +0.000 A 
ATOM      3  N   UNL     1      -0.486  10.023  17.667  0.00  0.00    +0.000 NA
ATOM      4  C   UNL     1      -1.201  10.794  18.506  0.00  0.00    +0.000 A 
ATOM      5  C   UNL     1      -0.753  11.172  19.748  0.00  0.00    +0.000 A 
ATOM      6  C   UNL     1       0.536  10.771  20.087  0.00  0.00    +0.000 A 
ATOM      7  N   UNL     1       1.278  10.023  19.257  0.00  0.00    +0.000 NA
ATOM      8  N   UNL     1       1.017  11.144  21.380  0.00  0.00    +0.000 N 
ATOM      9  C   UNL     1       2.080  10.316  21.937  0.00  0.00    +0.000 C 
ATOM     10  C   UNL     1       1.313   9.160  22.552  0.00  0.00    +0.000 C 
ATOM     11  C   UNL     1       0.051   9.860  23.041  0.00  0.00    +0.000 C 
ATOM     12  O   UNL     1      -0.773   9.346  23.785  0.00  0.00    +0.000 OA
ATOM     13  N   UNL     1      -0.042  11.090  22.346  0.00  0.00    +0.000 N 
ATOM     14  C   UNL     1      -1.230  11.728  22.022  0.00  0.00    +0.000 C 
ATOM     15  C   UNL     1      -1.577  11.862  20.735  0.00  0.00    +0.000 C 
ATOM     16  H   UNL     1       0.733   8.381  16.603  0.00  0.00    +0.000 HD
ENDROOT
BRANCH  14  17
ATOM     17  C   UNL     1      -2.018  12.469  23.024  0.00  0.00    +0.000 A 
ATOM     18  C   UNL     1      -3.206  11.914  23.532  0.00  0.00    +0.000 A 
ATOM     19  C   UNL     1      -4.092  12.717  24.251  0.00  0.00    +0.000 A 
ATOM     20  C   UNL     1      -3.810  14.055  24.502  0.00  0.00    +0.000 A 
ATOM     21  C   UNL     1      -2.624  14.609  24.029  0.00  0.00    +0.000 A 
ATOM     22  C   UNL     1      -1.733  13.824  23.292  0.00  0.00    +0.000 A 
ATOM     23 CL   UNL     1      -0.324  14.611  22.659  0.00  0.00    +0.000 Cl
BRANCH  19  24
ATOM     24  O   UNL     1      -5.291  12.241  24.694  0.00  0.00    +0.000 OA
ATOM     25  H   UNL     1      -5.290  12.231  25.665  0.00  0.00    +0.000 HD
ENDBRANCH  19  24
ENDBRANCH  14  17
BRANCH   1  29
ATOM     26  C   UNL     1       3.897   5.579  18.723  0.00  0.00    +0.000 A 
ATOM     27  C   UNL     1       4.371   6.519  17.797  0.00  0.00    +0.000 A 
ATOM     28  C   UNL     1       3.570   7.566  17.331  0.00  0.00    +0.000 A 
ATOM     29  C   UNL     1       2.253   7.713  17.764  0.00  0.00    +0.000 A 
ATOM     30  C   UNL     1       1.804   6.870  18.777  0.00  0.00    +0.000 A 
ATOM     31  C   UNL     1       2.608   5.813  19.233  0.00  0.00    +0.000 A 
BRANCH  26  33
ATOM     32  C   UNL     1       6.074   4.421  18.739  0.00  0.00    +0.000 C 
ATOM     33  N   UNL     1       4.670   4.487  19.135  0.00  0.00    +0.000 N 
ATOM     34  C   UNL     1       3.988   3.207  19.324  0.00  0.00    +0.000 C 
ENDBRANCH  26  33
ENDBRANCH   1  29
TORSDOF 4
ENDMDL
MODEL 9
REMARK VINA RESULT:      -6.4      3.239      8.830
REMARK  Name = 
REMARK  6 active torsions:
REMARK  status: ('A' for Active; 'I' for Inactive)
REMARK    1  A    between atoms: C_1  and  N_2
REMARK    2  A    between atoms: N_2  and  C_3
REMARK    3  A    between atoms: N_2  and  C_4
REMARK    4  A    between atoms: C_7  and  N_8
REMARK    5  A    between atoms: C_21  and  C_22
REMARK    6  A    between atoms: C_24  and  O_25
REMARK                            x       y       z     vdW  Elec       q    Type
REMARK                         _______ _______ _______ _____ _____    ______ ____
ROOT
ATOM      1  N   UNL     1       1.676   6.769  21.051  0.00  0.00    +0.000 N 
ATOM      2  C   UNL     1       1.107   8.043  21.199  0.00  0.00    +0.000 A 
ATOM      3  N   UNL     1       1.026   8.515  22.452  0.00  0.00    +0.000 NA
ATOM      4  C   UNL     1       0.602   9.784  22.592  0.00  0.00    +0.000 A 
ATOM      5  C   UNL     1       0.284  10.593  21.528  0.00  0.00    +0.000 A 
ATOM      6  C   UNL     1       0.352  10.009  20.266  0.00  0.00    +0.000 A 
ATOM      7  N   UNL     1       0.747   8.737  20.104  0.00  0.00    +0.000 NA
ATOM      8  N   UNL     1       0.036  10.836  19.145  0.00  0.00    +0.000 N 
ATOM      9  C   UNL     1       0.602  10.432  17.864  0.00  0.00    +0.000 C 
ATOM     10  C   UNL     1       1.996  11.028  17.914  0.00  0.00    +0.000 C 
ATOM     11  C   UNL     1       1.747  12.319  18.683  0.00  0.00    +0.000 C 
ATOM     12  O   UNL     1       2.564  13.224  18.787  0.00  0.00    +0.000 OA
ATOM     13  N   UNL     1       0.510  12.174  19.357  0.00  0.00    +0.000 N 
ATOM     14  C   UNL     1       0.191  12.777  20.564  0.00  0.00    +0.000 C 
ATOM     15  C   UNL     1      -0.012  12.016  21.648  0.00  0.00    +0.000 C 
ATOM     16  H   UNL     1       2.107   6.544  21.942  0.00  0.00    +0.000 HD
ENDROOT
BRANCH  14  17
ATOM     17  C   UNL     1      -0.162  14.206  20.654  0.00  0.00    +0.000 A 
ATOM     18  C   UNL     1       0.833  15.156  20.943  0.00  0.00    +0.000 A 
ATOM     19  C   UNL     1       0.466  16.452  21.309  0.00  0.00    +0.000 A 
ATOM     20  C   UNL     1      -0.870  16.834  21.365  0.00  0.00    +0.000 A 
ATOM     21  C   UNL     1      -1.863  15.910  21.053  0.00  0.00    +0.000 A 
ATOM     22  C   UNL     1      -1.515  14.603  20.702  0.00  0.00    +0.000 A 
ATOM     23 CL   UNL     1      -2.812  13.487  20.419  0.00  0.00    +0.000 Cl
BRANCH  19  24
ATOM     24  O   UNL     1       1.394  17.383  21.674  0.00  0.00    +0.000 OA
ATOM     25  H   UNL     1       2.095  16.947  22.188  0.00  0.00    +0.000 HD
ENDBRANCH  19  24
ENDBRANCH  14  17
BRANCH   1  29
ATOM     26  C   UNL     1       4.165   5.695  17.756  0.00  0.00    +0.000 A 
ATOM     27  C   UNL     1       3.884   4.789  18.789  0.00  0.00    +0.000 A 
ATOM     28  C   UNL     1       3.054   5.125  19.862  0.00  0.00    +0.000 A 
ATOM     29  C   UNL     1       2.474   6.390  19.955  0.00  0.00    +0.000 A 
ATOM     30  C   UNL     1       2.635   7.259  18.880  0.00  0.00    +0.000 A 
ATOM     31  C   UNL     1       3.479   6.921  17.810  0.00  0.00    +0.000 A 
BRANCH  26  33
ATOM     32  C   UNL     1       5.256   6.358  15.647  0.00  0.00    +0.000 C 
ATOM     33  N   UNL     1       5.054   5.388  16.720  0.00  0.00    +0.000 N 
ATOM     34  C   UNL     1       5.215   3.980  16.360  0.00  0.00    +0.000 C 
ENDBRANCH  26  33
ENDBRANCH   1  29
TORSDOF 4
ENDMDL
