MODEL 1
REMARK VINA RESULT:      -7.1      0.000      0.000
REMARK  Name = 
REMARK  6 active torsions:
REMARK  status: ('A' for Active; 'I' for Inactive)
REMARK    1  A    between atoms: C_1  and  S_2
REMARK    2  A    between atoms: S_2  and  C_5
REMARK    3  A    between atoms: C_9  and  C_10
REMARK    4  A    between atoms: N_12  and  C_13
REMARK    5  A    between atoms: C_13  and  C_14
REMARK    6  A    between atoms: C_14  and  O_15
REMARK                            x       y       z     vdW  Elec       q    Type
REMARK                         _______ _______ _______ _____ _____    ______ ____
ROOT
ATOM      1  C   UNL     1       3.439   6.536  18.504  0.00  0.00    +0.000 C 
ATOM      2  O   UNL     1       3.923   6.423  17.384  0.00  0.00    +0.000 OA
ATOM      3  N   UNL     1       3.718   5.665  19.539  0.00  0.00    +0.000 N 
ATOM      4  H   UNL     1       3.400   5.868  20.478  0.00  0.00    +0.000 HD
ENDROOT
BRANCH   1   9
ATOM      5  C   UNL     1       1.027   8.899  20.239  0.00  0.00    +0.000 A 
ATOM      6  C   UNL     1       0.649   9.728  19.179  0.00  0.00    +0.000 A 
ATOM      7  C   UNL     1       1.185   9.507  17.914  0.00  0.00    +0.000 A 
ATOM      8  C   UNL     1       2.095   8.464  17.715  0.00  0.00    +0.000 A 
ATOM      9  C   UNL     1       2.496   7.652  18.786  0.00  0.00    +0.000 A 
ATOM     10  C   UNL     1       1.962   7.872  20.060  0.00  0.00    +0.000 A 
BRANCH   5  12
ATOM     11  C   UNL     1      -0.480  10.735  21.699  0.00  0.00    +0.000 C 
ATOM     12  S   UNL     1       0.332   9.162  21.855  0.00  0.00    +0.000 S 
ATOM     13  O   UNL     1       1.440   9.311  22.784  0.00  0.00    +0.000 OA
ATOM     14  O   UNL     1      -0.682   8.141  22.052  0.00  0.00    +0.000 OA
ENDBRANCH   5  12
ENDBRANCH   1   9
BRANCH   3  15
ATOM     15  C   UNL     1       4.623   4.534  19.352  0.00  0.00    +0.000 C 
BRANCH  15  16
ATOM     16  C   UNL     1       3.860   3.207  19.215  0.00  0.00    +0.000 C 
ATOM     17  C   UNL     1       2.525   3.168  19.944  0.00  0.00    +0.000 C 
ATOM     18  C   UNL     1       1.786   2.063  19.218  0.00  0.00    +0.000 C 
ATOM     19  N   UNL     1       2.142   2.214  17.804  0.00  0.00    +0.000 NA
ATOM     20  C   UNL     1       3.461   2.888  17.766  0.00  0.00    +0.000 C 
ATOM     21  H   UNL     1       1.455   2.817  17.350  0.00  0.00    +0.000 HD
BRANCH  16  22
ATOM     22  O   UNL     1       4.704   2.153  19.717  0.00  0.00    +0.000 OA
ATOM     23  H   UNL     1       4.120   1.407  19.927  0.00  0.00    +0.000 HD
ENDBRANCH  16  22
ENDBRANCH  15  16
ENDBRANCH   3  15
TORSDOF 5
ENDMDL
MODEL 2
REMARK VINA RESULT:      -7.1      2.233      3.041
REMARK  Name = 
REMARK  6 active torsions:
REMARK  status: ('A' for Active; 'I' for Inactive)
REMARK    1  A    between atoms: C_1  and  S_2
REMARK    2  A    between atoms: S_2  and  C_5
REMARK    3  A    between atoms: C_9  and  C_10
REMARK    4  A    between atoms: N_12  and  C_13
REMARK    5  A    between atoms: C_13  and  C_14
REMARK    6  A    between atoms: C_14  and  O_15
REMARK                            x       y       z     vdW  Elec       q    Type
REMARK                         _______ _______ _______ _____ _____    ______ ____
ROOT
ATOM      1  C   UNL     1       2.933   6.387  18.316  0.00  0.00    +0.000 C 
ATOM      2  O   UNL     1       2.505   5.329  18.764  0.00  0.00    +0.000 OA
ATOM      3  N   UNL     1       4.006   6.462  17.450  0.00  0.00    +0.000 N 
ATOM      4  H   UNL     1       4.244   7.339  17.006  0.00  0.00    +0.000 HD
ENDROOT
BRANCH   1   9
ATOM      5  C   UNL     1       1.081   9.063  20.271  0.00  0.00    +0.000 A 
ATOM      6  C   UNL     1       1.008  10.089  19.326  0.00  0.00    +0.000 A 
ATOM      7  C   UNL     1       1.563   9.898  18.064  0.00  0.00    +0.000 A 
ATOM      8  C   UNL     1       2.189   8.685  17.756  0.00  0.00    +0.000 A 
ATOM      9  C   UNL     1       2.287   7.667  18.716  0.00  0.00    +0.000 A 
ATOM     10  C   UNL     1       1.733   7.857  19.986  0.00  0.00    +0.000 A 
BRANCH   5  12
ATOM     11  C   UNL     1      -0.450  10.870  21.743  0.00  0.00    +0.000 C 
ATOM     12  S   UNL     1       0.357   9.292  21.879  0.00  0.00    +0.000 S 
ATOM     13  O   UNL     1       1.447   9.420  22.832  0.00  0.00    +0.000 OA
ATOM     14  O   UNL     1      -0.662   8.270  22.036  0.00  0.00    +0.000 OA
ENDBRANCH   5  12
ENDBRANCH   1   9
BRANCH   3  15
ATOM     15  C   UNL     1       4.708   5.259  17.011  0.00  0.00    +0.000 C 
BRANCH  15  16
ATOM     16  C   UNL     1       6.091   5.131  17.670  0.00  0.00    +0.000 C 
ATOM     17  C   UNL     1       6.904   6.417  17.685  0.00  0.00    +0.000 C 
ATOM     18  C   UNL     1       7.884   6.173  18.815  0.00  0.00    +0.000 C 
ATOM     19  N   UNL     1       7.123   5.466  19.850  0.00  0.00    +0.000 NA
ATOM     20  C   UNL     1       6.016   4.763  19.160  0.00  0.00    +0.000 C 
ATOM     21  H   UNL     1       6.725   6.148  20.495  0.00  0.00    +0.000 HD
BRANCH  16  22
ATOM     22  O   UNL     1       6.828   4.114  16.966  0.00  0.00    +0.000 OA
ATOM     23  H   UNL     1       6.171   3.520  16.570  0.00  0.00    +0.000 HD
ENDBRANCH  16  22
ENDBRANCH  15  16
ENDBRANCH   3  15
TORSDOF 5
ENDMDL
MODEL 3
REMARK VINA RESULT:      -7.0      1.379      1.672
REMARK  Name = 
REMARK  6 active torsions:
REMARK  status: ('A' for Active; 'I' for Inactive)
REMARK    1  A    between atoms: C_1  and  S_2
REMARK    2  A    between atoms: S_2  and  C_5
REMARK    3  A    between atoms: C_9  and  C_10
REMARK    4  A    between atoms: N_12  and  C_13
REMARK    5  A    between atoms: C_13  and  C_14
REMARK    6  A    between atoms: C_14  and  O_15
REMARK                            x       y       z     vdW  Elec       q    Type
REMARK                         _______ _______ _______ _____ _____    ______ ____
ROOT
ATOM      1  C   UNL     1       2.956   6.088  18.665  0.00  0.00    +0.000 C 
ATOM      2  O   UNL     1       4.150   5.919  18.885  0.00  0.00    +0.000 OA
ATOM      3  N   UNL     1       2.120   5.082  18.222  0.00  0.00    +0.000 N 
ATOM      4  H   UNL     1       1.120   5.231  18.177  0.00  0.00    +0.000 HD
ENDROOT
BRANCH   1   9
ATOM      5  C   UNL     1       1.191   9.081  20.194  0.00  0.00    +0.000 A 
ATOM      6  C   UNL     1       1.162   9.963  19.110  0.00  0.00    +0.000 A 
ATOM      7  C   UNL     1       1.718   9.572  17.896  0.00  0.00    +0.000 A 
ATOM      8  C   UNL     1       2.301   8.305  17.772  0.00  0.00    +0.000 A 
ATOM      9  C   UNL     1       2.356   7.434  18.869  0.00  0.00    +0.000 A 
ATOM     10  C   UNL     1       1.800   7.824  20.092  0.00  0.00    +0.000 A 
BRANCH   5  12
ATOM     11  C   UNL     1      -0.210  11.171  21.394  0.00  0.00    +0.000 C 
ATOM     12  S   UNL     1       0.465   9.565  21.744  0.00  0.00    +0.000 S 
ATOM     13  O   UNL     1       1.549   9.725  22.699  0.00  0.00    +0.000 OA
ATOM     14  O   UNL     1      -0.635   8.653  22.001  0.00  0.00    +0.000 OA
ENDBRANCH   5  12
ENDBRANCH   1   9
BRANCH   3  15
ATOM     15  C   UNL     1       2.622   3.732  17.983  0.00  0.00    +0.000 C 
BRANCH  15  16
ATOM     16  C   UNL     1       2.279   2.780  19.140  0.00  0.00    +0.000 C 
ATOM     17  C   UNL     1       3.195   2.899  20.348  0.00  0.00    +0.000 C 
ATOM     18  C   UNL     1       2.347   2.322  21.463  0.00  0.00    +0.000 C 
ATOM     19  N   UNL     1       0.982   2.789  21.201  0.00  0.00    +0.000 NA
ATOM     20  C   UNL     1       0.890   3.042  19.744  0.00  0.00    +0.000 C 
ATOM     21  H   UNL     1       0.831   3.669  21.696  0.00  0.00    +0.000 HD
BRANCH  16  22
ATOM     22  O   UNL     1       2.330   1.430  18.639  0.00  0.00    +0.000 OA
ATOM     23  H   UNL     1       2.280   1.493  17.671  0.00  0.00    +0.000 HD
ENDBRANCH  16  22
ENDBRANCH  15  16
ENDBRANCH   3  15
TORSDOF 5
ENDMDL
MODEL 4
REMARK VINA RESULT:      -7.0      2.268      2.933
REMARK  Name = 
REMARK  6 active torsions:
REMARK  status: ('A' for Active; 'I' for Inactive)
REMARK    1  A    between atoms: C_1  and  S_2
REMARK    2  A    between atoms: S_2  and  C_5
REMARK    3  A    between atoms: C_9  and  C_10
REMARK    4  A    between atoms: N_12  and  C_13
REMARK    5  A    between atoms: C_13  and  C_14
REMARK    6  A    between atoms: C_14  and  O_15
REMARK                            x       y       z     vdW  Elec       q    Type
REMARK                         _______ _______ _______ _____ _____    ______ ____
ROOT
ATOM      1  C   UNL     1       3.261   5.805  19.002  0.00  0.00    +0.000 C 
ATOM      2  O   UNL     1       2.639   4.759  19.153  0.00  0.00    +0.000 OA
ATOM      3  N   UNL     1       4.618   5.847  18.748  0.00  0.00    +0.000 N 
ATOM      4  H   UNL     1       5.065   6.721  18.503  0.00  0.00    +0.000 HD
ENDROOT
BRANCH   1   9
ATOM      5  C   UNL     1       1.178   8.714  20.270  0.00  0.00    +0.000 A 
ATOM      6  C   UNL     1       1.139   9.534  19.140  0.00  0.00    +0.000 A 
ATOM      7  C   UNL     1       1.792   9.130  17.979  0.00  0.00    +0.000 A 
ATOM      8  C   UNL     1       2.481   7.912  17.955  0.00  0.00    +0.000 A 
ATOM      9  C   UNL     1       2.544   7.105  19.100  0.00  0.00    +0.000 A 
ATOM     10  C   UNL     1       1.891   7.509  20.269  0.00  0.00    +0.000 A 
BRANCH   5  12
ATOM     11  C   UNL     1      -0.446  10.742  21.282  0.00  0.00    +0.000 C 
ATOM     12  S   UNL     1       0.330   9.214  21.751  0.00  0.00    +0.000 S 
ATOM     13  O   UNL     1       1.341   9.505  22.753  0.00  0.00    +0.000 OA
ATOM     14  O   UNL     1      -0.710   8.230  21.998  0.00  0.00    +0.000 OA
ENDBRANCH   5  12
ENDBRANCH   1   9
BRANCH   3  15
ATOM     15  C   UNL     1       5.406   4.623  18.645  0.00  0.00    +0.000 C 
BRANCH  15  16
ATOM     16  C   UNL     1       6.350   4.649  17.432  0.00  0.00    +0.000 C 
ATOM     17  C   UNL     1       5.879   3.817  16.249  0.00  0.00    +0.000 C 
ATOM     18  C   UNL     1       6.629   4.441  15.089  0.00  0.00    +0.000 C 
ATOM     19  N   UNL     1       6.630   5.883  15.352  0.00  0.00    +0.000 NA
ATOM     20  C   UNL     1       6.502   6.050  16.819  0.00  0.00    +0.000 C 
ATOM     21  H   UNL     1       5.815   6.304  14.903  0.00  0.00    +0.000 HD
BRANCH  16  22
ATOM     22  O   UNL     1       7.641   4.175  17.860  0.00  0.00    +0.000 OA
ATOM     23  H   UNL     1       7.496   3.306  18.266  0.00  0.00    +0.000 HD
ENDBRANCH  16  22
ENDBRANCH  15  16
ENDBRANCH   3  15
TORSDOF 5
ENDMDL
MODEL 5
REMARK VINA RESULT:      -6.8      2.180      2.969
REMARK  Name = 
REMARK  6 active torsions:
REMARK  status: ('A' for Active; 'I' for Inactive)
REMARK    1  A    between atoms: C_1  and  S_2
REMARK    2  A    between atoms: S_2  and  C_5
REMARK    3  A    between atoms: C_9  and  C_10
REMARK    4  A    between atoms: N_12  and  C_13
REMARK    5  A    between atoms: C_13  and  C_14
REMARK    6  A    between atoms: C_14  and  O_15
REMARK                            x       y       z     vdW  Elec       q    Type
REMARK                         _______ _______ _______ _____ _____    ______ ____
ROOT
ATOM      1  C   UNL     1       3.180   5.842  18.953  0.00  0.00    +0.000 C 
ATOM      2  O   UNL     1       3.599   5.286  19.963  0.00  0.00    +0.000 OA
ATOM      3  N   UNL     1       3.333   5.318  17.685  0.00  0.00    +0.000 N 
ATOM      4  H   UNL     1       2.862   5.743  16.896  0.00  0.00    +0.000 HD
ENDROOT
BRANCH   1   9
ATOM      5  C   UNL     1       1.156   8.766  20.281  0.00  0.00    +0.000 A 
ATOM      6  C   UNL     1       1.096   9.589  19.154  0.00  0.00    +0.000 A 
ATOM      7  C   UNL     1       1.716   9.183  17.976  0.00  0.00    +0.000 A 
ATOM      8  C   UNL     1       2.394   7.959  17.932  0.00  0.00    +0.000 A 
ATOM      9  C   UNL     1       2.478   7.148  19.073  0.00  0.00    +0.000 A 
ATOM     10  C   UNL     1       1.858   7.554  20.259  0.00  0.00    +0.000 A 
BRANCH   5  12
ATOM     11  C   UNL     1      -0.375  10.833  21.354  0.00  0.00    +0.000 C 
ATOM     12  S   UNL     1       0.350   9.269  21.784  0.00  0.00    +0.000 S 
ATOM     13  O   UNL     1       1.386   9.504  22.774  0.00  0.00    +0.000 OA
ATOM     14  O   UNL     1      -0.722   8.320  22.029  0.00  0.00    +0.000 OA
ENDBRANCH   5  12
ENDBRANCH   1   9
BRANCH   3  15
ATOM     15  C   UNL     1       4.019   4.047  17.469  0.00  0.00    +0.000 C 
BRANCH  15  16
ATOM     16  C   UNL     1       5.389   4.242  16.798  0.00  0.00    +0.000 C 
ATOM     17  C   UNL     1       5.448   5.396  15.809  0.00  0.00    +0.000 C 
ATOM     18  C   UNL     1       6.931   5.702  15.749  0.00  0.00    +0.000 C 
ATOM     19  N   UNL     1       7.421   5.543  17.122  0.00  0.00    +0.000 NA
ATOM     20  C   UNL     1       6.502   4.597  17.796  0.00  0.00    +0.000 C 
ATOM     21  H   UNL     1       7.371   6.444  17.599  0.00  0.00    +0.000 HD
BRANCH  16  22
ATOM     22  O   UNL     1       5.732   3.019  16.120  0.00  0.00    +0.000 OA
ATOM     23  H   UNL     1       6.257   3.272  15.343  0.00  0.00    +0.000 HD
ENDBRANCH  16  22
ENDBRANCH  15  16
ENDBRANCH   3  15
TORSDOF 5
ENDMDL
MODEL 6
REMARK VINA RESULT:      -6.8      1.907      2.187
REMARK  Name = 
REMARK  6 active torsions:
REMARK  status: ('A' for Active; 'I' for Inactive)
REMARK    1  A    between atoms: C_1  and  S_2
REMARK    2  A    between atoms: S_2  and  C_5
REMARK    3  A    between atoms: C_9  and  C_10
REMARK    4  A    between atoms: N_12  and  C_13
REMARK    5  A    between atoms: C_13  and  C_14
REMARK    6  A    between atoms: C_14  and  O_15
REMARK                            x       y       z     vdW  Elec       q    Type
REMARK                         _______ _______ _______ _____ _____    ______ ____
ROOT
ATOM      1  C   UNL     1       2.697   6.314  19.896  0.00  0.00    +0.000 C 
ATOM      2  O   UNL     1       3.690   5.875  19.327  0.00  0.00    +0.000 OA
ATOM      3  N   UNL     1       2.046   5.638  20.908  0.00  0.00    +0.000 N 
ATOM      4  H   UNL     1       1.311   6.091  21.436  0.00  0.00    +0.000 HD
ENDROOT
BRANCH   1   9
ATOM      5  C   UNL     1       0.919   9.668  19.925  0.00  0.00    +0.000 A 
ATOM      6  C   UNL     1       1.050  10.057  18.589  0.00  0.00    +0.000 A 
ATOM      7  C   UNL     1       1.716   9.222  17.696  0.00  0.00    +0.000 A 
ATOM      8  C   UNL     1       2.249   8.008  18.143  0.00  0.00    +0.000 A 
ATOM      9  C   UNL     1       2.142   7.634  19.490  0.00  0.00    +0.000 A 
ATOM     10  C   UNL     1       1.476   8.471  20.391  0.00  0.00    +0.000 A 
BRANCH   5  12
ATOM     11  C   UNL     1      -0.369   9.619  22.397  0.00  0.00    +0.000 C 
ATOM     12  S   UNL     1       0.053  10.720  21.068  0.00  0.00    +0.000 S 
ATOM     13  O   UNL     1      -1.177  11.144  20.420  0.00  0.00    +0.000 OA
ATOM     14  O   UNL     1       1.013  11.689  21.564  0.00  0.00    +0.000 OA
ENDBRANCH   5  12
ENDBRANCH   1   9
BRANCH   3  15
ATOM     15  C   UNL     1       2.511   4.331  21.366  0.00  0.00    +0.000 C 
BRANCH  15  16
ATOM     16  C   UNL     1       1.760   3.181  20.675  0.00  0.00    +0.000 C 
ATOM     17  C   UNL     1       0.817   3.621  19.565  0.00  0.00    +0.000 C 
ATOM     18  C   UNL     1       0.672   2.359  18.739  0.00  0.00    +0.000 C 
ATOM     19  N   UNL     1       2.001   1.740  18.728  0.00  0.00    +0.000 NA
ATOM     20  C   UNL     1       2.696   2.199  19.954  0.00  0.00    +0.000 C 
ATOM     21  H   UNL     1       2.518   2.077  17.914  0.00  0.00    +0.000 HD
BRANCH  16  22
ATOM     22  O   UNL     1       1.010   2.471  21.679  0.00  0.00    +0.000 OA
ATOM     23  H   UNL     1       0.292   2.012  21.215  0.00  0.00    +0.000 HD
ENDBRANCH  16  22
ENDBRANCH  15  16
ENDBRANCH   3  15
TORSDOF 5
ENDMDL
MODEL 7
REMARK VINA RESULT:      -6.8      1.728      1.887
REMARK  Name = 
REMARK  6 active torsions:
REMARK  status: ('A' for Active; 'I' for Inactive)
REMARK    1  A    between atoms: C_1  and  S_2
REMARK    2  A    between atoms: S_2  and  C_5
REMARK    3  A    between atoms: C_9  and  C_10
REMARK    4  A    between atoms: N_12  and  C_13
REMARK    5  A    between atoms: C_13  and  C_14
REMARK    6  A    between atoms: C_14  and  O_15
REMARK                            x       y       z     vdW  Elec       q    Type
REMARK                         _______ _______ _______ _____ _____    ______ ____
ROOT
ATOM      1  C   UNL     1       2.807   6.221  19.940  0.00  0.00    +0.000 C 
ATOM      2  O   UNL     1       3.823   5.803  19.396  0.00  0.00    +0.000 OA
ATOM      3  N   UNL     1       2.160   5.544  20.955  0.00  0.00    +0.000 N 
ATOM      4  H   UNL     1       1.403   5.984  21.462  0.00  0.00    +0.000 HD
ENDROOT
BRANCH   1   9
ATOM      5  C   UNL     1       0.963   9.539  19.887  0.00  0.00    +0.000 A 
ATOM      6  C   UNL     1       1.061   9.883  18.536  0.00  0.00    +0.000 A 
ATOM      7  C   UNL     1       1.726   9.031  17.660  0.00  0.00    +0.000 A 
ATOM      8  C   UNL     1       2.292   7.843  18.138  0.00  0.00    +0.000 A 
ATOM      9  C   UNL     1       2.218   7.515  19.499  0.00  0.00    +0.000 A 
ATOM     10  C   UNL     1       1.553   8.370  20.383  0.00  0.00    +0.000 A 
BRANCH   5  12
ATOM     11  C   UNL     1      -1.152  11.353  19.985  0.00  0.00    +0.000 C 
ATOM     12  S   UNL     1       0.097  10.613  21.010  0.00  0.00    +0.000 S 
ATOM     13  O   UNL     1       1.026  11.653  21.418  0.00  0.00    +0.000 OA
ATOM     14  O   UNL     1      -0.559   9.764  21.989  0.00  0.00    +0.000 OA
ENDBRANCH   5  12
ENDBRANCH   1   9
BRANCH   3  15
ATOM     15  C   UNL     1       2.659   4.262  21.445  0.00  0.00    +0.000 C 
BRANCH  15  16
ATOM     16  C   UNL     1       1.951   3.076  20.770  0.00  0.00    +0.000 C 
ATOM     17  C   UNL     1       0.788   3.465  19.869  0.00  0.00    +0.000 C 
ATOM     18  C   UNL     1       0.664   2.263  18.955  0.00  0.00    +0.000 C 
ATOM     19  N   UNL     1       2.039   1.837  18.675  0.00  0.00    +0.000 NA
ATOM     20  C   UNL     1       2.866   2.291  19.817  0.00  0.00    +0.000 C 
ATOM     21  H   UNL     1       2.365   2.304  17.829  0.00  0.00    +0.000 HD
BRANCH  16  22
ATOM     22  O   UNL     1       1.474   2.193  21.803  0.00  0.00    +0.000 OA
ATOM     23  H   UNL     1       2.111   1.463  21.859  0.00  0.00    +0.000 HD
ENDBRANCH  16  22
ENDBRANCH  15  16
ENDBRANCH   3  15
TORSDOF 5
ENDMDL
MODEL 8
REMARK VINA RESULT:      -6.7      2.311      3.074
REMARK  Name = 
REMARK  6 active torsions:
REMARK  status: ('A' for Active; 'I' for Inactive)
REMARK    1  A    between atoms: C_1  and  S_2
REMARK    2  A    between atoms: S_2  and  C_5
REMARK    3  A    between atoms: C_9  and  C_10
REMARK    4  A    between atoms: N_12  and  C_13
REMARK    5  A    between atoms: C_13  and  C_14
REMARK    6  A    between atoms: C_14  and  O_15
REMARK                            x       y       z     vdW  Elec       q    Type
REMARK                         _______ _______ _______ _____ _____    ______ ____
ROOT
ATOM      1  C   UNL     1       2.913   6.046  18.969  0.00  0.00    +0.000 C 
ATOM      2  O   UNL     1       2.994   5.326  19.959  0.00  0.00    +0.000 OA
ATOM      3  N   UNL     1       3.375   5.672  17.723  0.00  0.00    +0.000 N 
ATOM      4  H   UNL     1       3.172   6.241  16.911  0.00  0.00    +0.000 HD
ENDROOT
BRANCH   1   9
ATOM      5  C   UNL     1       1.278   9.175  20.364  0.00  0.00    +0.000 A 
ATOM      6  C   UNL     1       1.057   9.910  19.196  0.00  0.00    +0.000 A 
ATOM      7  C   UNL     1       1.444   9.378  17.969  0.00  0.00    +0.000 A 
ATOM      8  C   UNL     1       2.050   8.118  17.917  0.00  0.00    +0.000 A 
ATOM      9  C   UNL     1       2.298   7.396  19.093  0.00  0.00    +0.000 A 
ATOM     10  C   UNL     1       1.913   7.928  20.328  0.00  0.00    +0.000 A 
BRANCH   5  12
ATOM     11  C   UNL     1      -0.685   8.895  22.324  0.00  0.00    +0.000 C 
ATOM     12  S   UNL     1       0.768   9.840  21.932  0.00  0.00    +0.000 S 
ATOM     13  O   UNL     1       0.368  11.219  21.710  0.00  0.00    +0.000 OA
ATOM     14  O   UNL     1       1.805   9.504  22.892  0.00  0.00    +0.000 OA
ENDBRANCH   5  12
ENDBRANCH   1   9
BRANCH   3  15
ATOM     15  C   UNL     1       4.002   4.371  17.508  0.00  0.00    +0.000 C 
BRANCH  15  16
ATOM     16  C   UNL     1       5.474   4.508  17.086  0.00  0.00    +0.000 C 
ATOM     17  C   UNL     1       5.811   3.862  15.751  0.00  0.00    +0.000 C 
ATOM     18  C   UNL     1       7.073   4.593  15.340  0.00  0.00    +0.000 C 
ATOM     19  N   UNL     1       6.869   5.988  15.747  0.00  0.00    +0.000 NA
ATOM     20  C   UNL     1       5.905   5.968  16.872  0.00  0.00    +0.000 C 
ATOM     21  H   UNL     1       6.454   6.503  14.970  0.00  0.00    +0.000 HD
BRANCH  16  22
ATOM     22  O   UNL     1       6.291   3.919  18.117  0.00  0.00    +0.000 OA
ATOM     23  H   UNL     1       6.759   4.651  18.550  0.00  0.00    +0.000 HD
ENDBRANCH  16  22
ENDBRANCH  15  16
ENDBRANCH   3  15
TORSDOF 5
ENDMDL
MODEL 9
REMARK VINA RESULT:      -6.7      3.318      6.801
REMARK  Name = 
REMARK  6 active torsions:
REMARK  status: ('A' for Active; 'I' for Inactive)
REMARK    1  A    between atoms: C_1  and  S_2
REMARK    2  A    between atoms: S_2  and  C_5
REMARK    3  A    between atoms: C_9  and  C_10
REMARK    4  A    between atoms: N_12  and  C_13
REMARK    5  A    between atoms: C_13  and  C_14
REMARK    6  A    between atoms: C_14  and  O_15
REMARK                            x       y       z     vdW  Elec       q    Type
REMARK                         _______ _______ _______ _____ _____    ______ ____
ROOT
ATOM      1  C   UNL     1       2.193   5.239  19.764  0.00  0.00    +0.000 C 
ATOM      2  O   UNL     1       1.279   4.443  19.948  0.00  0.00    +0.000 OA
ATOM      3  N   UNL     1       2.237   6.489  20.351  0.00  0.00    +0.000 N 
ATOM      4  H   UNL     1       3.068   7.060  20.274  0.00  0.00    +0.000 HD
ENDROOT
BRANCH   1   9
ATOM      5  C   UNL     1       5.646   4.874  18.229  0.00  0.00    +0.000 A 
ATOM      6  C   UNL     1       5.345   4.206  17.039  0.00  0.00    +0.000 A 
ATOM      7  C   UNL     1       4.022   3.883  16.751  0.00  0.00    +0.000 A 
ATOM      8  C   UNL     1       3.010   4.226  17.654  0.00  0.00    +0.000 A 
ATOM      9  C   UNL     1       3.317   4.869  18.862  0.00  0.00    +0.000 A 
ATOM     10  C   UNL     1       4.645   5.193  19.156  0.00  0.00    +0.000 A 
BRANCH   5  12
ATOM     11  C   UNL     1       7.518   6.902  17.833  0.00  0.00    +0.000 C 
ATOM     12  S   UNL     1       7.331   5.308  18.595  0.00  0.00    +0.000 S 
ATOM     13  O   UNL     1       8.184   4.364  17.892  0.00  0.00    +0.000 OA
ATOM     14  O   UNL     1       7.424   5.476  20.035  0.00  0.00    +0.000 OA
ENDBRANCH   5  12
ENDBRANCH   1   9
BRANCH   3  15
ATOM     15  C   UNL     1       1.172   6.943  21.242  0.00  0.00    +0.000 C 
BRANCH  15  16
ATOM     16  C   UNL     1       1.064   8.476  21.269  0.00  0.00    +0.000 C 
ATOM     17  C   UNL     1       1.352   9.153  19.938  0.00  0.00    +0.000 C 
ATOM     18  C   UNL     1       0.658  10.491  20.092  0.00  0.00    +0.000 C 
ATOM     19  N   UNL     1      -0.586  10.208  20.815  0.00  0.00    +0.000 NA
ATOM     20  C   UNL     1      -0.351   8.974  21.601  0.00  0.00    +0.000 C 
ATOM     21  H   UNL     1      -1.329  10.029  20.140  0.00  0.00    +0.000 HD
BRANCH  16  22
ATOM     22  O   UNL     1       1.985   8.971  22.260  0.00  0.00    +0.000 OA
ATOM     23  H   UNL     1       2.515   9.660  21.826  0.00  0.00    +0.000 HD
ENDBRANCH  16  22
ENDBRANCH  15  16
ENDBRANCH   3  15
TORSDOF 5
ENDMDL
