MODEL 1
REMARK VINA RESULT:      -7.5      0.000      0.000
REMARK  Name = 
REMARK  3 active torsions:
REMARK  status: ('A' for Active; 'I' for Inactive)
REMARK    1  A    between atoms: O_1  and  C_2
REMARK    2  A    between atoms: C_7  and  N_8
REMARK    3  A    between atoms: C_11  and  C_12
REMARK                            x       y       z     vdW  Elec       q    Type
REMARK                         _______ _______ _______ _____ _____    ______ ____
ROOT
ATOM      1  N   UNL     1       4.474   3.314  17.690  0.00  0.00    +0.000 N 
ATOM      2  C   UNL     1       3.702   4.078  18.501  0.00  0.00    +0.000 A 
ATOM      3  N   UNL     1       3.265   5.287  18.231  0.00  0.00    +0.000 NA
ATOM      4  C   UNL     1       2.645   5.863  19.317  0.00  0.00    +0.000 A 
ATOM      5  C   UNL     1       2.533   5.037  20.414  0.00  0.00    +0.000 A 
ATOM      6  S   UNL     1       3.241   3.509  20.067  0.00  0.00    +0.000 S 
ATOM      7  H   UNL     1       4.855   2.453  18.076  0.00  0.00    +0.000 HD
ENDROOT
BRANCH   4   8
ATOM      8  C   UNL     1       2.182   7.239  19.232  0.00  0.00    +0.000 A 
ATOM      9  C   UNL     1       1.599   7.842  20.360  0.00  0.00    +0.000 A 
ATOM     10  C   UNL     1       1.114   9.151  20.301  0.00  0.00    +0.000 A 
ATOM     11  C   UNL     1       1.200   9.864  19.109  0.00  0.00    +0.000 A 
ATOM     12 CL   UNL     1       0.605  11.475  19.033  0.00  0.00    +0.000 Cl
ATOM     13  C   UNL     1       1.757   9.275  17.974  0.00  0.00    +0.000 A 
ATOM     14  C   UNL     1       2.247   7.966  18.033  0.00  0.00    +0.000 A 
ENDBRANCH   4   8
BRANCH   1  20
ATOM     15  C   UNL     1       6.606   4.301  17.067  0.00  0.00    +0.000 A 
ATOM     16  C   UNL     1       7.473   4.886  16.143  0.00  0.00    +0.000 A 
ATOM     17  C   UNL     1       7.072   5.015  14.813  0.00  0.00    +0.000 A 
ATOM     18  C   UNL     1       5.832   4.532  14.410  0.00  0.00    +0.000 A 
ATOM     19  C   UNL     1       4.982   3.925  15.337  0.00  0.00    +0.000 A 
ATOM     20  C   UNL     1       5.335   3.829  16.689  0.00  0.00    +0.000 A 
BRANCH  15  21
ATOM     21  O   UNL     1       6.960   4.207  18.390  0.00  0.00    +0.000 OA
ATOM     22  H   UNL     1       7.748   4.758  18.527  0.00  0.00    +0.000 HD
ENDBRANCH  15  21
ENDBRANCH   1  20
TORSDOF 3
ENDMDL
MODEL 2
REMARK VINA RESULT:      -7.5      0.209      1.100
REMARK  Name = 
REMARK  3 active torsions:
REMARK  status: ('A' for Active; 'I' for Inactive)
REMARK    1  A    between atoms: O_1  and  C_2
REMARK    2  A    between atoms: C_7  and  N_8
REMARK    3  A    between atoms: C_11  and  C_12
REMARK                            x       y       z     vdW  Elec       q    Type
REMARK                         _______ _______ _______ _____ _____    ______ ____
ROOT
ATOM      1  N   UNL     1       4.364   3.393  17.856  0.00  0.00    +0.000 N 
ATOM      2  C   UNL     1       3.573   4.171  18.636  0.00  0.00    +0.000 A 
ATOM      3  N   UNL     1       3.145   5.375  18.337  0.00  0.00    +0.000 NA
ATOM      4  C   UNL     1       2.499   5.968  19.398  0.00  0.00    +0.000 A 
ATOM      5  C   UNL     1       2.357   5.159  20.504  0.00  0.00    +0.000 A 
ATOM      6  S   UNL     1       3.071   3.625  20.198  0.00  0.00    +0.000 S 
ATOM      7  H   UNL     1       4.733   2.538  18.264  0.00  0.00    +0.000 HD
ENDROOT
BRANCH   4   8
ATOM      8  C   UNL     1       2.041   7.344  19.281  0.00  0.00    +0.000 A 
ATOM      9  C   UNL     1       2.215   8.029  18.066  0.00  0.00    +0.000 A 
ATOM     10  C   UNL     1       1.815   9.361  17.932  0.00  0.00    +0.000 A 
ATOM     11  C   UNL     1       1.247  10.021  19.017  0.00  0.00    +0.000 A 
ATOM     12 CL   UNL     1       0.753  11.660  18.856  0.00  0.00    +0.000 Cl
ATOM     13  C   UNL     1       1.085   9.364  20.236  0.00  0.00    +0.000 A 
ATOM     14  C   UNL     1       1.480   8.029  20.370  0.00  0.00    +0.000 A 
ENDBRANCH   4   8
BRANCH   1  20
ATOM     15  C   UNL     1       6.535   4.311  17.265  0.00  0.00    +0.000 A 
ATOM     16  C   UNL     1       7.431   4.878  16.357  0.00  0.00    +0.000 A 
ATOM     17  C   UNL     1       7.046   5.044  15.026  0.00  0.00    +0.000 A 
ATOM     18  C   UNL     1       5.791   4.613  14.606  0.00  0.00    +0.000 A 
ATOM     19  C   UNL     1       4.913   4.023  15.517  0.00  0.00    +0.000 A 
ATOM     20  C   UNL     1       5.252   3.892  16.870  0.00  0.00    +0.000 A 
BRANCH  15  21
ATOM     21  O   UNL     1       6.876   4.183  18.589  0.00  0.00    +0.000 OA
ATOM     22  H   UNL     1       6.078   4.344  19.119  0.00  0.00    +0.000 HD
ENDBRANCH  15  21
ENDBRANCH   1  20
TORSDOF 3
ENDMDL
MODEL 3
REMARK VINA RESULT:      -7.4      3.870      5.250
REMARK  Name = 
REMARK  3 active torsions:
REMARK  status: ('A' for Active; 'I' for Inactive)
REMARK    1  A    between atoms: O_1  and  C_2
REMARK    2  A    between atoms: C_7  and  N_8
REMARK    3  A    between atoms: C_11  and  C_12
REMARK                            x       y       z     vdW  Elec       q    Type
REMARK                         _______ _______ _______ _____ _____    ______ ____
ROOT
ATOM      1  N   UNL     1       2.942   5.944  18.891  0.00  0.00    +0.000 N 
ATOM      2  C   UNL     1       2.464   7.210  18.967  0.00  0.00    +0.000 A 
ATOM      3  N   UNL     1       1.786   7.716  19.971  0.00  0.00    +0.000 NA
ATOM      4  C   UNL     1       1.301   8.971  19.682  0.00  0.00    +0.000 A 
ATOM      5  C   UNL     1       1.695   9.467  18.457  0.00  0.00    +0.000 A 
ATOM      6  S   UNL     1       2.683   8.312  17.653  0.00  0.00    +0.000 S 
ATOM      7  H   UNL     1       3.332   5.640  18.002  0.00  0.00    +0.000 HD
ENDROOT
BRANCH   4   8
ATOM      8  C   UNL     1       0.444   9.649  20.642  0.00  0.00    +0.000 A 
ATOM      9  C   UNL     1      -0.237  10.816  20.256  0.00  0.00    +0.000 A 
ATOM     10  C   UNL     1      -1.041  11.509  21.165  0.00  0.00    +0.000 A 
ATOM     11  C   UNL     1      -1.162  11.043  22.470  0.00  0.00    +0.000 A 
ATOM     12 CL   UNL     1      -2.152  11.892  23.591  0.00  0.00    +0.000 Cl
ATOM     13  C   UNL     1      -0.478   9.898  22.877  0.00  0.00    +0.000 A 
ATOM     14  C   UNL     1       0.324   9.201  21.967  0.00  0.00    +0.000 A 
ENDBRANCH   4   8
BRANCH   1  20
ATOM     15  C   UNL     1       1.527   3.968  18.911  0.00  0.00    +0.000 A 
ATOM     16  C   UNL     1       0.899   2.906  19.563  0.00  0.00    +0.000 A 
ATOM     17  C   UNL     1       1.129   2.703  20.924  0.00  0.00    +0.000 A 
ATOM     18  C   UNL     1       2.006   3.535  21.613  0.00  0.00    +0.000 A 
ATOM     19  C   UNL     1       2.649   4.580  20.946  0.00  0.00    +0.000 A 
ATOM     20  C   UNL     1       2.396   4.840  19.593  0.00  0.00    +0.000 A 
BRANCH  15  21
ATOM     21  O   UNL     1       1.277   4.215  17.584  0.00  0.00    +0.000 OA
ATOM     22  H   UNL     1       1.131   5.170  17.481  0.00  0.00    +0.000 HD
ENDBRANCH  15  21
ENDBRANCH   1  20
TORSDOF 3
ENDMDL
MODEL 4
REMARK VINA RESULT:      -7.4      3.830      5.124
REMARK  Name = 
REMARK  3 active torsions:
REMARK  status: ('A' for Active; 'I' for Inactive)
REMARK    1  A    between atoms: O_1  and  C_2
REMARK    2  A    between atoms: C_7  and  N_8
REMARK    3  A    between atoms: C_11  and  C_12
REMARK                            x       y       z     vdW  Elec       q    Type
REMARK                         _______ _______ _______ _____ _____    ______ ____
ROOT
ATOM      1  N   UNL     1       2.993   5.859  18.841  0.00  0.00    +0.000 N 
ATOM      2  C   UNL     1       2.539   7.136  18.892  0.00  0.00    +0.000 A 
ATOM      3  N   UNL     1       1.870   7.674  19.886  0.00  0.00    +0.000 NA
ATOM      4  C   UNL     1       1.409   8.932  19.572  0.00  0.00    +0.000 A 
ATOM      5  C   UNL     1       1.813   9.397  18.339  0.00  0.00    +0.000 A 
ATOM      6  S   UNL     1       2.780   8.208  17.558  0.00  0.00    +0.000 S 
ATOM      7  H   UNL     1       3.378   5.532  17.958  0.00  0.00    +0.000 HD
ENDROOT
BRANCH   4   8
ATOM      8  C   UNL     1       0.564   9.644  20.518  0.00  0.00    +0.000 A 
ATOM      9  C   UNL     1       0.375   9.117  21.807  0.00  0.00    +0.000 A 
ATOM     10  C   UNL     1      -0.456   9.759  22.728  0.00  0.00    +0.000 A 
ATOM     11  C   UNL     1      -1.115  10.929  22.362  0.00  0.00    +0.000 A 
ATOM     12 CL   UNL     1      -2.139  11.722  23.492  0.00  0.00    +0.000 Cl
ATOM     13  C   UNL     1      -0.956  11.455  21.081  0.00  0.00    +0.000 A 
ATOM     14  C   UNL     1      -0.120  10.816  20.159  0.00  0.00    +0.000 A 
ENDBRANCH   4   8
BRANCH   1  20
ATOM     15  C   UNL     1       1.517   3.931  18.906  0.00  0.00    +0.000 A 
ATOM     16  C   UNL     1       0.868   2.894  19.579  0.00  0.00    +0.000 A 
ATOM     17  C   UNL     1       1.117   2.696  20.937  0.00  0.00    +0.000 A 
ATOM     18  C   UNL     1       2.032   3.506  21.602  0.00  0.00    +0.000 A 
ATOM     19  C   UNL     1       2.696   4.523  20.913  0.00  0.00    +0.000 A 
ATOM     20  C   UNL     1       2.426   4.780  19.563  0.00  0.00    +0.000 A 
BRANCH  15  21
ATOM     21  O   UNL     1       1.249   4.174  17.581  0.00  0.00    +0.000 OA
ATOM     22  H   UNL     1       0.549   4.846  17.537  0.00  0.00    +0.000 HD
ENDBRANCH  15  21
ENDBRANCH   1  20
TORSDOF 3
ENDMDL
MODEL 5
REMARK VINA RESULT:      -7.3      3.826      5.763
REMARK  Name = 
REMARK  3 active torsions:
REMARK  status: ('A' for Active; 'I' for Inactive)
REMARK    1  A    between atoms: O_1  and  C_2
REMARK    2  A    between atoms: C_7  and  N_8
REMARK    3  A    between atoms: C_11  and  C_12
REMARK                            x       y       z     vdW  Elec       q    Type
REMARK                         _______ _______ _______ _____ _____    ______ ____
ROOT
ATOM      1  N   UNL     1       4.072   2.802  17.469  0.00  0.00    +0.000 N 
ATOM      2  C   UNL     1       5.021   3.659  17.018  0.00  0.00    +0.000 A 
ATOM      3  N   UNL     1       5.647   4.559  17.738  0.00  0.00    +0.000 NA
ATOM      4  C   UNL     1       6.432   5.382  16.962  0.00  0.00    +0.000 A 
ATOM      5  C   UNL     1       6.470   5.041  15.627  0.00  0.00    +0.000 A 
ATOM      6  S   UNL     1       5.478   3.664  15.351  0.00  0.00    +0.000 S 
ATOM      7  H   UNL     1       3.571   2.248  16.779  0.00  0.00    +0.000 HD
ENDROOT
BRANCH   4   8
ATOM      8  C   UNL     1       7.127   6.502  17.578  0.00  0.00    +0.000 A 
ATOM      9  C   UNL     1       7.070   7.768  16.971  0.00  0.00    +0.000 A 
ATOM     10  C   UNL     1       7.753   8.856  17.519  0.00  0.00    +0.000 A 
ATOM     11  C   UNL     1       8.509   8.683  18.675  0.00  0.00    +0.000 A 
ATOM     12 CL   UNL     1       9.350  10.019  19.353  0.00  0.00    +0.000 Cl
ATOM     13  C   UNL     1       8.594   7.429  19.280  0.00  0.00    +0.000 A 
ATOM     14  C   UNL     1       7.906   6.340  18.734  0.00  0.00    +0.000 A 
ENDBRANCH   4   8
BRANCH   1  20
ATOM     15  C   UNL     1       3.715   2.654  19.868  0.00  0.00    +0.000 A 
ATOM     16  C   UNL     1       2.925   2.797  21.011  0.00  0.00    +0.000 A 
ATOM     17  C   UNL     1       1.641   3.330  20.895  0.00  0.00    +0.000 A 
ATOM     18  C   UNL     1       1.170   3.747  19.654  0.00  0.00    +0.000 A 
ATOM     19  C   UNL     1       1.978   3.624  18.522  0.00  0.00    +0.000 A 
ATOM     20  C   UNL     1       3.250   3.043  18.599  0.00  0.00    +0.000 A 
BRANCH  15  21
ATOM     21  O   UNL     1       4.962   2.087  19.952  0.00  0.00    +0.000 OA
ATOM     22  H   UNL     1       4.857   1.124  19.880  0.00  0.00    +0.000 HD
ENDBRANCH  15  21
ENDBRANCH   1  20
TORSDOF 3
ENDMDL
MODEL 6
REMARK VINA RESULT:      -7.2      3.741      5.720
REMARK  Name = 
REMARK  3 active torsions:
REMARK  status: ('A' for Active; 'I' for Inactive)
REMARK    1  A    between atoms: O_1  and  C_2
REMARK    2  A    between atoms: C_7  and  N_8
REMARK    3  A    between atoms: C_11  and  C_12
REMARK                            x       y       z     vdW  Elec       q    Type
REMARK                         _______ _______ _______ _____ _____    ______ ____
ROOT
ATOM      1  N   UNL     1       4.095   2.808  17.540  0.00  0.00    +0.000 N 
ATOM      2  C   UNL     1       5.038   3.648  17.047  0.00  0.00    +0.000 A 
ATOM      3  N   UNL     1       5.686   4.562  17.731  0.00  0.00    +0.000 NA
ATOM      4  C   UNL     1       6.458   5.360  16.917  0.00  0.00    +0.000 A 
ATOM      5  C   UNL     1       6.463   4.987  15.590  0.00  0.00    +0.000 A 
ATOM      6  S   UNL     1       5.457   3.609  15.370  0.00  0.00    +0.000 S 
ATOM      7  H   UNL     1       3.575   2.241  16.875  0.00  0.00    +0.000 HD
ENDROOT
BRANCH   4   8
ATOM      8  C   UNL     1       7.173   6.491  17.490  0.00  0.00    +0.000 A 
ATOM      9  C   UNL     1       7.911   6.313  18.672  0.00  0.00    +0.000 A 
ATOM     10  C   UNL     1       8.582   7.386  19.265  0.00  0.00    +0.000 A 
ATOM     11  C   UNL     1       8.510   8.648  18.684  0.00  0.00    +0.000 A 
ATOM     12 CL   UNL     1       9.334   9.971  19.409  0.00  0.00    +0.000 Cl
ATOM     13  C   UNL     1       7.765   8.848  17.522  0.00  0.00    +0.000 A 
ATOM     14  C   UNL     1       7.097   7.773  16.924  0.00  0.00    +0.000 A 
ENDBRANCH   4   8
BRANCH   1  20
ATOM     15  C   UNL     1       3.699   2.557  19.925  0.00  0.00    +0.000 A 
ATOM     16  C   UNL     1       2.923   2.729  21.073  0.00  0.00    +0.000 A 
ATOM     17  C   UNL     1       1.720   3.430  20.990  0.00  0.00    +0.000 A 
ATOM     18  C   UNL     1       1.318   3.981  19.777  0.00  0.00    +0.000 A 
ATOM     19  C   UNL     1       2.114   3.826  18.640  0.00  0.00    +0.000 A 
ATOM     20  C   UNL     1       3.300   3.082  18.682  0.00  0.00    +0.000 A 
BRANCH  15  21
ATOM     21  O   UNL     1       4.862   1.830  19.974  0.00  0.00    +0.000 OA
ATOM     22  H   UNL     1       4.624   0.896  20.095  0.00  0.00    +0.000 HD
ENDBRANCH  15  21
ENDBRANCH   1  20
TORSDOF 3
ENDMDL
MODEL 7
REMARK VINA RESULT:      -7.0      3.193      6.568
REMARK  Name = 
REMARK  3 active torsions:
REMARK  status: ('A' for Active; 'I' for Inactive)
REMARK    1  A    between atoms: O_1  and  C_2
REMARK    2  A    between atoms: C_7  and  N_8
REMARK    3  A    between atoms: C_11  and  C_12
REMARK                            x       y       z     vdW  Elec       q    Type
REMARK                         _______ _______ _______ _____ _____    ______ ____
ROOT
ATOM      1  N   UNL     1       2.606   6.298  20.207  0.00  0.00    +0.000 N 
ATOM      2  C   UNL     1       3.349   5.392  19.524  0.00  0.00    +0.000 A 
ATOM      3  N   UNL     1       4.103   5.648  18.481  0.00  0.00    +0.000 NA
ATOM      4  C   UNL     1       4.600   4.498  17.913  0.00  0.00    +0.000 A 
ATOM      5  C   UNL     1       4.286   3.342  18.595  0.00  0.00    +0.000 A 
ATOM      6  S   UNL     1       3.329   3.723  19.972  0.00  0.00    +0.000 S 
ATOM      7  H   UNL     1       1.963   5.944  20.912  0.00  0.00    +0.000 HD
ENDROOT
BRANCH   4   8
ATOM      8  C   UNL     1       5.380   4.581  16.687  0.00  0.00    +0.000 A 
ATOM      9  C   UNL     1       6.680   5.113  16.730  0.00  0.00    +0.000 A 
ATOM     10  C   UNL     1       7.442   5.237  15.566  0.00  0.00    +0.000 A 
ATOM     11  C   UNL     1       6.904   4.838  14.346  0.00  0.00    +0.000 A 
ATOM     12 CL   UNL     1       7.838   4.988  12.911  0.00  0.00    +0.000 Cl
ATOM     13  C   UNL     1       5.608   4.327  14.281  0.00  0.00    +0.000 A 
ATOM     14  C   UNL     1       4.846   4.198  15.447  0.00  0.00    +0.000 A 
ENDBRANCH   4   8
BRANCH   1  20
ATOM     15  C   UNL     1       1.508   8.444  20.512  0.00  0.00    +0.000 A 
ATOM     16  C   UNL     1       0.941   9.622  20.022  0.00  0.00    +0.000 A 
ATOM     17  C   UNL     1       0.968   9.878  18.651  0.00  0.00    +0.000 A 
ATOM     18  C   UNL     1       1.587   8.980  17.788  0.00  0.00    +0.000 A 
ATOM     19  C   UNL     1       2.175   7.817  18.291  0.00  0.00    +0.000 A 
ATOM     20  C   UNL     1       2.116   7.508  19.656  0.00  0.00    +0.000 A 
BRANCH  15  21
ATOM     21  O   UNL     1       1.449   8.149  21.852  0.00  0.00    +0.000 OA
ATOM     22  H   UNL     1       1.146   7.231  21.942  0.00  0.00    +0.000 HD
ENDBRANCH  15  21
ENDBRANCH   1  20
TORSDOF 3
ENDMDL
MODEL 8
REMARK VINA RESULT:      -7.0      3.735      4.561
REMARK  Name = 
REMARK  3 active torsions:
REMARK  status: ('A' for Active; 'I' for Inactive)
REMARK    1  A    between atoms: O_1  and  C_2
REMARK    2  A    between atoms: C_7  and  N_8
REMARK    3  A    between atoms: C_11  and  C_12
REMARK                            x       y       z     vdW  Elec       q    Type
REMARK                         _______ _______ _______ _____ _____    ______ ____
ROOT
ATOM      1  N   UNL     1       7.601   5.531  15.329  0.00  0.00    +0.000 N 
ATOM      2  C   UNL     1       6.840   5.740  16.432  0.00  0.00    +0.000 A 
ATOM      3  N   UNL     1       5.821   5.004  16.813  0.00  0.00    +0.000 NA
ATOM      4  C   UNL     1       5.154   5.565  17.878  0.00  0.00    +0.000 A 
ATOM      5  C   UNL     1       5.733   6.713  18.374  0.00  0.00    +0.000 A 
ATOM      6  S   UNL     1       7.139   7.096  17.461  0.00  0.00    +0.000 S 
ATOM      7  H   UNL     1       8.273   6.252  15.077  0.00  0.00    +0.000 HD
ENDROOT
BRANCH   4   8
ATOM      8  C   UNL     1       3.939   4.937  18.375  0.00  0.00    +0.000 A 
ATOM      9  C   UNL     1       3.581   5.099  19.724  0.00  0.00    +0.000 A 
ATOM     10  C   UNL     1       2.439   4.482  20.240  0.00  0.00    +0.000 A 
ATOM     11  C   UNL     1       1.651   3.689  19.411  0.00  0.00    +0.000 A 
ATOM     12 CL   UNL     1       0.243   2.929  20.041  0.00  0.00    +0.000 Cl
ATOM     13  C   UNL     1       2.002   3.501  18.074  0.00  0.00    +0.000 A 
ATOM     14  C   UNL     1       3.143   4.122  17.555  0.00  0.00    +0.000 A 
ENDBRANCH   4   8
BRANCH   1  20
ATOM     15  C   UNL     1       7.798   5.100  12.946  0.00  0.00    +0.000 A 
ATOM     16  C   UNL     1       7.365   4.510  11.757  0.00  0.00    +0.000 A 
ATOM     17  C   UNL     1       6.266   3.650  11.779  0.00  0.00    +0.000 A 
ATOM     18  C   UNL     1       5.634   3.360  12.984  0.00  0.00    +0.000 A 
ATOM     19  C   UNL     1       6.092   3.934  14.171  0.00  0.00    +0.000 A 
ATOM     20  C   UNL     1       7.159   4.842  14.172  0.00  0.00    +0.000 A 
BRANCH  15  21
ATOM     21  O   UNL     1       8.847   5.986  12.940  0.00  0.00    +0.000 OA
ATOM     22  H   UNL     1       9.604   5.550  12.515  0.00  0.00    +0.000 HD
ENDBRANCH  15  21
ENDBRANCH   1  20
TORSDOF 3
ENDMDL
MODEL 9
REMARK VINA RESULT:      -7.0      3.219      6.625
REMARK  Name = 
REMARK  3 active torsions:
REMARK  status: ('A' for Active; 'I' for Inactive)
REMARK    1  A    between atoms: O_1  and  C_2
REMARK    2  A    between atoms: C_7  and  N_8
REMARK    3  A    between atoms: C_11  and  C_12
REMARK                            x       y       z     vdW  Elec       q    Type
REMARK                         _______ _______ _______ _____ _____    ______ ____
ROOT
ATOM      1  N   UNL     1       2.624   6.340  20.184  0.00  0.00    +0.000 N 
ATOM      2  C   UNL     1       3.377   5.451  19.491  0.00  0.00    +0.000 A 
ATOM      3  N   UNL     1       4.128   5.727  18.450  0.00  0.00    +0.000 NA
ATOM      4  C   UNL     1       4.639   4.589  17.869  0.00  0.00    +0.000 A 
ATOM      5  C   UNL     1       4.337   3.422  18.538  0.00  0.00    +0.000 A 
ATOM      6  S   UNL     1       3.374   3.776  19.919  0.00  0.00    +0.000 S 
ATOM      7  H   UNL     1       1.984   5.971  20.884  0.00  0.00    +0.000 HD
ENDROOT
BRANCH   4   8
ATOM      8  C   UNL     1       5.418   4.695  16.645  0.00  0.00    +0.000 A 
ATOM      9  C   UNL     1       4.846   4.292  15.426  0.00  0.00    +0.000 A 
ATOM     10  C   UNL     1       5.579   4.350  14.238  0.00  0.00    +0.000 A 
ATOM     11  C   UNL     1       6.895   4.802  14.263  0.00  0.00    +0.000 A 
ATOM     12 CL   UNL     1       7.800   4.876  12.804  0.00  0.00    +0.000 Cl
ATOM     13  C   UNL     1       7.485   5.187  15.466  0.00  0.00    +0.000 A 
ATOM     14  C   UNL     1       6.751   5.134  16.656  0.00  0.00    +0.000 A 
ENDBRANCH   4   8
BRANCH   1  20
ATOM     15  C   UNL     1       1.516   8.478  20.515  0.00  0.00    +0.000 A 
ATOM     16  C   UNL     1       0.936   9.655  20.039  0.00  0.00    +0.000 A 
ATOM     17  C   UNL     1       0.949   9.922  18.670  0.00  0.00    +0.000 A 
ATOM     18  C   UNL     1       1.565   9.034  17.794  0.00  0.00    +0.000 A 
ATOM     19  C   UNL     1       2.164   7.872  18.283  0.00  0.00    +0.000 A 
ATOM     20  C   UNL     1       2.121   7.551  19.646  0.00  0.00    +0.000 A 
BRANCH  15  21
ATOM     21  O   UNL     1       1.472   8.173  21.853  0.00  0.00    +0.000 OA
ATOM     22  H   UNL     1       1.145   7.262  21.941  0.00  0.00    +0.000 HD
ENDBRANCH  15  21
ENDBRANCH   1  20
TORSDOF 3
ENDMDL
