MODEL 1
REMARK VINA RESULT:      -7.3      0.000      0.000
REMARK  Name = 
REMARK  23 active torsions:
REMARK  status: ('A' for Active; 'I' for Inactive)
REMARK    1  A    between atoms: C_1  and  O_2
REMARK    2  A    between atoms: O_2  and  C_3
REMARK    3  A    between atoms: C_4  and  C_5
REMARK    4  A    between atoms: C_7  and  O_8
REMARK    5  A    between atoms: C_10  and  C_11
REMARK    6  A    between atoms: C_11  and  C_12
REMARK    7  A    between atoms: C_13  and  C_14
REMARK    8  A    between atoms: C_13  and  C_15
REMARK    9  A    between atoms: C_15  and  C_16
REMARK   10  A    between atoms: C_16  and  C_18
REMARK   11  A    between atoms: C_19  and  C_20
REMARK   12  A    between atoms: C_19  and  C_21
REMARK   13  A    between atoms: C_21  and  C_22
REMARK   14  A    between atoms: C_22  and  C_23
REMARK   15  A    between atoms: C_24  and  C_25
REMARK   16  A    between atoms: C_24  and  C_26
REMARK   17  A    between atoms: C_26  and  C_27
REMARK   18  A    between atoms: C_27  and  C_28
REMARK   19  A    between atoms: C_28  and  O_29
REMARK   20  A    between atoms: C_28  and  C_30
REMARK   21  A    between atoms: C_30  and  C_31
REMARK   22  A    between atoms: C_30  and  C_32
REMARK   23  A    between atoms: C_30  and  O_33
REMARK                            x       y       z     vdW  Elec       q    Type
REMARK                         _______ _______ _______ _____ _____    ______ ____
ROOT
ATOM      1  C   UNL     1       1.973   3.571  18.035  0.00  0.00    +0.000 C 
ATOM      2  O   UNL     1       2.145   2.456  17.532  0.00  0.00    +0.000 OA
ENDROOT
BRANCH   1   3
ATOM      3  C   UNL     1       2.694   4.778  17.520  0.00  0.00    +0.000 C 
ATOM      4  C   UNL     1       4.021   5.034  17.567  0.00  0.00    +0.000 C 
ATOM      5  C   UNL     1       5.061   4.057  18.049  0.00  0.00    +0.000 C 
BRANCH   4   6
ATOM      6  C   UNL     1       4.621   6.377  17.135  0.00  0.00    +0.000 C 
BRANCH   6   7
ATOM      7  C   UNL     1       6.084   6.270  16.703  0.00  0.00    +0.000 C 
BRANCH   7   8
ATOM      8  C   UNL     1       7.037   7.314  17.186  0.00  0.00    +0.000 C 
ATOM      9  C   UNL     1       7.812   7.107  18.272  0.00  0.00    +0.000 C 
ATOM     10  C   UNL     1       7.774   5.828  19.083  0.00  0.00    +0.000 C 
BRANCH   9  11
ATOM     11  C   UNL     1       8.787   8.163  18.745  0.00  0.00    +0.000 C 
BRANCH  11  12
ATOM     12  C   UNL     1       8.417   9.528  18.163  0.00  0.00    +0.000 C 
BRANCH  12  13
ATOM     13  C   UNL     1       8.687  10.690  19.119  0.00  0.00    +0.000 C 
BRANCH  13  14
ATOM     14  C   UNL     1       9.348  11.915  18.423  0.00  0.00    +0.000 C 
ATOM     15  C   UNL     1      10.650  11.564  17.692  0.00  0.00    +0.000 C 
ATOM     16  C   UNL     1       8.379  12.610  17.464  0.00  0.00    +0.000 C 
BRANCH  14  17
ATOM     17  O   UNL     1       9.691  12.862  19.447  0.00  0.00    +0.000 OA
ATOM     18  H   UNL     1       9.059  12.703  20.177  0.00  0.00    +0.000 HD
ENDBRANCH  14  17
ENDBRANCH  13  14
BRANCH  13  19
ATOM     19  O   UNL     1       9.534  10.259  20.197  0.00  0.00    +0.000 OA
ATOM     20  H   UNL     1      10.306   9.807  19.816  0.00  0.00    +0.000 HD
ENDBRANCH  13  19
ENDBRANCH  12  13
ENDBRANCH  11  12
ENDBRANCH   9  11
ENDBRANCH   7   8
ENDBRANCH   6   7
ENDBRANCH   4   6
ENDBRANCH   1   3
BRANCH   1  21
ATOM     21  C   UNL     1       1.067   3.762  19.238  0.00  0.00    +0.000 C 
BRANCH  21  23
ATOM     22  C   UNL     1       1.477   6.066  20.092  0.00  0.00    +0.000 C 
ATOM     23  C   UNL     1       1.636   4.734  20.254  0.00  0.00    +0.000 C 
ATOM     24  C   UNL     1       2.446   4.122  21.364  0.00  0.00    +0.000 C 
BRANCH  22  25
ATOM     25  C   UNL     1       2.042   7.172  20.958  0.00  0.00    +0.000 C 
BRANCH  25  32
ATOM     26  C   UNL     1       0.859   9.146  19.761  0.00  0.00    +0.000 A 
ATOM     27  C   UNL     1       0.061  10.314  19.849  0.00  0.00    +0.000 A 
ATOM     28  C   UNL     1      -0.437  11.180  18.722  0.00  0.00    +0.000 C 
ATOM     29  C   UNL     1      -0.322  10.777  21.126  0.00  0.00    +0.000 A 
ATOM     30  C   UNL     1       0.018  10.085  22.276  0.00  0.00    +0.000 A 
ATOM     31  C   UNL     1       0.765   8.928  22.199  0.00  0.00    +0.000 A 
ATOM     32  C   UNL     1       1.194   8.437  20.951  0.00  0.00    +0.000 A 
BRANCH  26  34
ATOM     33  C   UNL     1       2.296   9.244  17.821  0.00  0.00    +0.000 C 
ATOM     34  O   UNL     1       1.344   8.565  18.619  0.00  0.00    +0.000 OA
ENDBRANCH  26  34
BRANCH  30  35
ATOM     35  O   UNL     1      -0.376  10.516  23.507  0.00  0.00    +0.000 OA
ATOM     36  H   UNL     1      -0.833   9.786  23.956  0.00  0.00    +0.000 HD
ENDBRANCH  30  35
ENDBRANCH  25  32
ENDBRANCH  22  25
ENDBRANCH  21  23
ENDBRANCH   1  21
TORSDOF 16
ENDMDL
MODEL 2
REMARK VINA RESULT:      -7.2      3.517      6.997
REMARK  Name = 
REMARK  23 active torsions:
REMARK  status: ('A' for Active; 'I' for Inactive)
REMARK    1  A    between atoms: C_1  and  O_2
REMARK    2  A    between atoms: O_2  and  C_3
REMARK    3  A    between atoms: C_4  and  C_5
REMARK    4  A    between atoms: C_7  and  O_8
REMARK    5  A    between atoms: C_10  and  C_11
REMARK    6  A    between atoms: C_11  and  C_12
REMARK    7  A    between atoms: C_13  and  C_14
REMARK    8  A    between atoms: C_13  and  C_15
REMARK    9  A    between atoms: C_15  and  C_16
REMARK   10  A    between atoms: C_16  and  C_18
REMARK   11  A    between atoms: C_19  and  C_20
REMARK   12  A    between atoms: C_19  and  C_21
REMARK   13  A    between atoms: C_21  and  C_22
REMARK   14  A    between atoms: C_22  and  C_23
REMARK   15  A    between atoms: C_24  and  C_25
REMARK   16  A    between atoms: C_24  and  C_26
REMARK   17  A    between atoms: C_26  and  C_27
REMARK   18  A    between atoms: C_27  and  C_28
REMARK   19  A    between atoms: C_28  and  O_29
REMARK   20  A    between atoms: C_28  and  C_30
REMARK   21  A    between atoms: C_30  and  C_31
REMARK   22  A    between atoms: C_30  and  C_32
REMARK   23  A    between atoms: C_30  and  O_33
REMARK                            x       y       z     vdW  Elec       q    Type
REMARK                         _______ _______ _______ _____ _____    ______ ____
ROOT
ATOM      1  C   UNL     1       3.068   7.615  17.770  0.00  0.00    +0.000 C 
ATOM      2  O   UNL     1       2.297   6.650  17.770  0.00  0.00    +0.000 OA
ENDROOT
BRANCH   1   3
ATOM      3  C   UNL     1       4.550   7.429  17.871  0.00  0.00    +0.000 C 
ATOM      4  C   UNL     1       5.407   7.054  16.895  0.00  0.00    +0.000 C 
ATOM      5  C   UNL     1       5.026   6.875  15.449  0.00  0.00    +0.000 C 
BRANCH   4   6
ATOM      6  C   UNL     1       6.888   6.757  17.161  0.00  0.00    +0.000 C 
BRANCH   6   7
ATOM      7  C   UNL     1       7.155   5.288  17.488  0.00  0.00    +0.000 C 
BRANCH   7   8
ATOM      8  C   UNL     1       6.436   4.684  18.651  0.00  0.00    +0.000 C 
ATOM      9  C   UNL     1       5.330   3.932  18.477  0.00  0.00    +0.000 C 
ATOM     10  C   UNL     1       4.727   3.649  17.116  0.00  0.00    +0.000 C 
BRANCH   9  11
ATOM     11  C   UNL     1       4.618   3.311  19.660  0.00  0.00    +0.000 C 
BRANCH  11  12
ATOM     12  C   UNL     1       3.569   2.305  19.181  0.00  0.00    +0.000 C 
BRANCH  12  13
ATOM     13  C   UNL     1       2.319   2.267  20.060  0.00  0.00    +0.000 C 
BRANCH  13  14
ATOM     14  C   UNL     1       1.223   3.276  19.608  0.00  0.00    +0.000 C 
ATOM     15  C   UNL     1       1.213   4.567  20.436  0.00  0.00    +0.000 C 
ATOM     16  C   UNL     1       1.341   3.609  18.120  0.00  0.00    +0.000 C 
BRANCH  14  17
ATOM     17  O   UNL     1      -0.053   2.647  19.806  0.00  0.00    +0.000 OA
ATOM     18  H   UNL     1      -0.041   2.308  20.725  0.00  0.00    +0.000 HD
ENDBRANCH  14  17
ENDBRANCH  13  14
BRANCH  13  19
ATOM     19  O   UNL     1       2.664   2.542  21.427  0.00  0.00    +0.000 OA
ATOM     20  H   UNL     1       1.864   2.432  21.971  0.00  0.00    +0.000 HD
ENDBRANCH  13  19
ENDBRANCH  12  13
ENDBRANCH  11  12
ENDBRANCH   9  11
ENDBRANCH   7   8
ENDBRANCH   6   7
ENDBRANCH   4   6
ENDBRANCH   1   3
BRANCH   1  21
ATOM     21  C   UNL     1       2.547   9.040  17.731  0.00  0.00    +0.000 C 
BRANCH  21  23
ATOM     22  C   UNL     1       0.233   9.895  18.073  0.00  0.00    +0.000 C 
ATOM     23  C   UNL     1       1.301   9.235  18.572  0.00  0.00    +0.000 C 
ATOM     24  C   UNL     1       1.382   8.738  19.990  0.00  0.00    +0.000 C 
BRANCH  22  25
ATOM     25  C   UNL     1      -1.052  10.247  18.794  0.00  0.00    +0.000 C 
BRANCH  25  32
ATOM     26  C   UNL     1      -3.356  11.320  18.273  0.00  0.00    +0.000 A 
ATOM     27  C   UNL     1      -4.365  11.621  17.325  0.00  0.00    +0.000 A 
ATOM     28  C   UNL     1      -5.643  12.386  17.548  0.00  0.00    +0.000 C 
ATOM     29  C   UNL     1      -4.215  11.150  16.003  0.00  0.00    +0.000 A 
ATOM     30  C   UNL     1      -3.084  10.456  15.609  0.00  0.00    +0.000 A 
ATOM     31  C   UNL     1      -2.079  10.188  16.514  0.00  0.00    +0.000 A 
ATOM     32  C   UNL     1      -2.191  10.614  17.852  0.00  0.00    +0.000 A 
BRANCH  26  34
ATOM     33  C   UNL     1      -2.986  12.983  19.985  0.00  0.00    +0.000 C 
ATOM     34  O   UNL     1      -3.340  11.668  19.597  0.00  0.00    +0.000 OA
ENDBRANCH  26  34
BRANCH  30  35
ATOM     35  O   UNL     1      -2.924  10.027  14.325  0.00  0.00    +0.000 OA
ATOM     36  H   UNL     1      -3.602  10.450  13.774  0.00  0.00    +0.000 HD
ENDBRANCH  30  35
ENDBRANCH  25  32
ENDBRANCH  22  25
ENDBRANCH  21  23
ENDBRANCH   1  21
TORSDOF 16
ENDMDL
MODEL 3
REMARK VINA RESULT:      -7.1      3.865      7.992
REMARK  Name = 
REMARK  23 active torsions:
REMARK  status: ('A' for Active; 'I' for Inactive)
REMARK    1  A    between atoms: C_1  and  O_2
REMARK    2  A    between atoms: O_2  and  C_3
REMARK    3  A    between atoms: C_4  and  C_5
REMARK    4  A    between atoms: C_7  and  O_8
REMARK    5  A    between atoms: C_10  and  C_11
REMARK    6  A    between atoms: C_11  and  C_12
REMARK    7  A    between atoms: C_13  and  C_14
REMARK    8  A    between atoms: C_13  and  C_15
REMARK    9  A    between atoms: C_15  and  C_16
REMARK   10  A    between atoms: C_16  and  C_18
REMARK   11  A    between atoms: C_19  and  C_20
REMARK   12  A    between atoms: C_19  and  C_21
REMARK   13  A    between atoms: C_21  and  C_22
REMARK   14  A    between atoms: C_22  and  C_23
REMARK   15  A    between atoms: C_24  and  C_25
REMARK   16  A    between atoms: C_24  and  C_26
REMARK   17  A    between atoms: C_26  and  C_27
REMARK   18  A    between atoms: C_27  and  C_28
REMARK   19  A    between atoms: C_28  and  O_29
REMARK   20  A    between atoms: C_28  and  C_30
REMARK   21  A    between atoms: C_30  and  C_31
REMARK   22  A    between atoms: C_30  and  C_32
REMARK   23  A    between atoms: C_30  and  O_33
REMARK                            x       y       z     vdW  Elec       q    Type
REMARK                         _______ _______ _______ _____ _____    ______ ____
ROOT
ATOM      1  C   UNL     1       0.672   9.964  21.156  0.00  0.00    +0.000 C 
ATOM      2  O   UNL     1       1.429  10.353  22.051  0.00  0.00    +0.000 OA
ENDROOT
BRANCH   1   3
ATOM      3  C   UNL     1       1.129   8.983  20.121  0.00  0.00    +0.000 C 
ATOM      4  C   UNL     1       1.524   9.238  18.853  0.00  0.00    +0.000 C 
ATOM      5  C   UNL     1       1.700  10.618  18.277  0.00  0.00    +0.000 C 
BRANCH   4   6
ATOM      6  C   UNL     1       1.830   8.127  17.842  0.00  0.00    +0.000 C 
BRANCH   6   7
ATOM      7  C   UNL     1       3.327   7.855  17.683  0.00  0.00    +0.000 C 
BRANCH   7   8
ATOM      8  C   UNL     1       3.824   6.475  17.968  0.00  0.00    +0.000 C 
ATOM      9  C   UNL     1       4.678   5.851  17.131  0.00  0.00    +0.000 C 
ATOM     10  C   UNL     1       5.188   6.480  15.849  0.00  0.00    +0.000 C 
BRANCH   9  11
ATOM     11  C   UNL     1       5.190   4.460  17.436  0.00  0.00    +0.000 C 
BRANCH  11  12
ATOM     12  C   UNL     1       4.106   3.419  17.149  0.00  0.00    +0.000 C 
BRANCH  12  13
ATOM     13  C   UNL     1       3.822   2.496  18.333  0.00  0.00    +0.000 C 
BRANCH  13  14
ATOM     14  C   UNL     1       2.420   2.729  18.968  0.00  0.00    +0.000 C 
ATOM     15  C   UNL     1       2.490   3.261  20.405  0.00  0.00    +0.000 C 
ATOM     16  C   UNL     1       1.558   3.655  18.108  0.00  0.00    +0.000 C 
BRANCH  14  17
ATOM     17  O   UNL     1       1.755   1.458  19.029  0.00  0.00    +0.000 OA
ATOM     18  H   UNL     1       0.934   1.563  18.507  0.00  0.00    +0.000 HD
ENDBRANCH  14  17
ENDBRANCH  13  14
BRANCH  13  19
ATOM     19  O   UNL     1       4.823   2.668  19.349  0.00  0.00    +0.000 OA
ATOM     20  H   UNL     1       5.382   3.426  19.103  0.00  0.00    +0.000 HD
ENDBRANCH  13  19
ENDBRANCH  12  13
ENDBRANCH  11  12
ENDBRANCH   9  11
ENDBRANCH   7   8
ENDBRANCH   6   7
ENDBRANCH   4   6
ENDBRANCH   1   3
BRANCH   1  21
ATOM     21  C   UNL     1      -0.739  10.507  21.024  0.00  0.00    +0.000 C 
BRANCH  21  23
ATOM     22  C   UNL     1      -1.363  12.074  22.856  0.00  0.00    +0.000 C 
ATOM     23  C   UNL     1      -0.890  11.900  21.602  0.00  0.00    +0.000 C 
ATOM     24  C   UNL     1      -0.574  13.035  20.668  0.00  0.00    +0.000 C 
BRANCH  22  25
ATOM     25  C   UNL     1      -1.651  13.386  23.557  0.00  0.00    +0.000 C 
BRANCH  25  32
ATOM     26  C   UNL     1      -3.615  15.065  23.324  0.00  0.00    +0.000 A 
ATOM     27  C   UNL     1      -5.011  15.310  23.358  0.00  0.00    +0.000 A 
ATOM     28  C   UNL     1      -5.728  16.605  23.085  0.00  0.00    +0.000 C 
ATOM     29  C   UNL     1      -5.875  14.251  23.709  0.00  0.00    +0.000 A 
ATOM     30  C   UNL     1      -5.392  12.978  23.960  0.00  0.00    +0.000 A 
ATOM     31  C   UNL     1      -4.038  12.721  23.895  0.00  0.00    +0.000 A 
ATOM     32  C   UNL     1      -3.131  13.748  23.575  0.00  0.00    +0.000 A 
BRANCH  26  34
ATOM     33  C   UNL     1      -2.262  16.957  23.977  0.00  0.00    +0.000 C 
ATOM     34  O   UNL     1      -2.628  15.968  23.032  0.00  0.00    +0.000 OA
ENDBRANCH  26  34
BRANCH  30  35
ATOM     35  O   UNL     1      -6.228  11.948  24.270  0.00  0.00    +0.000 OA
ATOM     36  H   UNL     1      -6.937  12.289  24.838  0.00  0.00    +0.000 HD
ENDBRANCH  30  35
ENDBRANCH  25  32
ENDBRANCH  22  25
ENDBRANCH  21  23
ENDBRANCH   1  21
TORSDOF 16
ENDMDL
MODEL 4
REMARK VINA RESULT:      -7.1      1.931      8.419
REMARK  Name = 
REMARK  23 active torsions:
REMARK  status: ('A' for Active; 'I' for Inactive)
REMARK    1  A    between atoms: C_1  and  O_2
REMARK    2  A    between atoms: O_2  and  C_3
REMARK    3  A    between atoms: C_4  and  C_5
REMARK    4  A    between atoms: C_7  and  O_8
REMARK    5  A    between atoms: C_10  and  C_11
REMARK    6  A    between atoms: C_11  and  C_12
REMARK    7  A    between atoms: C_13  and  C_14
REMARK    8  A    between atoms: C_13  and  C_15
REMARK    9  A    between atoms: C_15  and  C_16
REMARK   10  A    between atoms: C_16  and  C_18
REMARK   11  A    between atoms: C_19  and  C_20
REMARK   12  A    between atoms: C_19  and  C_21
REMARK   13  A    between atoms: C_21  and  C_22
REMARK   14  A    between atoms: C_22  and  C_23
REMARK   15  A    between atoms: C_24  and  C_25
REMARK   16  A    between atoms: C_24  and  C_26
REMARK   17  A    between atoms: C_26  and  C_27
REMARK   18  A    between atoms: C_27  and  C_28
REMARK   19  A    between atoms: C_28  and  O_29
REMARK   20  A    between atoms: C_28  and  C_30
REMARK   21  A    between atoms: C_30  and  C_31
REMARK   22  A    between atoms: C_30  and  C_32
REMARK   23  A    between atoms: C_30  and  O_33
REMARK                            x       y       z     vdW  Elec       q    Type
REMARK                         _______ _______ _______ _____ _____    ______ ____
ROOT
ATOM      1  C   UNL     1       6.688   6.174  16.759  0.00  0.00    +0.000 C 
ATOM      2  O   UNL     1       7.589   5.382  16.466  0.00  0.00    +0.000 OA
ENDROOT
BRANCH   1   3
ATOM      3  C   UNL     1       5.282   5.709  16.982  0.00  0.00    +0.000 C 
ATOM      4  C   UNL     1       4.784   5.063  18.060  0.00  0.00    +0.000 C 
ATOM      5  C   UNL     1       5.553   4.800  19.328  0.00  0.00    +0.000 C 
BRANCH   4   6
ATOM      6  C   UNL     1       3.355   4.509  18.105  0.00  0.00    +0.000 C 
BRANCH   6   7
ATOM      7  C   UNL     1       2.288   5.577  17.862  0.00  0.00    +0.000 C 
BRANCH   7   8
ATOM      8  C   UNL     1       2.215   6.726  18.815  0.00  0.00    +0.000 C 
ATOM      9  C   UNL     1       1.838   6.549  20.099  0.00  0.00    +0.000 C 
ATOM     10  C   UNL     1       1.455   5.199  20.669  0.00  0.00    +0.000 C 
BRANCH   9  11
ATOM     11  C   UNL     1       1.783   7.716  21.061  0.00  0.00    +0.000 C 
BRANCH  11  12
ATOM     12  C   UNL     1       0.341   8.193  21.236  0.00  0.00    +0.000 C 
BRANCH  12  13
ATOM     13  C   UNL     1       0.232   9.567  21.898  0.00  0.00    +0.000 C 
BRANCH  13  14
ATOM     14  C   UNL     1      -0.091  10.708  20.890  0.00  0.00    +0.000 C 
ATOM     15  C   UNL     1       1.110  11.617  20.602  0.00  0.00    +0.000 C 
ATOM     16  C   UNL     1      -0.659  10.160  19.579  0.00  0.00    +0.000 C 
BRANCH  14  17
ATOM     17  O   UNL     1      -1.103  11.536  21.482  0.00  0.00    +0.000 OA
ATOM     18  H   UNL     1      -0.629  12.303  21.863  0.00  0.00    +0.000 HD
ENDBRANCH  14  17
ENDBRANCH  13  14
BRANCH  13  19
ATOM     19  O   UNL     1       1.455   9.888  22.581  0.00  0.00    +0.000 OA
ATOM     20  H   UNL     1       2.068   9.140  22.476  0.00  0.00    +0.000 HD
ENDBRANCH  13  19
ENDBRANCH  12  13
ENDBRANCH  11  12
ENDBRANCH   9  11
ENDBRANCH   7   8
ENDBRANCH   6   7
ENDBRANCH   4   6
ENDBRANCH   1   3
BRANCH   1  21
ATOM     21  C   UNL     1       6.949   7.667  16.848  0.00  0.00    +0.000 C 
BRANCH  21  23
ATOM     22  C   UNL     1       8.346   9.296  18.111  0.00  0.00    +0.000 C 
ATOM     23  C   UNL     1       7.873   8.036  17.992  0.00  0.00    +0.000 C 
ATOM     24  C   UNL     1       8.284   6.905  18.893  0.00  0.00    +0.000 C 
BRANCH  22  25
ATOM     25  C   UNL     1       9.332   9.816  19.137  0.00  0.00    +0.000 C 
BRANCH  25  32
ATOM     26  C   UNL     1       9.400  12.343  19.719  0.00  0.00    +0.000 A 
ATOM     27  C   UNL     1       9.857  13.647  19.404  0.00  0.00    +0.000 A 
ATOM     28  C   UNL     1       9.620  14.920  20.174  0.00  0.00    +0.000 C 
ATOM     29  C   UNL     1      10.609  13.835  18.224  0.00  0.00    +0.000 A 
ATOM     30  C   UNL     1      10.952  12.768  17.411  0.00  0.00    +0.000 A 
ATOM     31  C   UNL     1      10.543  11.490  17.727  0.00  0.00    +0.000 A 
ATOM     32  C   UNL     1       9.769  11.252  18.880  0.00  0.00    +0.000 A 
BRANCH  26  34
ATOM     33  C   UNL     1       9.120  12.197  22.115  0.00  0.00    +0.000 C 
ATOM     34  O   UNL     1       8.644  11.975  20.800  0.00  0.00    +0.000 OA
ENDBRANCH  26  34
BRANCH  30  35
ATOM     35  O   UNL     1      11.703  12.944  16.288  0.00  0.00    +0.000 OA
ATOM     36  H   UNL     1      11.350  13.705  15.799  0.00  0.00    +0.000 HD
ENDBRANCH  30  35
ENDBRANCH  25  32
ENDBRANCH  22  25
ENDBRANCH  21  23
ENDBRANCH   1  21
TORSDOF 16
ENDMDL
MODEL 5
REMARK VINA RESULT:      -7.0      3.377      5.520
REMARK  Name = 
REMARK  23 active torsions:
REMARK  status: ('A' for Active; 'I' for Inactive)
REMARK    1  A    between atoms: C_1  and  O_2
REMARK    2  A    between atoms: O_2  and  C_3
REMARK    3  A    between atoms: C_4  and  C_5
REMARK    4  A    between atoms: C_7  and  O_8
REMARK    5  A    between atoms: C_10  and  C_11
REMARK    6  A    between atoms: C_11  and  C_12
REMARK    7  A    between atoms: C_13  and  C_14
REMARK    8  A    between atoms: C_13  and  C_15
REMARK    9  A    between atoms: C_15  and  C_16
REMARK   10  A    between atoms: C_16  and  C_18
REMARK   11  A    between atoms: C_19  and  C_20
REMARK   12  A    between atoms: C_19  and  C_21
REMARK   13  A    between atoms: C_21  and  C_22
REMARK   14  A    between atoms: C_22  and  C_23
REMARK   15  A    between atoms: C_24  and  C_25
REMARK   16  A    between atoms: C_24  and  C_26
REMARK   17  A    between atoms: C_26  and  C_27
REMARK   18  A    between atoms: C_27  and  C_28
REMARK   19  A    between atoms: C_28  and  O_29
REMARK   20  A    between atoms: C_28  and  C_30
REMARK   21  A    between atoms: C_30  and  C_31
REMARK   22  A    between atoms: C_30  and  C_32
REMARK   23  A    between atoms: C_30  and  O_33
REMARK                            x       y       z     vdW  Elec       q    Type
REMARK                         _______ _______ _______ _____ _____    ______ ____
ROOT
ATOM      1  C   UNL     1       1.858   6.725  20.208  0.00  0.00    +0.000 C 
ATOM      2  O   UNL     1       2.803   7.122  19.519  0.00  0.00    +0.000 OA
ENDROOT
BRANCH   1   3
ATOM      3  C   UNL     1       1.093   5.490  19.844  0.00  0.00    +0.000 C 
ATOM      4  C   UNL     1       1.230   4.247  20.358  0.00  0.00    +0.000 C 
ATOM      5  C   UNL     1       2.123   3.900  21.521  0.00  0.00    +0.000 C 
BRANCH   4   6
ATOM      6  C   UNL     1       0.484   3.032  19.796  0.00  0.00    +0.000 C 
BRANCH   6   7
ATOM      7  C   UNL     1       1.327   2.207  18.822  0.00  0.00    +0.000 C 
BRANCH   7   8
ATOM      8  C   UNL     1       2.361   2.920  18.011  0.00  0.00    +0.000 C 
ATOM      9  C   UNL     1       3.674   2.816  18.303  0.00  0.00    +0.000 C 
ATOM     10  C   UNL     1       4.202   1.994  19.462  0.00  0.00    +0.000 C 
BRANCH   9  11
ATOM     11  C   UNL     1       4.716   3.527  17.466  0.00  0.00    +0.000 C 
BRANCH  11  12
ATOM     12  C   UNL     1       5.213   4.781  18.188  0.00  0.00    +0.000 C 
BRANCH  12  13
ATOM     13  C   UNL     1       6.626   5.196  17.779  0.00  0.00    +0.000 C 
BRANCH  13  14
ATOM     14  C   UNL     1       6.692   5.819  16.354  0.00  0.00    +0.000 C 
ATOM     15  C   UNL     1       7.082   4.807  15.270  0.00  0.00    +0.000 C 
ATOM     16  C   UNL     1       5.380   6.510  15.978  0.00  0.00    +0.000 C 
BRANCH  14  17
ATOM     17  O   UNL     1       7.717   6.825  16.368  0.00  0.00    +0.000 OA
ATOM     18  H   UNL     1       8.302   6.617  15.611  0.00  0.00    +0.000 HD
ENDBRANCH  14  17
ENDBRANCH  13  14
BRANCH  13  19
ATOM     19  O   UNL     1       7.511   4.066  17.829  0.00  0.00    +0.000 OA
ATOM     20  H   UNL     1       7.195   3.402  17.192  0.00  0.00    +0.000 HD
ENDBRANCH  13  19
ENDBRANCH  12  13
ENDBRANCH  11  12
ENDBRANCH   9  11
ENDBRANCH   7   8
ENDBRANCH   6   7
ENDBRANCH   4   6
ENDBRANCH   1   3
BRANCH   1  21
ATOM     21  C   UNL     1       1.387   7.502  21.424  0.00  0.00    +0.000 C 
BRANCH  21  23
ATOM     22  C   UNL     1       0.958   9.347  19.806  0.00  0.00    +0.000 C 
ATOM     23  C   UNL     1       0.915   8.902  21.081  0.00  0.00    +0.000 C 
ATOM     24  C   UNL     1       0.504   9.758  22.247  0.00  0.00    +0.000 C 
BRANCH  22  25
ATOM     25  C   UNL     1       0.606  10.731  19.302  0.00  0.00    +0.000 C 
BRANCH  25  32
ATOM     26  C   UNL     1      -1.812  11.656  19.471  0.00  0.00    +0.000 A 
ATOM     27  C   UNL     1      -3.129  11.708  18.949  0.00  0.00    +0.000 A 
ATOM     28  C   UNL     1      -4.291  12.522  19.454  0.00  0.00    +0.000 C 
ATOM     29  C   UNL     1      -3.449  10.900  17.837  0.00  0.00    +0.000 A 
ATOM     30  C   UNL     1      -2.493  10.112  17.219  0.00  0.00    +0.000 A 
ATOM     31  C   UNL     1      -1.199  10.081  17.697  0.00  0.00    +0.000 A 
ATOM     32  C   UNL     1      -0.834  10.848  18.820  0.00  0.00    +0.000 A 
BRANCH  26  34
ATOM     33  C   UNL     1      -1.917  12.176  21.828  0.00  0.00    +0.000 C 
ATOM     34  O   UNL     1      -1.327  12.344  20.551  0.00  0.00    +0.000 OA
ENDBRANCH  26  34
BRANCH  30  35
ATOM     35  O   UNL     1      -2.793   9.354  16.127  0.00  0.00    +0.000 OA
ATOM     36  H   UNL     1      -1.981   8.918  15.824  0.00  0.00    +0.000 HD
ENDBRANCH  30  35
ENDBRANCH  25  32
ENDBRANCH  22  25
ENDBRANCH  21  23
ENDBRANCH   1  21
TORSDOF 16
ENDMDL
MODEL 6
REMARK VINA RESULT:      -7.0      3.055      5.321
REMARK  Name = 
REMARK  23 active torsions:
REMARK  status: ('A' for Active; 'I' for Inactive)
REMARK    1  A    between atoms: C_1  and  O_2
REMARK    2  A    between atoms: O_2  and  C_3
REMARK    3  A    between atoms: C_4  and  C_5
REMARK    4  A    between atoms: C_7  and  O_8
REMARK    5  A    between atoms: C_10  and  C_11
REMARK    6  A    between atoms: C_11  and  C_12
REMARK    7  A    between atoms: C_13  and  C_14
REMARK    8  A    between atoms: C_13  and  C_15
REMARK    9  A    between atoms: C_15  and  C_16
REMARK   10  A    between atoms: C_16  and  C_18
REMARK   11  A    between atoms: C_19  and  C_20
REMARK   12  A    between atoms: C_19  and  C_21
REMARK   13  A    between atoms: C_21  and  C_22
REMARK   14  A    between atoms: C_22  and  C_23
REMARK   15  A    between atoms: C_24  and  C_25
REMARK   16  A    between atoms: C_24  and  C_26
REMARK   17  A    between atoms: C_26  and  C_27
REMARK   18  A    between atoms: C_27  and  C_28
REMARK   19  A    between atoms: C_28  and  O_29
REMARK   20  A    between atoms: C_28  and  C_30
REMARK   21  A    between atoms: C_30  and  C_31
REMARK   22  A    between atoms: C_30  and  C_32
REMARK   23  A    between atoms: C_30  and  O_33
REMARK                            x       y       z     vdW  Elec       q    Type
REMARK                         _______ _______ _______ _____ _____    ______ ____
ROOT
ATOM      1  C   UNL     1       1.345   7.201  20.847  0.00  0.00    +0.000 C 
ATOM      2  O   UNL     1       0.979   7.704  21.914  0.00  0.00    +0.000 OA
ENDROOT
BRANCH   1   3
ATOM      3  C   UNL     1       0.825   5.873  20.392  0.00  0.00    +0.000 C 
ATOM      4  C   UNL     1       1.368   4.653  20.604  0.00  0.00    +0.000 C 
ATOM      5  C   UNL     1       2.568   4.394  21.477  0.00  0.00    +0.000 C 
BRANCH   4   6
ATOM      6  C   UNL     1       0.815   3.377  19.959  0.00  0.00    +0.000 C 
BRANCH   6   7
ATOM      7  C   UNL     1       0.934   3.374  18.435  0.00  0.00    +0.000 C 
BRANCH   7   8
ATOM      8  C   UNL     1       2.164   3.966  17.826  0.00  0.00    +0.000 C 
ATOM      9  C   UNL     1       3.290   3.238  17.673  0.00  0.00    +0.000 C 
ATOM     10  C   UNL     1       3.405   1.791  18.107  0.00  0.00    +0.000 C 
BRANCH   9  11
ATOM     11  C   UNL     1       4.525   3.841  17.039  0.00  0.00    +0.000 C 
BRANCH  11  12
ATOM     12  C   UNL     1       5.671   3.891  18.051  0.00  0.00    +0.000 C 
BRANCH  12  13
ATOM     13  C   UNL     1       6.008   5.307  18.517  0.00  0.00    +0.000 C 
BRANCH  13  14
ATOM     14  C   UNL     1       6.830   6.116  17.471  0.00  0.00    +0.000 C 
ATOM     15  C   UNL     1       5.950   6.879  16.473  0.00  0.00    +0.000 C 
ATOM     16  C   UNL     1       7.811   7.077  18.145  0.00  0.00    +0.000 C 
BRANCH  14  17
ATOM     17  O   UNL     1       7.603   5.178  16.708  0.00  0.00    +0.000 OA
ATOM     18  H   UNL     1       7.647   4.365  17.252  0.00  0.00    +0.000 HD
ENDBRANCH  14  17
ENDBRANCH  13  14
BRANCH  13  19
ATOM     19  O   UNL     1       6.746   5.263  19.749  0.00  0.00    +0.000 OA
ATOM     20  H   UNL     1       6.626   6.113  20.207  0.00  0.00    +0.000 HD
ENDBRANCH  13  19
ENDBRANCH  12  13
ENDBRANCH  11  12
ENDBRANCH   9  11
ENDBRANCH   7   8
ENDBRANCH   6   7
ENDBRANCH   4   6
ENDBRANCH   1   3
BRANCH   1  21
ATOM     21  C   UNL     1       2.387   7.877  19.974  0.00  0.00    +0.000 C 
BRANCH  21  23
ATOM     22  C   UNL     1       0.712   9.366  18.889  0.00  0.00    +0.000 C 
ATOM     23  C   UNL     1       1.786   8.557  18.759  0.00  0.00    +0.000 C 
ATOM     24  C   UNL     1       2.399   8.194  17.435  0.00  0.00    +0.000 C 
BRANCH  22  25
ATOM     25  C   UNL     1      -0.059  10.057  17.783  0.00  0.00    +0.000 C 
BRANCH  25  32
ATOM     26  C   UNL     1      -2.590  10.599  17.617  0.00  0.00    +0.000 A 
ATOM     27  C   UNL     1      -3.723  11.269  18.143  0.00  0.00    +0.000 A 
ATOM     28  C   UNL     1      -5.140  11.224  17.636  0.00  0.00    +0.000 C 
ATOM     29  C   UNL     1      -3.552  12.112  19.262  0.00  0.00    +0.000 A 
ATOM     30  C   UNL     1      -2.321  12.247  19.882  0.00  0.00    +0.000 A 
ATOM     31  C   UNL     1      -1.220  11.572  19.399  0.00  0.00    +0.000 A 
ATOM     32  C   UNL     1      -1.331  10.739  18.269  0.00  0.00    +0.000 A 
BRANCH  26  34
ATOM     33  C   UNL     1      -2.736  10.289  15.225  0.00  0.00    +0.000 C 
ATOM     34  O   UNL     1      -2.558   9.767  16.530  0.00  0.00    +0.000 OA
ENDBRANCH  26  34
BRANCH  30  35
ATOM     35  O   UNL     1      -2.161  13.037  20.980  0.00  0.00    +0.000 OA
ATOM     36  H   UNL     1      -2.307  12.495  21.772  0.00  0.00    +0.000 HD
ENDBRANCH  30  35
ENDBRANCH  25  32
ENDBRANCH  22  25
ENDBRANCH  21  23
ENDBRANCH   1  21
TORSDOF 16
ENDMDL
MODEL 7
REMARK VINA RESULT:      -6.9      3.082      6.094
REMARK  Name = 
REMARK  23 active torsions:
REMARK  status: ('A' for Active; 'I' for Inactive)
REMARK    1  A    between atoms: C_1  and  O_2
REMARK    2  A    between atoms: O_2  and  C_3
REMARK    3  A    between atoms: C_4  and  C_5
REMARK    4  A    between atoms: C_7  and  O_8
REMARK    5  A    between atoms: C_10  and  C_11
REMARK    6  A    between atoms: C_11  and  C_12
REMARK    7  A    between atoms: C_13  and  C_14
REMARK    8  A    between atoms: C_13  and  C_15
REMARK    9  A    between atoms: C_15  and  C_16
REMARK   10  A    between atoms: C_16  and  C_18
REMARK   11  A    between atoms: C_19  and  C_20
REMARK   12  A    between atoms: C_19  and  C_21
REMARK   13  A    between atoms: C_21  and  C_22
REMARK   14  A    between atoms: C_22  and  C_23
REMARK   15  A    between atoms: C_24  and  C_25
REMARK   16  A    between atoms: C_24  and  C_26
REMARK   17  A    between atoms: C_26  and  C_27
REMARK   18  A    between atoms: C_27  and  C_28
REMARK   19  A    between atoms: C_28  and  O_29
REMARK   20  A    between atoms: C_28  and  C_30
REMARK   21  A    between atoms: C_30  and  C_31
REMARK   22  A    between atoms: C_30  and  C_32
REMARK   23  A    between atoms: C_30  and  O_33
REMARK                            x       y       z     vdW  Elec       q    Type
REMARK                         _______ _______ _______ _____ _____    ______ ____
ROOT
ATOM      1  C   UNL     1       1.241   8.837  21.687  0.00  0.00    +0.000 C 
ATOM      2  O   UNL     1       1.937   9.138  22.662  0.00  0.00    +0.000 OA
ENDROOT
BRANCH   1   3
ATOM      3  C   UNL     1       1.857   8.415  20.389  0.00  0.00    +0.000 C 
ATOM      4  C   UNL     1       2.059   7.157  19.936  0.00  0.00    +0.000 C 
ATOM      5  C   UNL     1       1.565   5.913  20.628  0.00  0.00    +0.000 C 
BRANCH   4   6
ATOM      6  C   UNL     1       2.836   6.855  18.650  0.00  0.00    +0.000 C 
BRANCH   6   7
ATOM      7  C   UNL     1       2.427   5.533  17.998  0.00  0.00    +0.000 C 
BRANCH   7   8
ATOM      8  C   UNL     1       3.506   4.660  17.444  0.00  0.00    +0.000 C 
ATOM      9  C   UNL     1       4.471   5.160  16.645  0.00  0.00    +0.000 C 
ATOM     10  C   UNL     1       4.536   6.619  16.239  0.00  0.00    +0.000 C 
BRANCH   9  11
ATOM     11  C   UNL     1       5.570   4.272  16.102  0.00  0.00    +0.000 C 
BRANCH  11  12
ATOM     12  C   UNL     1       6.942   4.845  16.457  0.00  0.00    +0.000 C 
BRANCH  12  13
ATOM     13  C   UNL     1       7.411   4.471  17.863  0.00  0.00    +0.000 C 
BRANCH  13  14
ATOM     14  C   UNL     1       7.409   5.675  18.849  0.00  0.00    +0.000 C 
ATOM     15  C   UNL     1       8.358   5.482  20.038  0.00  0.00    +0.000 C 
ATOM     16  C   UNL     1       7.724   6.991  18.135  0.00  0.00    +0.000 C 
BRANCH  14  17
ATOM     17  O   UNL     1       6.084   5.788  19.392  0.00  0.00    +0.000 OA
ATOM     18  H   UNL     1       6.204   5.973  20.346  0.00  0.00    +0.000 HD
ENDBRANCH  14  17
ENDBRANCH  13  14
BRANCH  13  19
ATOM     19  O   UNL     1       8.736   3.917  17.814  0.00  0.00    +0.000 OA
ATOM     20  H   UNL     1       9.350   4.560  18.210  0.00  0.00    +0.000 HD
ENDBRANCH  13  19
ENDBRANCH  12  13
ENDBRANCH  11  12
ENDBRANCH   9  11
ENDBRANCH   7   8
ENDBRANCH   6   7
ENDBRANCH   4   6
ENDBRANCH   1   3
BRANCH   1  21
ATOM     21  C   UNL     1      -0.273   8.939  21.737  0.00  0.00    +0.000 C 
BRANCH  21  23
ATOM     22  C   UNL     1      -0.775  10.521  19.881  0.00  0.00    +0.000 C 
ATOM     23  C   UNL     1      -0.792  10.261  21.207  0.00  0.00    +0.000 C 
ATOM     24  C   UNL     1      -1.219  11.262  22.245  0.00  0.00    +0.000 C 
BRANCH  22  25
ATOM     25  C   UNL     1      -1.176  11.809  19.190  0.00  0.00    +0.000 C 
BRANCH  25  32
ATOM     26  C   UNL     1      -3.746  11.910  18.854  0.00  0.00    +0.000 A 
ATOM     27  C   UNL     1      -4.863  11.763  17.993  0.00  0.00    +0.000 A 
ATOM     28  C   UNL     1      -6.314  12.003  18.314  0.00  0.00    +0.000 C 
ATOM     29  C   UNL     1      -4.645  11.316  16.672  0.00  0.00    +0.000 A 
ATOM     30  C   UNL     1      -3.367  11.079  16.193  0.00  0.00    +0.000 A 
ATOM     31  C   UNL     1      -2.271  11.254  17.012  0.00  0.00    +0.000 A 
ATOM     32  C   UNL     1      -2.436  11.673  18.346  0.00  0.00    +0.000 A 
BRANCH  26  34
ATOM     33  C   UNL     1      -4.005  13.661  20.500  0.00  0.00    +0.000 C 
ATOM     34  O   UNL     1      -3.765  12.305  20.165  0.00  0.00    +0.000 OA
ENDBRANCH  26  34
BRANCH  30  35
ATOM     35  O   UNL     1      -3.154  10.677  14.909  0.00  0.00    +0.000 OA
ATOM     36  H   UNL     1      -2.517  11.284  14.499  0.00  0.00    +0.000 HD
ENDBRANCH  30  35
ENDBRANCH  25  32
ENDBRANCH  22  25
ENDBRANCH  21  23
ENDBRANCH   1  21
TORSDOF 16
ENDMDL
MODEL 8
REMARK VINA RESULT:      -6.9      3.035      5.499
REMARK  Name = 
REMARK  23 active torsions:
REMARK  status: ('A' for Active; 'I' for Inactive)
REMARK    1  A    between atoms: C_1  and  O_2
REMARK    2  A    between atoms: O_2  and  C_3
REMARK    3  A    between atoms: C_4  and  C_5
REMARK    4  A    between atoms: C_7  and  O_8
REMARK    5  A    between atoms: C_10  and  C_11
REMARK    6  A    between atoms: C_11  and  C_12
REMARK    7  A    between atoms: C_13  and  C_14
REMARK    8  A    between atoms: C_13  and  C_15
REMARK    9  A    between atoms: C_15  and  C_16
REMARK   10  A    between atoms: C_16  and  C_18
REMARK   11  A    between atoms: C_19  and  C_20
REMARK   12  A    between atoms: C_19  and  C_21
REMARK   13  A    between atoms: C_21  and  C_22
REMARK   14  A    between atoms: C_22  and  C_23
REMARK   15  A    between atoms: C_24  and  C_25
REMARK   16  A    between atoms: C_24  and  C_26
REMARK   17  A    between atoms: C_26  and  C_27
REMARK   18  A    between atoms: C_27  and  C_28
REMARK   19  A    between atoms: C_28  and  O_29
REMARK   20  A    between atoms: C_28  and  C_30
REMARK   21  A    between atoms: C_30  and  C_31
REMARK   22  A    between atoms: C_30  and  C_32
REMARK   23  A    between atoms: C_30  and  O_33
REMARK                            x       y       z     vdW  Elec       q    Type
REMARK                         _______ _______ _______ _____ _____    ______ ____
ROOT
ATOM      1  C   UNL     1       2.287   6.590  20.231  0.00  0.00    +0.000 C 
ATOM      2  O   UNL     1       3.354   6.677  19.616  0.00  0.00    +0.000 OA
ENDROOT
BRANCH   1   3
ATOM      3  C   UNL     1       1.372   5.419  20.045  0.00  0.00    +0.000 C 
ATOM      4  C   UNL     1       1.503   4.175  20.557  0.00  0.00    +0.000 C 
ATOM      5  C   UNL     1       2.564   3.767  21.545  0.00  0.00    +0.000 C 
BRANCH   4   6
ATOM      6  C   UNL     1       0.573   3.019  20.172  0.00  0.00    +0.000 C 
BRANCH   6   7
ATOM      7  C   UNL     1       0.878   2.436  18.791  0.00  0.00    +0.000 C 
BRANCH   7   8
ATOM      8  C   UNL     1       1.657   3.276  17.832  0.00  0.00    +0.000 C 
ATOM      9  C   UNL     1       2.943   2.992  17.536  0.00  0.00    +0.000 C 
ATOM     10  C   UNL     1       3.695   1.828  18.148  0.00  0.00    +0.000 C 
BRANCH   9  11
ATOM     11  C   UNL     1       3.719   3.838  16.550  0.00  0.00    +0.000 C 
BRANCH  11  12
ATOM     12  C   UNL     1       5.222   3.694  16.793  0.00  0.00    +0.000 C 
BRANCH  12  13
ATOM     13  C   UNL     1       5.785   4.741  17.753  0.00  0.00    +0.000 C 
BRANCH  13  14
ATOM     14  C   UNL     1       6.420   5.961  17.025  0.00  0.00    +0.000 C 
ATOM     15  C   UNL     1       5.380   6.968  16.516  0.00  0.00    +0.000 C 
ATOM     16  C   UNL     1       7.449   6.672  17.906  0.00  0.00    +0.000 C 
BRANCH  14  17
ATOM     17  O   UNL     1       7.114   5.464  15.871  0.00  0.00    +0.000 OA
ATOM     18  H   UNL     1       7.697   4.750  16.199  0.00  0.00    +0.000 HD
ENDBRANCH  14  17
ENDBRANCH  13  14
BRANCH  13  19
ATOM     19  O   UNL     1       6.775   4.149  18.610  0.00  0.00    +0.000 OA
ATOM     20  H   UNL     1       6.505   4.293  19.534  0.00  0.00    +0.000 HD
ENDBRANCH  13  19
ENDBRANCH  12  13
ENDBRANCH  11  12
ENDBRANCH   9  11
ENDBRANCH   7   8
ENDBRANCH   6   7
ENDBRANCH   4   6
ENDBRANCH   1   3
BRANCH   1  21
ATOM     21  C   UNL     1       1.820   7.696  21.160  0.00  0.00    +0.000 C 
BRANCH  21  23
ATOM     22  C   UNL     1       1.046   9.091  19.247  0.00  0.00    +0.000 C 
ATOM     23  C   UNL     1       0.831   8.639  20.502  0.00  0.00    +0.000 C 
ATOM     24  C   UNL     1      -0.316   9.091  21.364  0.00  0.00    +0.000 C 
BRANCH  22  25
ATOM     25  C   UNL     1       0.211  10.091  18.473  0.00  0.00    +0.000 C 
BRANCH  25  32
ATOM     26  C   UNL     1      -0.518  12.384  19.442  0.00  0.00    +0.000 A 
ATOM     27  C   UNL     1      -0.180  13.716  19.787  0.00  0.00    +0.000 A 
ATOM     28  C   UNL     1      -1.060  14.755  20.430  0.00  0.00    +0.000 C 
ATOM     29  C   UNL     1       1.119  14.183  19.493  0.00  0.00    +0.000 A 
ATOM     30  C   UNL     1       2.074  13.352  18.931  0.00  0.00    +0.000 A 
ATOM     31  C   UNL     1       1.766  12.044  18.623  0.00  0.00    +0.000 A 
ATOM     32  C   UNL     1       0.476  11.536  18.873  0.00  0.00    +0.000 A 
BRANCH  26  34
ATOM     33  C   UNL     1      -2.748  11.892  18.652  0.00  0.00    +0.000 C 
ATOM     34  O   UNL     1      -1.727  11.768  19.626  0.00  0.00    +0.000 OA
ENDBRANCH  26  34
BRANCH  30  35
ATOM     35  O   UNL     1       3.337  13.794  18.674  0.00  0.00    +0.000 OA
ATOM     36  H   UNL     1       3.330  14.764  18.681  0.00  0.00    +0.000 HD
ENDBRANCH  30  35
ENDBRANCH  25  32
ENDBRANCH  22  25
ENDBRANCH  21  23
ENDBRANCH   1  21
TORSDOF 16
ENDMDL
MODEL 9
REMARK VINA RESULT:      -6.9      4.458      8.320
REMARK  Name = 
REMARK  23 active torsions:
REMARK  status: ('A' for Active; 'I' for Inactive)
REMARK    1  A    between atoms: C_1  and  O_2
REMARK    2  A    between atoms: O_2  and  C_3
REMARK    3  A    between atoms: C_4  and  C_5
REMARK    4  A    between atoms: C_7  and  O_8
REMARK    5  A    between atoms: C_10  and  C_11
REMARK    6  A    between atoms: C_11  and  C_12
REMARK    7  A    between atoms: C_13  and  C_14
REMARK    8  A    between atoms: C_13  and  C_15
REMARK    9  A    between atoms: C_15  and  C_16
REMARK   10  A    between atoms: C_16  and  C_18
REMARK   11  A    between atoms: C_19  and  C_20
REMARK   12  A    between atoms: C_19  and  C_21
REMARK   13  A    between atoms: C_21  and  C_22
REMARK   14  A    between atoms: C_22  and  C_23
REMARK   15  A    between atoms: C_24  and  C_25
REMARK   16  A    between atoms: C_24  and  C_26
REMARK   17  A    between atoms: C_26  and  C_27
REMARK   18  A    between atoms: C_27  and  C_28
REMARK   19  A    between atoms: C_28  and  O_29
REMARK   20  A    between atoms: C_28  and  C_30
REMARK   21  A    between atoms: C_30  and  C_31
REMARK   22  A    between atoms: C_30  and  C_32
REMARK   23  A    between atoms: C_30  and  O_33
REMARK                            x       y       z     vdW  Elec       q    Type
REMARK                         _______ _______ _______ _____ _____    ______ ____
ROOT
ATOM      1  C   UNL     1      -2.648  10.277  17.048  0.00  0.00    +0.000 C 
ATOM      2  O   UNL     1      -2.429   9.674  15.993  0.00  0.00    +0.000 OA
ENDROOT
BRANCH   1   3
ATOM      3  C   UNL     1      -2.102   9.787  18.354  0.00  0.00    +0.000 C 
ATOM      4  C   UNL     1      -1.058  10.283  19.055  0.00  0.00    +0.000 C 
ATOM      5  C   UNL     1      -0.311  11.541  18.696  0.00  0.00    +0.000 C 
BRANCH   4   6
ATOM      6  C   UNL     1      -0.504   9.599  20.311  0.00  0.00    +0.000 C 
BRANCH   6   7
ATOM      7  C   UNL     1       1.023   9.512  20.323  0.00  0.00    +0.000 C 
BRANCH   7   8
ATOM      8  C   UNL     1       1.654   8.202  19.979  0.00  0.00    +0.000 C 
ATOM      9  C   UNL     1       2.205   7.987  18.766  0.00  0.00    +0.000 C 
ATOM     10  C   UNL     1       2.221   9.031  17.668  0.00  0.00    +0.000 C 
BRANCH   9  11
ATOM     11  C   UNL     1       2.858   6.662  18.432  0.00  0.00    +0.000 C 
BRANCH  11  12
ATOM     12  C   UNL     1       1.796   5.620  18.081  0.00  0.00    +0.000 C 
BRANCH  12  13
ATOM     13  C   UNL     1       2.332   4.189  18.064  0.00  0.00    +0.000 C 
BRANCH  13  14
ATOM     14  C   UNL     1       2.113   3.437  19.409  0.00  0.00    +0.000 C 
ATOM     15  C   UNL     1       1.012   4.060  20.276  0.00  0.00    +0.000 C 
ATOM     16  C   UNL     1       1.825   1.951  19.185  0.00  0.00    +0.000 C 
BRANCH  14  17
ATOM     17  O   UNL     1       3.333   3.528  20.161  0.00  0.00    +0.000 OA
ATOM     18  H   UNL     1       4.002   3.882  19.539  0.00  0.00    +0.000 HD
ENDBRANCH  14  17
ENDBRANCH  13  14
BRANCH  13  19
ATOM     19  O   UNL     1       3.736   4.187  17.758  0.00  0.00    +0.000 OA
ATOM     20  H   UNL     1       4.223   3.931  18.561  0.00  0.00    +0.000 HD
ENDBRANCH  13  19
ENDBRANCH  12  13
ENDBRANCH  11  12
ENDBRANCH   9  11
ENDBRANCH   7   8
ENDBRANCH   6   7
ENDBRANCH   4   6
ENDBRANCH   1   3
BRANCH   1  21
ATOM     21  C   UNL     1      -3.532  11.510  17.083  0.00  0.00    +0.000 C 
BRANCH  21  23
ATOM     22  C   UNL     1      -4.010  12.387  19.365  0.00  0.00    +0.000 C 
ATOM     23  C   UNL     1      -4.380  11.591  18.338  0.00  0.00    +0.000 C 
ATOM     24  C   UNL     1      -5.570  10.672  18.385  0.00  0.00    +0.000 C 
BRANCH  22  25
ATOM     25  C   UNL     1      -4.688  12.528  20.712  0.00  0.00    +0.000 C 
BRANCH  25  32
ATOM     26  C   UNL     1      -4.063  13.938  22.798  0.00  0.00    +0.000 A 
ATOM     27  C   UNL     1      -3.116  14.262  23.801  0.00  0.00    +0.000 A 
ATOM     28  C   UNL     1      -3.273  15.240  24.936  0.00  0.00    +0.000 C 
ATOM     29  C   UNL     1      -1.850  13.641  23.764  0.00  0.00    +0.000 A 
ATOM     30  C   UNL     1      -1.542  12.688  22.808  0.00  0.00    +0.000 A 
ATOM     31  C   UNL     1      -2.468  12.339  21.848  0.00  0.00    +0.000 A 
ATOM     32  C   UNL     1      -3.738  12.948  21.825  0.00  0.00    +0.000 A 
BRANCH  26  34
ATOM     33  C   UNL     1      -6.366  14.036  23.523  0.00  0.00    +0.000 C 
ATOM     34  O   UNL     1      -5.324  14.453  22.658  0.00  0.00    +0.000 OA
ENDBRANCH  26  34
BRANCH  30  35
ATOM     35  O   UNL     1      -0.330  12.066  22.788  0.00  0.00    +0.000 OA
ATOM     36  H   UNL     1      -0.298  11.433  23.524  0.00  0.00    +0.000 HD
ENDBRANCH  30  35
ENDBRANCH  25  32
ENDBRANCH  22  25
ENDBRANCH  21  23
ENDBRANCH   1  21
TORSDOF 16
ENDMDL
