MODEL 1
REMARK VINA RESULT:      -8.4      0.000      0.000
REMARK  Name = 
REMARK  6 active torsions:
REMARK  status: ('A' for Active; 'I' for Inactive)
REMARK    1  A    between atoms: C_2  and  C_21
REMARK    2  A    between atoms: N_3  and  C_4
REMARK    3  A    between atoms: C_4  and  C_5
REMARK    4  A    between atoms: C_5  and  N_6
REMARK    5  A    between atoms: C_11  and  C_12
REMARK    6  A    between atoms: C_26  and  C_28
REMARK                            x       y       z     vdW  Elec       q    Type
REMARK                         _______ _______ _______ _____ _____    ______ ____
ROOT
ATOM      1  C   UNL     1       1.365   7.431  20.833  0.00  0.00    +0.000 C 
ENDROOT
BRANCH   1   4
ATOM      2  O   UNL     1       1.866   7.393  18.025  0.00  0.00    +0.000 OA
ATOM      3  C   UNL     1       2.660   6.794  18.749  0.00  0.00    +0.000 C 
ATOM      4  N   UNL     1       2.518   6.812  20.135  0.00  0.00    +0.000 N 
ATOM      5  H   UNL     1       3.114   6.206  20.689  0.00  0.00    +0.000 HD
BRANCH   3   6
ATOM      6  C   UNL     1       3.951   6.076  18.190  0.00  0.00    +0.000 C 
ATOM      7  C   UNL     1       4.424   6.994  17.041  0.00  0.00    +0.000 C 
ATOM      8  C   UNL     1       5.506   6.211  16.316  0.00  0.00    +0.000 C 
ATOM      9  C   UNL     1       5.134   4.761  16.543  0.00  0.00    +0.000 C 
ATOM     10  N   UNL     1       4.024   4.760  17.488  0.00  0.00    +0.000 N 
ATOM     11  C   UNL     1       3.671   3.492  17.961  0.00  0.00    +0.000 C 
ATOM     12  O   UNL     1       4.238   2.484  17.524  0.00  0.00    +0.000 OA
BRANCH  11  13
ATOM     13  C   UNL     1       2.633   3.426  18.956  0.00  0.00    +0.000 A 
ATOM     14  C   UNL     1       1.273   3.571  18.797  0.00  0.00    +0.000 A 
ATOM     15  C   UNL     1       0.608   3.691  20.046  0.00  0.00    +0.000 A 
ATOM     16  C   UNL     1       1.447   3.407  21.098  0.00  0.00    +0.000 A 
ATOM     17  S   UNL     1       3.031   3.034  20.571  0.00  0.00    +0.000 S 
ENDBRANCH  11  13
ENDBRANCH   3   6
ENDBRANCH   1   4
BRANCH   1  18
ATOM     18  C   UNL     1       1.751   8.649  21.705  0.00  0.00    +0.000 C 
BRANCH  18  19
ATOM     19  N   UNL     1       0.927   9.866  21.633  0.00  0.00    +0.000 N 
ATOM     20  C   UNL     1       0.610  10.484  20.452  0.00  0.00    +0.000 C 
ATOM     21  O   UNL     1       0.997  10.181  19.333  0.00  0.00    +0.000 OA
ATOM     22  S   UNL     1      -0.574  11.769  20.727  0.00  0.00    +0.000 S 
ATOM     23  C   UNL     1      -0.874  11.246  22.331  0.00  0.00    +0.000 C 
ATOM     24  C   UNL     1      -1.780  11.682  23.217  0.00  0.00    +0.000 C 
ATOM     25  C   UNL     1       0.049  10.125  22.667  0.00  0.00    +0.000 C 
ATOM     26  O   UNL     1      -0.053   9.471  23.704  0.00  0.00    +0.000 OA
BRANCH  24  27
ATOM     27  C   UNL     1      -2.727  12.794  23.073  0.00  0.00    +0.000 A 
ATOM     28  C   UNL     1      -3.972  12.622  22.455  0.00  0.00    +0.000 A 
ATOM     29  C   UNL     1      -4.895  13.676  22.424  0.00  0.00    +0.000 A 
ATOM     30  C   UNL     1      -4.582  14.906  23.006  0.00  0.00    +0.000 A 
ATOM     31  C   UNL     1      -3.344  15.086  23.619  0.00  0.00    +0.000 A 
ATOM     32  C   UNL     1      -2.431  14.035  23.648  0.00  0.00    +0.000 A 
ATOM     33  F   UNL     1      -1.256  14.223  24.270  0.00  0.00    +0.000 F 
ENDBRANCH  24  27
ENDBRANCH  18  19
ENDBRANCH   1  18
TORSDOF 6
ENDMDL
MODEL 2
REMARK VINA RESULT:      -8.3      1.299      1.842
REMARK  Name = 
REMARK  6 active torsions:
REMARK  status: ('A' for Active; 'I' for Inactive)
REMARK    1  A    between atoms: C_2  and  C_21
REMARK    2  A    between atoms: N_3  and  C_4
REMARK    3  A    between atoms: C_4  and  C_5
REMARK    4  A    between atoms: C_5  and  N_6
REMARK    5  A    between atoms: C_11  and  C_12
REMARK    6  A    between atoms: C_26  and  C_28
REMARK                            x       y       z     vdW  Elec       q    Type
REMARK                         _______ _______ _______ _____ _____    ______ ____
ROOT
ATOM      1  C   UNL     1       1.367   7.239  20.916  0.00  0.00    +0.000 C 
ENDROOT
BRANCH   1   4
ATOM      2  O   UNL     1       1.929   7.440  18.127  0.00  0.00    +0.000 OA
ATOM      3  C   UNL     1       2.685   6.748  18.807  0.00  0.00    +0.000 C 
ATOM      4  N   UNL     1       2.513   6.643  20.187  0.00  0.00    +0.000 N 
ATOM      5  H   UNL     1       3.074   5.967  20.693  0.00  0.00    +0.000 HD
BRANCH   3   6
ATOM      6  C   UNL     1       3.961   6.036  18.209  0.00  0.00    +0.000 C 
ATOM      7  C   UNL     1       4.424   6.981  17.078  0.00  0.00    +0.000 C 
ATOM      8  C   UNL     1       5.488   6.210  16.315  0.00  0.00    +0.000 C 
ATOM      9  C   UNL     1       5.109   4.757  16.509  0.00  0.00    +0.000 C 
ATOM     10  N   UNL     1       4.015   4.739  17.471  0.00  0.00    +0.000 N 
ATOM     11  C   UNL     1       3.660   3.461  17.915  0.00  0.00    +0.000 C 
ATOM     12  O   UNL     1       4.212   2.461  17.443  0.00  0.00    +0.000 OA
BRANCH  11  13
ATOM     13  C   UNL     1       2.636   3.376  18.925  0.00  0.00    +0.000 A 
ATOM     14  C   UNL     1       1.273   3.506  18.786  0.00  0.00    +0.000 A 
ATOM     15  C   UNL     1       0.624   3.609  20.045  0.00  0.00    +0.000 A 
ATOM     16  C   UNL     1       1.481   3.327  21.083  0.00  0.00    +0.000 A 
ATOM     17  S   UNL     1       3.062   2.976  20.531  0.00  0.00    +0.000 S 
ENDBRANCH  11  13
ENDBRANCH   3   6
ENDBRANCH   1   4
BRANCH   1  18
ATOM     18  C   UNL     1       1.584   8.720  21.304  0.00  0.00    +0.000 C 
BRANCH  18  19
ATOM     19  N   UNL     1       0.408   9.571  21.549  0.00  0.00    +0.000 N 
ATOM     20  C   UNL     1       0.017   9.961  22.802  0.00  0.00    +0.000 C 
ATOM     21  O   UNL     1       0.512   9.627  23.868  0.00  0.00    +0.000 OA
ATOM     22  S   UNL     1      -1.284  11.156  22.698  0.00  0.00    +0.000 S 
ATOM     23  C   UNL     1      -1.056  11.362  21.013  0.00  0.00    +0.000 C 
ATOM     24  C   UNL     1      -1.635  12.230  20.171  0.00  0.00    +0.000 C 
ATOM     25  C   UNL     1      -0.023  10.401  20.531  0.00  0.00    +0.000 C 
ATOM     26  O   UNL     1       0.434  10.435  19.390  0.00  0.00    +0.000 OA
BRANCH  24  27
ATOM     27  C   UNL     1      -2.692  13.206  20.460  0.00  0.00    +0.000 A 
ATOM     28  C   UNL     1      -4.046  12.891  20.292  0.00  0.00    +0.000 A 
ATOM     29  C   UNL     1      -5.036  13.807  20.673  0.00  0.00    +0.000 A 
ATOM     30  C   UNL     1      -4.681  15.042  21.221  0.00  0.00    +0.000 A 
ATOM     31  C   UNL     1      -3.336  15.364  21.387  0.00  0.00    +0.000 A 
ATOM     32  C   UNL     1      -2.357  14.449  21.007  0.00  0.00    +0.000 A 
ATOM     33  F   UNL     1      -1.068  14.770  21.205  0.00  0.00    +0.000 F 
ENDBRANCH  24  27
ENDBRANCH  18  19
ENDBRANCH   1  18
TORSDOF 6
ENDMDL
MODEL 3
REMARK VINA RESULT:      -8.1      2.051      3.771
REMARK  Name = 
REMARK  6 active torsions:
REMARK  status: ('A' for Active; 'I' for Inactive)
REMARK    1  A    between atoms: C_2  and  C_21
REMARK    2  A    between atoms: N_3  and  C_4
REMARK    3  A    between atoms: C_4  and  C_5
REMARK    4  A    between atoms: C_5  and  N_6
REMARK    5  A    between atoms: C_11  and  C_12
REMARK    6  A    between atoms: C_26  and  C_28
REMARK                            x       y       z     vdW  Elec       q    Type
REMARK                         _______ _______ _______ _____ _____    ______ ____
ROOT
ATOM      1  C   UNL     1       2.059   7.229  17.900  0.00  0.00    +0.000 C 
ENDROOT
BRANCH   1   4
ATOM      2  O   UNL     1       1.117   4.631  17.190  0.00  0.00    +0.000 OA
ATOM      3  C   UNL     1       1.657   4.756  18.289  0.00  0.00    +0.000 C 
ATOM      4  N   UNL     1       2.195   5.979  18.687  0.00  0.00    +0.000 N 
ATOM      5  H   UNL     1       2.517   6.076  19.644  0.00  0.00    +0.000 HD
BRANCH   3   6
ATOM      6  C   UNL     1       1.895   3.539  19.267  0.00  0.00    +0.000 C 
ATOM      7  C   UNL     1       0.888   3.777  20.414  0.00  0.00    +0.000 C 
ATOM      8  C   UNL     1       1.262   2.776  21.495  0.00  0.00    +0.000 C 
ATOM      9  C   UNL     1       2.748   2.555  21.304  0.00  0.00    +0.000 C 
ATOM     10  N   UNL     1       3.116   3.253  20.078  0.00  0.00    +0.000 N 
ATOM     11  C   UNL     1       4.420   3.000  19.641  0.00  0.00    +0.000 C 
ATOM     12  O   UNL     1       5.178   2.295  20.317  0.00  0.00    +0.000 OA
BRANCH  11  13
ATOM     13  C   UNL     1       4.825   3.597  18.395  0.00  0.00    +0.000 A 
ATOM     14  C   UNL     1       4.515   3.210  17.111  0.00  0.00    +0.000 A 
ATOM     15  C   UNL     1       5.304   3.896  16.150  0.00  0.00    +0.000 A 
ATOM     16  C   UNL     1       6.013   4.928  16.718  0.00  0.00    +0.000 A 
ATOM     17  S   UNL     1       5.745   5.037  18.404  0.00  0.00    +0.000 S 
ENDBRANCH  11  13
ENDBRANCH   3   6
ENDBRANCH   1   4
BRANCH   1  18
ATOM     18  C   UNL     1       2.333   8.510  18.722  0.00  0.00    +0.000 C 
BRANCH  18  19
ATOM     19  N   UNL     1       1.273   9.034  19.598  0.00  0.00    +0.000 N 
ATOM     20  C   UNL     1       0.994   8.505  20.830  0.00  0.00    +0.000 C 
ATOM     21  O   UNL     1       1.505   7.521  21.345  0.00  0.00    +0.000 OA
ATOM     22  S   UNL     1      -0.171   9.522  21.689  0.00  0.00    +0.000 S 
ATOM     23  C   UNL     1      -0.010  10.790  20.549  0.00  0.00    +0.000 C 
ATOM     24  C   UNL     1      -0.534  12.025  20.563  0.00  0.00    +0.000 C 
ATOM     25  C   UNL     1       0.883  10.350  19.440  0.00  0.00    +0.000 C 
ATOM     26  O   UNL     1       1.279  11.116  18.564  0.00  0.00    +0.000 OA
BRANCH  24  27
ATOM     27  C   UNL     1      -1.460  12.606  21.542  0.00  0.00    +0.000 A 
ATOM     28  C   UNL     1      -1.005  13.150  22.749  0.00  0.00    +0.000 A 
ATOM     29  C   UNL     1      -1.902  13.788  23.617  0.00  0.00    +0.000 A 
ATOM     30  C   UNL     1      -3.256  13.886  23.286  0.00  0.00    +0.000 A 
ATOM     31  C   UNL     1      -3.716  13.343  22.089  0.00  0.00    +0.000 A 
ATOM     32  C   UNL     1      -2.820  12.711  21.230  0.00  0.00    +0.000 A 
ATOM     33  F   UNL     1      -3.283  12.222  20.068  0.00  0.00    +0.000 F 
ENDBRANCH  24  27
ENDBRANCH  18  19
ENDBRANCH   1  18
TORSDOF 6
ENDMDL
MODEL 4
REMARK VINA RESULT:      -8.1      1.584      2.225
REMARK  Name = 
REMARK  6 active torsions:
REMARK  status: ('A' for Active; 'I' for Inactive)
REMARK    1  A    between atoms: C_2  and  C_21
REMARK    2  A    between atoms: N_3  and  C_4
REMARK    3  A    between atoms: C_4  and  C_5
REMARK    4  A    between atoms: C_5  and  N_6
REMARK    5  A    between atoms: C_11  and  C_12
REMARK    6  A    between atoms: C_26  and  C_28
REMARK                            x       y       z     vdW  Elec       q    Type
REMARK                         _______ _______ _______ _____ _____    ______ ____
ROOT
ATOM      1  C   UNL     1       1.410   7.402  21.033  0.00  0.00    +0.000 C 
ENDROOT
BRANCH   1   4
ATOM      2  O   UNL     1       1.872   7.557  18.222  0.00  0.00    +0.000 OA
ATOM      3  C   UNL     1       2.655   6.879  18.887  0.00  0.00    +0.000 C 
ATOM      4  N   UNL     1       2.532   6.798  20.273  0.00  0.00    +0.000 N 
ATOM      5  H   UNL     1       3.113   6.133  20.771  0.00  0.00    +0.000 HD
BRANCH   3   6
ATOM      6  C   UNL     1       3.912   6.162  18.257  0.00  0.00    +0.000 C 
ATOM      7  C   UNL     1       4.358   7.111  17.122  0.00  0.00    +0.000 C 
ATOM      8  C   UNL     1       5.399   6.337  16.331  0.00  0.00    +0.000 C 
ATOM      9  C   UNL     1       5.012   4.885  16.523  0.00  0.00    +0.000 C 
ATOM     10  N   UNL     1       3.938   4.869  17.508  0.00  0.00    +0.000 N 
ATOM     11  C   UNL     1       3.582   3.591  17.951  0.00  0.00    +0.000 C 
ATOM     12  O   UNL     1       4.116   2.590  17.460  0.00  0.00    +0.000 OA
BRANCH  11  13
ATOM     13  C   UNL     1       2.580   3.507  18.982  0.00  0.00    +0.000 A 
ATOM     14  C   UNL     1       1.214   3.637  18.872  0.00  0.00    +0.000 A 
ATOM     15  C   UNL     1       0.592   3.741  20.144  0.00  0.00    +0.000 A 
ATOM     16  C   UNL     1       1.470   3.460  21.164  0.00  0.00    +0.000 A 
ATOM     17  S   UNL     1       3.039   3.110  20.579  0.00  0.00    +0.000 S 
ENDBRANCH  11  13
ENDBRANCH   3   6
ENDBRANCH   1   4
BRANCH   1  18
ATOM     18  C   UNL     1       1.558   8.927  21.246  0.00  0.00    +0.000 C 
BRANCH  18  19
ATOM     19  N   UNL     1       0.357   9.725  21.542  0.00  0.00    +0.000 N 
ATOM     20  C   UNL     1      -0.036  10.039  22.816  0.00  0.00    +0.000 C 
ATOM     21  O   UNL     1       0.481   9.669  23.860  0.00  0.00    +0.000 OA
ATOM     22  S   UNL     1      -1.377  11.192  22.782  0.00  0.00    +0.000 S 
ATOM     23  C   UNL     1      -1.172  11.489  21.107  0.00  0.00    +0.000 C 
ATOM     24  C   UNL     1      -1.788  12.377  20.314  0.00  0.00    +0.000 C 
ATOM     25  C   UNL     1      -0.112  10.588  20.570  0.00  0.00    +0.000 C 
ATOM     26  O   UNL     1       0.332  10.694  19.429  0.00  0.00    +0.000 OA
BRANCH  24  27
ATOM     27  C   UNL     1      -2.875  13.300  20.660  0.00  0.00    +0.000 A 
ATOM     28  C   UNL     1      -2.625  14.519  21.303  0.00  0.00    +0.000 A 
ATOM     29  C   UNL     1      -3.671  15.424  21.528  0.00  0.00    +0.000 A 
ATOM     30  C   UNL     1      -4.970  15.119  21.115  0.00  0.00    +0.000 A 
ATOM     31  C   UNL     1      -5.226  13.907  20.478  0.00  0.00    +0.000 A 
ATOM     32  C   UNL     1      -4.183  13.012  20.256  0.00  0.00    +0.000 A 
ATOM     33  F   UNL     1      -4.450  11.863  19.614  0.00  0.00    +0.000 F 
ENDBRANCH  24  27
ENDBRANCH  18  19
ENDBRANCH   1  18
TORSDOF 6
ENDMDL
MODEL 5
REMARK VINA RESULT:      -8.1      1.607      3.121
REMARK  Name = 
REMARK  6 active torsions:
REMARK  status: ('A' for Active; 'I' for Inactive)
REMARK    1  A    between atoms: C_2  and  C_21
REMARK    2  A    between atoms: N_3  and  C_4
REMARK    3  A    between atoms: C_4  and  C_5
REMARK    4  A    between atoms: C_5  and  N_6
REMARK    5  A    between atoms: C_11  and  C_12
REMARK    6  A    between atoms: C_26  and  C_28
REMARK                            x       y       z     vdW  Elec       q    Type
REMARK                         _______ _______ _______ _____ _____    ______ ____
ROOT
ATOM      1  C   UNL     1       1.844   8.090  20.168  0.00  0.00    +0.000 C 
ENDROOT
BRANCH   1   4
ATOM      2  O   UNL     1       2.283   6.154  18.118  0.00  0.00    +0.000 OA
ATOM      3  C   UNL     1       2.088   5.736  19.259  0.00  0.00    +0.000 C 
ATOM      4  N   UNL     1       1.921   6.617  20.326  0.00  0.00    +0.000 N 
ATOM      5  H   UNL     1       1.638   6.240  21.223  0.00  0.00    +0.000 HD
BRANCH   3   6
ATOM      6  C   UNL     1       2.134   4.201  19.625  0.00  0.00    +0.000 C 
ATOM      7  C   UNL     1       1.166   4.070  20.822  0.00  0.00    +0.000 C 
ATOM      8  C   UNL     1       1.378   2.666  21.363  0.00  0.00    +0.000 C 
ATOM      9  C   UNL     1       2.815   2.342  21.014  0.00  0.00    +0.000 C 
ATOM     10  N   UNL     1       3.292   3.433  20.172  0.00  0.00    +0.000 N 
ATOM     11  C   UNL     1       4.548   3.209  19.597  0.00  0.00    +0.000 C 
ATOM     12  O   UNL     1       5.186   2.187  19.872  0.00  0.00    +0.000 OA
BRANCH  11  13
ATOM     13  C   UNL     1       5.046   4.213  18.692  0.00  0.00    +0.000 A 
ATOM     14  C   UNL     1       5.739   5.367  18.979  0.00  0.00    +0.000 A 
ATOM     15  C   UNL     1       5.834   6.218  17.847  0.00  0.00    +0.000 A 
ATOM     16  C   UNL     1       5.413   5.587  16.700  0.00  0.00    +0.000 A 
ATOM     17  S   UNL     1       4.879   3.991  17.006  0.00  0.00    +0.000 S 
ENDBRANCH  11  13
ENDBRANCH   3   6
ENDBRANCH   1   4
BRANCH   1  18
ATOM     18  C   UNL     1       1.458   8.833  21.469  0.00  0.00    +0.000 C 
BRANCH  18  19
ATOM     19  N   UNL     1       0.554   9.991  21.386  0.00  0.00    +0.000 N 
ATOM     20  C   UNL     1      -0.053  10.382  20.223  0.00  0.00    +0.000 C 
ATOM     21  O   UNL     1       0.103   9.902  19.110  0.00  0.00    +0.000 OA
ATOM     22  S   UNL     1      -1.239  11.656  20.544  0.00  0.00    +0.000 S 
ATOM     23  C   UNL     1      -1.148  11.411  22.237  0.00  0.00    +0.000 C 
ATOM     24  C   UNL     1      -1.870  11.965  23.221  0.00  0.00    +0.000 C 
ATOM     25  C   UNL     1      -0.097  10.397  22.535  0.00  0.00    +0.000 C 
ATOM     26  O   UNL     1       0.075   9.932  23.660  0.00  0.00    +0.000 OA
BRANCH  24  27
ATOM     27  C   UNL     1      -2.902  13.003  23.115  0.00  0.00    +0.000 A 
ATOM     28  C   UNL     1      -2.777  14.073  22.220  0.00  0.00    +0.000 A 
ATOM     29  C   UNL     1      -3.824  14.992  22.069  0.00  0.00    +0.000 A 
ATOM     30  C   UNL     1      -5.001  14.849  22.809  0.00  0.00    +0.000 A 
ATOM     31  C   UNL     1      -5.131  13.789  23.703  0.00  0.00    +0.000 A 
ATOM     32  C   UNL     1      -4.087  12.879  23.849  0.00  0.00    +0.000 A 
ATOM     33  F   UNL     1      -4.248  11.850  24.695  0.00  0.00    +0.000 F 
ENDBRANCH  24  27
ENDBRANCH  18  19
ENDBRANCH   1  18
TORSDOF 6
ENDMDL
MODEL 6
REMARK VINA RESULT:      -8.1      1.964      3.673
REMARK  Name = 
REMARK  6 active torsions:
REMARK  status: ('A' for Active; 'I' for Inactive)
REMARK    1  A    between atoms: C_2  and  C_21
REMARK    2  A    between atoms: N_3  and  C_4
REMARK    3  A    between atoms: C_4  and  C_5
REMARK    4  A    between atoms: C_5  and  N_6
REMARK    5  A    between atoms: C_11  and  C_12
REMARK    6  A    between atoms: C_26  and  C_28
REMARK                            x       y       z     vdW  Elec       q    Type
REMARK                         _______ _______ _______ _____ _____    ______ ____
ROOT
ATOM      1  C   UNL     1       2.080   7.194  17.730  0.00  0.00    +0.000 C 
ENDROOT
BRANCH   1   4
ATOM      2  O   UNL     1       1.022   4.612  17.132  0.00  0.00    +0.000 OA
ATOM      3  C   UNL     1       1.632   4.742  18.193  0.00  0.00    +0.000 C 
ATOM      4  N   UNL     1       2.227   5.956  18.533  0.00  0.00    +0.000 N 
ATOM      5  H   UNL     1       2.609   6.061  19.467  0.00  0.00    +0.000 HD
BRANCH   3   6
ATOM      6  C   UNL     1       1.894   3.537  19.180  0.00  0.00    +0.000 C 
ATOM      7  C   UNL     1       0.861   3.745  20.309  0.00  0.00    +0.000 C 
ATOM      8  C   UNL     1       1.249   2.761  21.400  0.00  0.00    +0.000 C 
ATOM      9  C   UNL     1       2.745   2.589  21.235  0.00  0.00    +0.000 C 
ATOM     10  N   UNL     1       3.110   3.295  20.013  0.00  0.00    +0.000 N 
ATOM     11  C   UNL     1       4.429   3.085  19.599  0.00  0.00    +0.000 C 
ATOM     12  O   UNL     1       5.199   2.407  20.290  0.00  0.00    +0.000 OA
BRANCH  11  13
ATOM     13  C   UNL     1       4.834   3.690  18.357  0.00  0.00    +0.000 A 
ATOM     14  C   UNL     1       4.507   3.326  17.070  0.00  0.00    +0.000 A 
ATOM     15  C   UNL     1       5.301   4.010  16.112  0.00  0.00    +0.000 A 
ATOM     16  C   UNL     1       6.033   5.022  16.688  0.00  0.00    +0.000 A 
ATOM     17  S   UNL     1       5.781   5.113  18.377  0.00  0.00    +0.000 S 
ENDBRANCH  11  13
ENDBRANCH   3   6
ENDBRANCH   1   4
BRANCH   1  18
ATOM     18  C   UNL     1       2.407   8.485  18.518  0.00  0.00    +0.000 C 
BRANCH  18  19
ATOM     19  N   UNL     1       1.398   9.031  19.440  0.00  0.00    +0.000 N 
ATOM     20  C   UNL     1       1.146   8.493  20.674  0.00  0.00    +0.000 C 
ATOM     21  O   UNL     1       1.640   7.484  21.155  0.00  0.00    +0.000 OA
ATOM     22  S   UNL     1       0.049   9.536  21.589  0.00  0.00    +0.000 S 
ATOM     23  C   UNL     1       0.212  10.815  20.462  0.00  0.00    +0.000 C 
ATOM     24  C   UNL     1      -0.267  12.067  20.513  0.00  0.00    +0.000 C 
ATOM     25  C   UNL     1       1.049  10.362  19.315  0.00  0.00    +0.000 C 
ATOM     26  O   UNL     1       1.440  11.127  18.436  0.00  0.00    +0.000 OA
BRANCH  24  27
ATOM     27  C   UNL     1      -1.137  12.664  21.533  0.00  0.00    +0.000 A 
ATOM     28  C   UNL     1      -2.464  12.251  21.697  0.00  0.00    +0.000 A 
ATOM     29  C   UNL     1      -3.238  12.767  22.745  0.00  0.00    +0.000 A 
ATOM     30  C   UNL     1      -2.694  13.699  23.633  0.00  0.00    +0.000 A 
ATOM     31  C   UNL     1      -1.375  14.117  23.473  0.00  0.00    +0.000 A 
ATOM     32  C   UNL     1      -0.610  13.600  22.429  0.00  0.00    +0.000 A 
ATOM     33  F   UNL     1       0.667  13.997  22.314  0.00  0.00    +0.000 F 
ENDBRANCH  24  27
ENDBRANCH  18  19
ENDBRANCH   1  18
TORSDOF 6
ENDMDL
MODEL 7
REMARK VINA RESULT:      -8.1      1.380      2.969
REMARK  Name = 
REMARK  6 active torsions:
REMARK  status: ('A' for Active; 'I' for Inactive)
REMARK    1  A    between atoms: C_2  and  C_21
REMARK    2  A    between atoms: N_3  and  C_4
REMARK    3  A    between atoms: C_4  and  C_5
REMARK    4  A    between atoms: C_5  and  N_6
REMARK    5  A    between atoms: C_11  and  C_12
REMARK    6  A    between atoms: C_26  and  C_28
REMARK                            x       y       z     vdW  Elec       q    Type
REMARK                         _______ _______ _______ _____ _____    ______ ____
ROOT
ATOM      1  C   UNL     1       1.851   8.063  20.166  0.00  0.00    +0.000 C 
ENDROOT
BRANCH   1   4
ATOM      2  O   UNL     1       2.254   6.120  18.116  0.00  0.00    +0.000 OA
ATOM      3  C   UNL     1       2.075   5.706  19.260  0.00  0.00    +0.000 C 
ATOM      4  N   UNL     1       1.927   6.591  20.327  0.00  0.00    +0.000 N 
ATOM      5  H   UNL     1       1.656   6.217  21.230  0.00  0.00    +0.000 HD
BRANCH   3   6
ATOM      6  C   UNL     1       2.123   4.172  19.630  0.00  0.00    +0.000 C 
ATOM      7  C   UNL     1       1.166   4.045  20.836  0.00  0.00    +0.000 C 
ATOM      8  C   UNL     1       1.381   2.643  21.380  0.00  0.00    +0.000 C 
ATOM      9  C   UNL     1       2.814   2.316  21.017  0.00  0.00    +0.000 C 
ATOM     10  N   UNL     1       3.285   3.403  20.168  0.00  0.00    +0.000 N 
ATOM     11  C   UNL     1       4.534   3.176  19.581  0.00  0.00    +0.000 C 
ATOM     12  O   UNL     1       5.174   2.154  19.854  0.00  0.00    +0.000 OA
BRANCH  11  13
ATOM     13  C   UNL     1       5.025   4.177  18.670  0.00  0.00    +0.000 A 
ATOM     14  C   UNL     1       5.723   5.330  18.947  0.00  0.00    +0.000 A 
ATOM     15  C   UNL     1       5.808   6.179  17.811  0.00  0.00    +0.000 A 
ATOM     16  C   UNL     1       5.376   5.545  16.670  0.00  0.00    +0.000 A 
ATOM     17  S   UNL     1       4.842   3.951  16.986  0.00  0.00    +0.000 S 
ENDBRANCH  11  13
ENDBRANCH   3   6
ENDBRANCH   1   4
BRANCH   1  18
ATOM     18  C   UNL     1       1.455   8.808  21.462  0.00  0.00    +0.000 C 
BRANCH  18  19
ATOM     19  N   UNL     1       0.582   9.989  21.367  0.00  0.00    +0.000 N 
ATOM     20  C   UNL     1       0.018  10.407  20.191  0.00  0.00    +0.000 C 
ATOM     21  O   UNL     1       0.196   9.935  19.077  0.00  0.00    +0.000 OA
ATOM     22  S   UNL     1      -1.145  11.705  20.492  0.00  0.00    +0.000 S 
ATOM     23  C   UNL     1      -1.110  11.440  22.184  0.00  0.00    +0.000 C 
ATOM     24  C   UNL     1      -1.848  12.001  23.153  0.00  0.00    +0.000 C 
ATOM     25  C   UNL     1      -0.093  10.398  22.501  0.00  0.00    +0.000 C 
ATOM     26  O   UNL     1       0.034   9.916  23.626  0.00  0.00    +0.000 OA
BRANCH  24  27
ATOM     27  C   UNL     1      -2.851  13.064  23.029  0.00  0.00    +0.000 A 
ATOM     28  C   UNL     1      -4.179  12.782  22.683  0.00  0.00    +0.000 A 
ATOM     29  C   UNL     1      -5.136  13.806  22.672  0.00  0.00    +0.000 A 
ATOM     30  C   UNL     1      -4.775  15.114  23.003  0.00  0.00    +0.000 A 
ATOM     31  C   UNL     1      -3.456  15.402  23.343  0.00  0.00    +0.000 A 
ATOM     32  C   UNL     1      -2.509  14.381  23.354  0.00  0.00    +0.000 A 
ATOM     33  F   UNL     1      -1.250  14.678  23.713  0.00  0.00    +0.000 F 
ENDBRANCH  24  27
ENDBRANCH  18  19
ENDBRANCH   1  18
TORSDOF 6
ENDMDL
MODEL 8
REMARK VINA RESULT:      -8.0      1.470      1.609
REMARK  Name = 
REMARK  6 active torsions:
REMARK  status: ('A' for Active; 'I' for Inactive)
REMARK    1  A    between atoms: C_2  and  C_21
REMARK    2  A    between atoms: N_3  and  C_4
REMARK    3  A    between atoms: C_4  and  C_5
REMARK    4  A    between atoms: C_5  and  N_6
REMARK    5  A    between atoms: C_11  and  C_12
REMARK    6  A    between atoms: C_26  and  C_28
REMARK                            x       y       z     vdW  Elec       q    Type
REMARK                         _______ _______ _______ _____ _____    ______ ____
ROOT
ATOM      1  C   UNL     1       1.087   8.449  18.438  0.00  0.00    +0.000 C 
ENDROOT
BRANCH   1   4
ATOM      2  O   UNL     1       2.683   6.636  19.957  0.00  0.00    +0.000 OA
ATOM      3  C   UNL     1       2.973   6.788  18.772  0.00  0.00    +0.000 C 
ATOM      4  N   UNL     1       2.209   7.613  17.947  0.00  0.00    +0.000 N 
ATOM      5  H   UNL     1       2.551   7.812  17.013  0.00  0.00    +0.000 HD
BRANCH   3   6
ATOM      6  C   UNL     1       4.134   5.983  18.067  0.00  0.00    +0.000 C 
ATOM      7  C   UNL     1       4.575   6.898  16.903  0.00  0.00    +0.000 C 
ATOM      8  C   UNL     1       5.507   6.052  16.052  0.00  0.00    +0.000 C 
ATOM      9  C   UNL     1       5.031   4.632  16.274  0.00  0.00    +0.000 C 
ATOM     10  N   UNL     1       4.022   4.692  17.324  0.00  0.00    +0.000 N 
ATOM     11  C   UNL     1       3.605   3.442  17.794  0.00  0.00    +0.000 C 
ATOM     12  O   UNL     1       4.035   2.406  17.275  0.00  0.00    +0.000 OA
BRANCH  11  13
ATOM     13  C   UNL     1       2.666   3.429  18.886  0.00  0.00    +0.000 A 
ATOM     14  C   UNL     1       1.303   3.619  18.855  0.00  0.00    +0.000 A 
ATOM     15  C   UNL     1       0.766   3.783  20.159  0.00  0.00    +0.000 A 
ATOM     16  C   UNL     1       1.692   3.487  21.131  0.00  0.00    +0.000 A 
ATOM     17  S   UNL     1       3.205   3.050  20.463  0.00  0.00    +0.000 S 
ENDBRANCH  11  13
ENDBRANCH   3   6
ENDBRANCH   1   4
BRANCH   1  18
ATOM     18  C   UNL     1       1.469   9.934  18.648  0.00  0.00    +0.000 C 
BRANCH  18  19
ATOM     19  N   UNL     1       0.501  10.832  19.298  0.00  0.00    +0.000 N 
ATOM     20  C   UNL     1      -0.711  11.149  18.745  0.00  0.00    +0.000 C 
ATOM     21  O   UNL     1      -1.135  10.811  17.650  0.00  0.00    +0.000 OA
ATOM     22  S   UNL     1      -1.697  12.057  19.900  0.00  0.00    +0.000 S 
ATOM     23  C   UNL     1      -0.627  11.712  21.192  0.00  0.00    +0.000 C 
ATOM     24  C   UNL     1      -0.746  11.990  22.499  0.00  0.00    +0.000 C 
ATOM     25  C   UNL     1       0.557  10.973  20.671  0.00  0.00    +0.000 C 
ATOM     26  O   UNL     1       1.408  10.479  21.410  0.00  0.00    +0.000 OA
BRANCH  24  27
ATOM     27  C   UNL     1      -1.810  12.743  23.172  0.00  0.00    +0.000 A 
ATOM     28  C   UNL     1      -3.036  12.148  23.496  0.00  0.00    +0.000 A 
ATOM     29  C   UNL     1      -3.994  12.862  24.230  0.00  0.00    +0.000 A 
ATOM     30  C   UNL     1      -3.735  14.172  24.642  0.00  0.00    +0.000 A 
ATOM     31  C   UNL     1      -2.520  14.771  24.320  0.00  0.00    +0.000 A 
ATOM     32  C   UNL     1      -1.571  14.056  23.591  0.00  0.00    +0.000 A 
ATOM     33  F   UNL     1      -0.396  14.645  23.319  0.00  0.00    +0.000 F 
ENDBRANCH  24  27
ENDBRANCH  18  19
ENDBRANCH   1  18
TORSDOF 6
ENDMDL
MODEL 9
REMARK VINA RESULT:      -8.0      1.805      3.218
REMARK  Name = 
REMARK  6 active torsions:
REMARK  status: ('A' for Active; 'I' for Inactive)
REMARK    1  A    between atoms: C_2  and  C_21
REMARK    2  A    between atoms: N_3  and  C_4
REMARK    3  A    between atoms: C_4  and  C_5
REMARK    4  A    between atoms: C_5  and  N_6
REMARK    5  A    between atoms: C_11  and  C_12
REMARK    6  A    between atoms: C_26  and  C_28
REMARK                            x       y       z     vdW  Elec       q    Type
REMARK                         _______ _______ _______ _____ _____    ______ ____
ROOT
ATOM      1  C   UNL     1       2.246   8.217  19.530  0.00  0.00    +0.000 C 
ENDROOT
BRANCH   1   4
ATOM      2  O   UNL     1       2.485   6.004  17.744  0.00  0.00    +0.000 OA
ATOM      3  C   UNL     1       2.273   5.753  18.930  0.00  0.00    +0.000 C 
ATOM      4  N   UNL     1       2.199   6.775  19.876  0.00  0.00    +0.000 N 
ATOM      5  H   UNL     1       1.899   6.541  20.816  0.00  0.00    +0.000 HD
BRANCH   3   6
ATOM      6  C   UNL     1       2.193   4.279  19.490  0.00  0.00    +0.000 C 
ATOM      7  C   UNL     1       1.213   4.381  20.680  0.00  0.00    +0.000 C 
ATOM      8  C   UNL     1       1.308   3.047  21.400  0.00  0.00    +0.000 C 
ATOM      9  C   UNL     1       2.716   2.567  21.115  0.00  0.00    +0.000 C 
ATOM     10  N   UNL     1       3.283   3.498  20.147  0.00  0.00    +0.000 N 
ATOM     11  C   UNL     1       4.518   3.103  19.623  0.00  0.00    +0.000 C 
ATOM     12  O   UNL     1       5.071   2.077  20.036  0.00  0.00    +0.000 OA
BRANCH  11  13
ATOM     13  C   UNL     1       5.099   3.939  18.605  0.00  0.00    +0.000 A 
ATOM     14  C   UNL     1       4.989   3.837  17.236  0.00  0.00    +0.000 A 
ATOM     15  C   UNL     1       5.907   4.691  16.570  0.00  0.00    +0.000 A 
ATOM     16  C   UNL     1       6.513   5.565  17.443  0.00  0.00    +0.000 A 
ATOM     17  S   UNL     1       5.995   5.323  19.055  0.00  0.00    +0.000 S 
ENDBRANCH  11  13
ENDBRANCH   3   6
ENDBRANCH   1   4
BRANCH   1  18
ATOM     18  C   UNL     1       0.949   8.736  18.867  0.00  0.00    +0.000 C 
BRANCH  18  19
ATOM     19  N   UNL     1       0.261   9.894  19.460  0.00  0.00    +0.000 N 
ATOM     20  C   UNL     1      -0.665  10.641  18.780  0.00  0.00    +0.000 C 
ATOM     21  O   UNL     1      -1.000  10.517  17.612  0.00  0.00    +0.000 OA
ATOM     22  S   UNL     1      -1.446  11.795  19.870  0.00  0.00    +0.000 S 
ATOM     23  C   UNL     1      -0.779  11.045  21.258  0.00  0.00    +0.000 C 
ATOM     24  C   UNL     1      -0.999  11.297  22.556  0.00  0.00    +0.000 C 
ATOM     25  C   UNL     1       0.144   9.953  20.835  0.00  0.00    +0.000 C 
ATOM     26  O   UNL     1       0.644   9.162  21.633  0.00  0.00    +0.000 OA
BRANCH  24  27
ATOM     27  C   UNL     1      -1.831  12.352  23.146  0.00  0.00    +0.000 A 
ATOM     28  C   UNL     1      -3.107  12.081  23.656  0.00  0.00    +0.000 A 
ATOM     29  C   UNL     1      -3.835  13.087  24.304  0.00  0.00    +0.000 A 
ATOM     30  C   UNL     1      -3.297  14.368  24.447  0.00  0.00    +0.000 A 
ATOM     31  C   UNL     1      -2.030  14.646  23.939  0.00  0.00    +0.000 A 
ATOM     32  C   UNL     1      -1.310  13.642  23.296  0.00  0.00    +0.000 A 
ATOM     33  F   UNL     1      -0.080  13.926  22.841  0.00  0.00    +0.000 F 
ENDBRANCH  24  27
ENDBRANCH  18  19
ENDBRANCH   1  18
TORSDOF 6
ENDMDL
