MODEL 1
REMARK VINA RESULT:      -9.5      0.000      0.000
REMARK  Name = 
REMARK  5 active torsions:
REMARK  status: ('A' for Active; 'I' for Inactive)
REMARK    1  A    between atoms: C_4  and  C_5
REMARK    2  A    between atoms: C_5  and  N_6
REMARK    3  A    between atoms: C_7  and  C_8
REMARK    4  A    between atoms: C_8  and  O_9
REMARK    5  A    between atoms: O_9  and  C_10
REMARK                            x       y       z     vdW  Elec       q    Type
REMARK                         _______ _______ _______ _____ _____    ______ ____
ROOT
ATOM      1  N   UNL     1       4.649   4.519  18.007  0.00  0.00    +0.000 N 
ATOM      2  C   UNL     1       4.001   5.559  17.346  0.00  0.00    +0.000 A 
ATOM      3  N   UNL     1       4.835   5.921  16.378  0.00  0.00    +0.000 NA
ATOM      4  C   UNL     1       6.030   5.862  17.053  0.00  0.00    +0.000 A 
ATOM      5  C   UNL     1       7.161   6.657  16.840  0.00  0.00    +0.000 A 
ATOM      6  C   UNL     1       7.951   6.926  17.963  0.00  0.00    +0.000 A 
ATOM      7  C   UNL     1       7.675   6.317  19.189  0.00  0.00    +0.000 A 
ATOM      8  C   UNL     1       6.691   5.317  19.341  0.00  0.00    +0.000 A 
ATOM      9  C   UNL     1       5.887   5.078  18.220  0.00  0.00    +0.000 A 
ENDROOT
BRANCH   1  10
ATOM     10  C   UNL     1       3.978   3.226  18.075  0.00  0.00    +0.000 C 
BRANCH  10  14
ATOM     11  C   UNL     1       1.157   2.866  21.303  0.00  0.00    +0.000 A 
ATOM     12  C   UNL     1       2.510   2.663  21.538  0.00  0.00    +0.000 A 
ATOM     13  C   UNL     1       3.406   2.667  20.460  0.00  0.00    +0.000 A 
ATOM     14  C   UNL     1       2.961   2.880  19.131  0.00  0.00    +0.000 A 
ATOM     15  C   UNL     1       1.591   3.050  18.915  0.00  0.00    +0.000 A 
ATOM     16  C   UNL     1       0.699   3.054  20.000  0.00  0.00    +0.000 A 
ENDBRANCH  10  14
ENDBRANCH   1  10
BRANCH   2  17
ATOM     17  C   UNL     1       3.262   6.450  18.298  0.00  0.00    +0.000 C 
BRANCH  17  18
ATOM     18  O   UNL     1       2.711   7.564  17.642  0.00  0.00    +0.000 OA
BRANCH  18  19
ATOM     19  C   UNL     1       2.053   8.376  18.534  0.00  0.00    +0.000 A 
ATOM     20  C   UNL     1       1.511   9.534  17.990  0.00  0.00    +0.000 A 
ATOM     21  C   UNL     1       0.750  10.389  18.789  0.00  0.00    +0.000 A 
ATOM     22  C   UNL     1       0.506  10.088  20.139  0.00  0.00    +0.000 A 
ATOM     23  C   UNL     1      -0.326  10.879  20.937  0.00  0.00    +0.000 A 
ATOM     24  C   UNL     1      -0.565  10.546  22.269  0.00  0.00    +0.000 A 
ATOM     25  C   UNL     1       0.062   9.440  22.843  0.00  0.00    +0.000 A 
ATOM     26  C   UNL     1       0.900   8.642  22.063  0.00  0.00    +0.000 A 
ATOM     27  C   UNL     1       1.105   8.937  20.706  0.00  0.00    +0.000 A 
ATOM     28  C   UNL     1       1.877   8.101  19.893  0.00  0.00    +0.000 A 
ENDBRANCH  18  19
ENDBRANCH  17  18
ENDBRANCH   2  17
TORSDOF 5
ENDMDL
MODEL 2
REMARK VINA RESULT:      -9.4      0.954      1.084
REMARK  Name = 
REMARK  5 active torsions:
REMARK  status: ('A' for Active; 'I' for Inactive)
REMARK    1  A    between atoms: C_4  and  C_5
REMARK    2  A    between atoms: C_5  and  N_6
REMARK    3  A    between atoms: C_7  and  C_8
REMARK    4  A    between atoms: C_8  and  O_9
REMARK    5  A    between atoms: O_9  and  C_10
REMARK                            x       y       z     vdW  Elec       q    Type
REMARK                         _______ _______ _______ _____ _____    ______ ____
ROOT
ATOM      1  N   UNL     1       4.317   5.420  17.499  0.00  0.00    +0.000 N 
ATOM      2  C   UNL     1       4.165   6.713  17.003  0.00  0.00    +0.000 A 
ATOM      3  N   UNL     1       5.260   6.934  16.284  0.00  0.00    +0.000 NA
ATOM      4  C   UNL     1       6.206   6.367  17.103  0.00  0.00    +0.000 A 
ATOM      5  C   UNL     1       7.539   6.765  17.254  0.00  0.00    +0.000 A 
ATOM      6  C   UNL     1       8.107   6.561  18.516  0.00  0.00    +0.000 A 
ATOM      7  C   UNL     1       7.402   5.882  19.512  0.00  0.00    +0.000 A 
ATOM      8  C   UNL     1       6.160   5.256  19.277  0.00  0.00    +0.000 A 
ATOM      9  C   UNL     1       5.587   5.491  18.022  0.00  0.00    +0.000 A 
ENDROOT
BRANCH   1  10
ATOM     10  C   UNL     1       3.298   4.432  17.163  0.00  0.00    +0.000 C 
BRANCH  10  14
ATOM     11  C   UNL     1       0.997   2.761  20.391  0.00  0.00    +0.000 A 
ATOM     12  C   UNL     1       1.506   1.933  19.401  0.00  0.00    +0.000 A 
ATOM     13  C   UNL     1       2.153   2.498  18.293  0.00  0.00    +0.000 A 
ATOM     14  C   UNL     1       2.305   3.901  18.164  0.00  0.00    +0.000 A 
ATOM     15  C   UNL     1       1.757   4.717  19.158  0.00  0.00    +0.000 A 
ATOM     16  C   UNL     1       1.117   4.144  20.269  0.00  0.00    +0.000 A 
ENDBRANCH  10  14
ENDBRANCH   1  10
BRANCH   2  17
ATOM     17  C   UNL     1       3.532   7.624  18.009  0.00  0.00    +0.000 C 
BRANCH  17  18
ATOM     18  O   UNL     1       2.190   7.897  17.688  0.00  0.00    +0.000 OA
BRANCH  18  19
ATOM     19  C   UNL     1       1.609   8.680  18.656  0.00  0.00    +0.000 A 
ATOM     20  C   UNL     1       1.035   9.858  18.197  0.00  0.00    +0.000 A 
ATOM     21  C   UNL     1       0.343  10.688  19.082  0.00  0.00    +0.000 A 
ATOM     22  C   UNL     1       0.202  10.339  20.435  0.00  0.00    +0.000 A 
ATOM     23  C   UNL     1      -0.561  11.105  21.323  0.00  0.00    +0.000 A 
ATOM     24  C   UNL     1      -0.699  10.725  22.657  0.00  0.00    +0.000 A 
ATOM     25  C   UNL     1      -0.038   9.597  23.141  0.00  0.00    +0.000 A 
ATOM     26  C   UNL     1       0.733   8.823  22.271  0.00  0.00    +0.000 A 
ATOM     27  C   UNL     1       0.835   9.166  20.914  0.00  0.00    +0.000 A 
ATOM     28  C   UNL     1       1.535   8.356  20.014  0.00  0.00    +0.000 A 
ENDBRANCH  18  19
ENDBRANCH  17  18
ENDBRANCH   2  17
TORSDOF 5
ENDMDL
MODEL 3
REMARK VINA RESULT:      -9.4      0.638      1.468
REMARK  Name = 
REMARK  5 active torsions:
REMARK  status: ('A' for Active; 'I' for Inactive)
REMARK    1  A    between atoms: C_4  and  C_5
REMARK    2  A    between atoms: C_5  and  N_6
REMARK    3  A    between atoms: C_7  and  C_8
REMARK    4  A    between atoms: C_8  and  O_9
REMARK    5  A    between atoms: O_9  and  C_10
REMARK                            x       y       z     vdW  Elec       q    Type
REMARK                         _______ _______ _______ _____ _____    ______ ____
ROOT
ATOM      1  N   UNL     1       4.483   4.946  17.905  0.00  0.00    +0.000 N 
ATOM      2  C   UNL     1       3.880   6.145  17.532  0.00  0.00    +0.000 A 
ATOM      3  N   UNL     1       4.666   6.642  16.583  0.00  0.00    +0.000 NA
ATOM      4  C   UNL     1       5.899   6.358  17.118  0.00  0.00    +0.000 A 
ATOM      5  C   UNL     1       7.076   7.099  16.965  0.00  0.00    +0.000 A 
ATOM      6  C   UNL     1       7.971   7.070  18.041  0.00  0.00    +0.000 A 
ATOM      7  C   UNL     1       7.737   6.239  19.138  0.00  0.00    +0.000 A 
ATOM      8  C   UNL     1       6.683   5.301  19.175  0.00  0.00    +0.000 A 
ATOM      9  C   UNL     1       5.778   5.360  18.110  0.00  0.00    +0.000 A 
ENDROOT
BRANCH   1  10
ATOM     10  C   UNL     1       3.707   3.718  17.771  0.00  0.00    +0.000 C 
BRANCH  10  14
ATOM     11  C   UNL     1       1.260   2.775  21.181  0.00  0.00    +0.000 A 
ATOM     12  C   UNL     1       2.640   2.646  21.261  0.00  0.00    +0.000 A 
ATOM     13  C   UNL     1       3.419   2.843  20.112  0.00  0.00    +0.000 A 
ATOM     14  C   UNL     1       2.827   3.177  18.868  0.00  0.00    +0.000 A 
ATOM     15  C   UNL     1       1.435   3.270  18.804  0.00  0.00    +0.000 A 
ATOM     16  C   UNL     1       0.661   3.080  19.961  0.00  0.00    +0.000 A 
ENDBRANCH  10  14
ENDBRANCH   1  10
BRANCH   2  17
ATOM     17  C   UNL     1       3.299   6.866  18.709  0.00  0.00    +0.000 C 
BRANCH  17  18
ATOM     18  O   UNL     1       2.579   8.008  18.313  0.00  0.00    +0.000 OA
BRANCH  18  19
ATOM     19  C   UNL     1       1.771   8.450  19.333  0.00  0.00    +0.000 A 
ATOM     20  C   UNL     1       1.726   7.625  20.450  0.00  0.00    +0.000 A 
ATOM     21  C   UNL     1       1.003   8.018  21.578  0.00  0.00    +0.000 A 
ATOM     22  C   UNL     1       0.330   9.251  21.608  0.00  0.00    +0.000 A 
ATOM     23  C   UNL     1      -0.326   9.710  22.756  0.00  0.00    +0.000 A 
ATOM     24  C   UNL     1      -0.971  10.945  22.764  0.00  0.00    +0.000 A 
ATOM     25  C   UNL     1      -1.012  11.727  21.609  0.00  0.00    +0.000 A 
ATOM     26  C   UNL     1      -0.368  11.283  20.453  0.00  0.00    +0.000 A 
ATOM     27  C   UNL     1       0.330  10.065  20.450  0.00  0.00    +0.000 A 
ATOM     28  C   UNL     1       1.048   9.646  19.325  0.00  0.00    +0.000 A 
ENDBRANCH  18  19
ENDBRANCH  17  18
ENDBRANCH   2  17
TORSDOF 5
ENDMDL
MODEL 4
REMARK VINA RESULT:      -9.3      1.062      4.503
REMARK  Name = 
REMARK  5 active torsions:
REMARK  status: ('A' for Active; 'I' for Inactive)
REMARK    1  A    between atoms: C_4  and  C_5
REMARK    2  A    between atoms: C_5  and  N_6
REMARK    3  A    between atoms: C_7  and  C_8
REMARK    4  A    between atoms: C_8  and  O_9
REMARK    5  A    between atoms: O_9  and  C_10
REMARK                            x       y       z     vdW  Elec       q    Type
REMARK                         _______ _______ _______ _____ _____    ______ ____
ROOT
ATOM      1  N   UNL     1       3.460   5.113  17.999  0.00  0.00    +0.000 N 
ATOM      2  C   UNL     1       3.117   6.200  18.800  0.00  0.00    +0.000 A 
ATOM      3  N   UNL     1       3.263   5.764  20.047  0.00  0.00    +0.000 NA
ATOM      4  C   UNL     1       2.731   4.504  19.927  0.00  0.00    +0.000 A 
ATOM      5  C   UNL     1       2.046   3.780  20.909  0.00  0.00    +0.000 A 
ATOM      6  C   UNL     1       1.055   2.904  20.455  0.00  0.00    +0.000 A 
ATOM      7  C   UNL     1       0.867   2.689  19.088  0.00  0.00    +0.000 A 
ATOM      8  C   UNL     1       1.729   3.222  18.106  0.00  0.00    +0.000 A 
ATOM      9  C   UNL     1       2.697   4.120  18.568  0.00  0.00    +0.000 A 
ENDROOT
BRANCH   1  10
ATOM     10  C   UNL     1       4.555   5.279  17.051  0.00  0.00    +0.000 C 
BRANCH  10  14
ATOM     11  C   UNL     1       8.181   6.989  18.613  0.00  0.00    +0.000 A 
ATOM     12  C   UNL     1       7.537   7.590  17.540  0.00  0.00    +0.000 A 
ATOM     13  C   UNL     1       6.423   6.962  16.964  0.00  0.00    +0.000 A 
ATOM     14  C   UNL     1       5.936   5.727  17.458  0.00  0.00    +0.000 A 
ATOM     15  C   UNL     1       6.619   5.125  18.518  0.00  0.00    +0.000 A 
ATOM     16  C   UNL     1       7.729   5.763  19.096  0.00  0.00    +0.000 A 
ENDBRANCH  10  14
ENDBRANCH   1  10
BRANCH   2  17
ATOM     17  C   UNL     1       1.966   6.971  18.230  0.00  0.00    +0.000 C 
BRANCH  17  18
ATOM     18  O   UNL     1       2.293   8.325  18.041  0.00  0.00    +0.000 OA
BRANCH  18  19
ATOM     19  C   UNL     1       1.636   9.115  18.954  0.00  0.00    +0.000 A 
ATOM     20  C   UNL     1       1.266  10.371  18.490  0.00  0.00    +0.000 A 
ATOM     21  C   UNL     1       0.519  11.223  19.304  0.00  0.00    +0.000 A 
ATOM     22  C   UNL     1       0.118  10.823  20.590  0.00  0.00    +0.000 A 
ATOM     23  C   UNL     1      -0.705  11.620  21.392  0.00  0.00    +0.000 A 
ATOM     24  C   UNL     1      -1.104  11.189  22.656  0.00  0.00    +0.000 A 
ATOM     25  C   UNL     1      -0.648   9.972  23.163  0.00  0.00    +0.000 A 
ATOM     26  C   UNL     1       0.179   9.166  22.379  0.00  0.00    +0.000 A 
ATOM     27  C   UNL     1       0.542   9.565  21.083  0.00  0.00    +0.000 A 
ATOM     28  C   UNL     1       1.303   8.732  20.256  0.00  0.00    +0.000 A 
ENDBRANCH  18  19
ENDBRANCH  17  18
ENDBRANCH   2  17
TORSDOF 5
ENDMDL
MODEL 5
REMARK VINA RESULT:      -9.1      1.060      1.796
REMARK  Name = 
REMARK  5 active torsions:
REMARK  status: ('A' for Active; 'I' for Inactive)
REMARK    1  A    between atoms: C_4  and  C_5
REMARK    2  A    between atoms: C_5  and  N_6
REMARK    3  A    between atoms: C_7  and  C_8
REMARK    4  A    between atoms: C_8  and  O_9
REMARK    5  A    between atoms: O_9  and  C_10
REMARK                            x       y       z     vdW  Elec       q    Type
REMARK                         _______ _______ _______ _____ _____    ______ ____
ROOT
ATOM      1  N   UNL     1       3.760   5.660  17.704  0.00  0.00    +0.000 N 
ATOM      2  C   UNL     1       3.807   6.919  17.110  0.00  0.00    +0.000 A 
ATOM      3  N   UNL     1       4.841   6.865  16.278  0.00  0.00    +0.000 NA
ATOM      4  C   UNL     1       5.742   6.179  17.056  0.00  0.00    +0.000 A 
ATOM      5  C   UNL     1       7.135   6.312  17.050  0.00  0.00    +0.000 A 
ATOM      6  C   UNL     1       7.784   6.088  18.269  0.00  0.00    +0.000 A 
ATOM      7  C   UNL     1       7.072   5.634  19.382  0.00  0.00    +0.000 A 
ATOM      8  C   UNL     1       5.715   5.255  19.316  0.00  0.00    +0.000 A 
ATOM      9  C   UNL     1       5.067   5.511  18.102  0.00  0.00    +0.000 A 
ENDROOT
BRANCH   1  10
ATOM     10  C   UNL     1       2.540   4.875  17.552  0.00  0.00    +0.000 C 
BRANCH  10  14
ATOM     11  C   UNL     1       1.448   2.426  20.916  0.00  0.00    +0.000 A 
ATOM     12  C   UNL     1       1.704   1.839  19.685  0.00  0.00    +0.000 A 
ATOM     13  C   UNL     1       1.944   2.652  18.569  0.00  0.00    +0.000 A 
ATOM     14  C   UNL     1       1.937   4.066  18.671  0.00  0.00    +0.000 A 
ATOM     15  C   UNL     1       1.645   4.635  19.913  0.00  0.00    +0.000 A 
ATOM     16  C   UNL     1       1.413   3.814  21.029  0.00  0.00    +0.000 A 
ENDBRANCH  10  14
ENDBRANCH   1  10
BRANCH   2  17
ATOM     17  C   UNL     1       3.471   8.006  18.084  0.00  0.00    +0.000 C 
BRANCH  17  18
ATOM     18  O   UNL     1       2.206   8.562  17.823  0.00  0.00    +0.000 OA
BRANCH  18  19
ATOM     19  C   UNL     1       1.538   8.821  18.996  0.00  0.00    +0.000 A 
ATOM     20  C   UNL     1       1.815   7.946  20.039  0.00  0.00    +0.000 A 
ATOM     21  C   UNL     1       1.258   8.165  21.300  0.00  0.00    +0.000 A 
ATOM     22  C   UNL     1       0.429   9.274  21.538  0.00  0.00    +0.000 A 
ATOM     23  C   UNL     1      -0.069   9.568  22.812  0.00  0.00    +0.000 A 
ATOM     24  C   UNL     1      -0.875  10.685  23.023  0.00  0.00    +0.000 A 
ATOM     25  C   UNL     1      -1.237  11.506  21.955  0.00  0.00    +0.000 A 
ATOM     26  C   UNL     1      -0.754  11.225  20.676  0.00  0.00    +0.000 A 
ATOM     27  C   UNL     1       0.102  10.134  20.461  0.00  0.00    +0.000 A 
ATOM     28  C   UNL     1       0.659   9.888  19.202  0.00  0.00    +0.000 A 
ENDBRANCH  18  19
ENDBRANCH  17  18
ENDBRANCH   2  17
TORSDOF 5
ENDMDL
MODEL 6
REMARK VINA RESULT:      -9.0      2.573      7.736
REMARK  Name = 
REMARK  5 active torsions:
REMARK  status: ('A' for Active; 'I' for Inactive)
REMARK    1  A    between atoms: C_4  and  C_5
REMARK    2  A    between atoms: C_5  and  N_6
REMARK    3  A    between atoms: C_7  and  C_8
REMARK    4  A    between atoms: C_8  and  O_9
REMARK    5  A    between atoms: O_9  and  C_10
REMARK                            x       y       z     vdW  Elec       q    Type
REMARK                         _______ _______ _______ _____ _____    ______ ____
ROOT
ATOM      1  N   UNL     1       2.700   5.211  18.628  0.00  0.00    +0.000 N 
ATOM      2  C   UNL     1       2.624   4.163  17.714  0.00  0.00    +0.000 A 
ATOM      3  N   UNL     1       1.400   3.668  17.863  0.00  0.00    +0.000 NA
ATOM      4  C   UNL     1       1.288   3.706  19.231  0.00  0.00    +0.000 A 
ATOM      5  C   UNL     1       0.568   2.824  20.044  0.00  0.00    +0.000 A 
ATOM      6  C   UNL     1       1.084   2.600  21.325  0.00  0.00    +0.000 A 
ATOM      7  C   UNL     1       2.185   3.326  21.786  0.00  0.00    +0.000 A 
ATOM      8  C   UNL     1       2.750   4.397  21.061  0.00  0.00    +0.000 A 
ATOM      9  C   UNL     1       2.247   4.592  19.770  0.00  0.00    +0.000 A 
ENDROOT
BRANCH   1  10
ATOM     10  C   UNL     1       2.991   6.546  18.119  0.00  0.00    +0.000 C 
BRANCH  10  14
ATOM     11  C   UNL     1       0.566   9.832  19.471  0.00  0.00    +0.000 A 
ATOM     12  C   UNL     1       0.984   9.777  18.149  0.00  0.00    +0.000 A 
ATOM     13  C   UNL     1       1.868   8.766  17.746  0.00  0.00    +0.000 A 
ATOM     14  C   UNL     1       2.343   7.794  18.661  0.00  0.00    +0.000 A 
ATOM     15  C   UNL     1       1.934   7.888  19.994  0.00  0.00    +0.000 A 
ATOM     16  C   UNL     1       1.041   8.898  20.389  0.00  0.00    +0.000 A 
ENDBRANCH  10  14
ENDBRANCH   1  10
BRANCH   2  17
ATOM     17  C   UNL     1       3.913   3.405  17.628  0.00  0.00    +0.000 C 
BRANCH  17  18
ATOM     18  O   UNL     1       5.024   4.258  17.753  0.00  0.00    +0.000 OA
BRANCH  18  19
ATOM     19  C   UNL     1       5.605   4.481  16.528  0.00  0.00    +0.000 A 
ATOM     20  C   UNL     1       6.657   5.388  16.530  0.00  0.00    +0.000 A 
ATOM     21  C   UNL     1       7.375   5.626  15.356  0.00  0.00    +0.000 A 
ATOM     22  C   UNL     1       7.058   4.947  14.168  0.00  0.00    +0.000 A 
ATOM     23  C   UNL     1       7.816   5.099  13.002  0.00  0.00    +0.000 A 
ATOM     24  C   UNL     1       7.490   4.399  11.842  0.00  0.00    +0.000 A 
ATOM     25  C   UNL     1       6.371   3.567  11.811  0.00  0.00    +0.000 A 
ATOM     26  C   UNL     1       5.599   3.407  12.964  0.00  0.00    +0.000 A 
ATOM     27  C   UNL     1       5.950   4.065  14.153  0.00  0.00    +0.000 A 
ATOM     28  C   UNL     1       5.235   3.851  15.336  0.00  0.00    +0.000 A 
ENDBRANCH  18  19
ENDBRANCH  17  18
ENDBRANCH   2  17
TORSDOF 5
ENDMDL
MODEL 7
REMARK VINA RESULT:      -9.0      2.548      7.691
REMARK  Name = 
REMARK  5 active torsions:
REMARK  status: ('A' for Active; 'I' for Inactive)
REMARK    1  A    between atoms: C_4  and  C_5
REMARK    2  A    between atoms: C_5  and  N_6
REMARK    3  A    between atoms: C_7  and  C_8
REMARK    4  A    between atoms: C_8  and  O_9
REMARK    5  A    between atoms: O_9  and  C_10
REMARK                            x       y       z     vdW  Elec       q    Type
REMARK                         _______ _______ _______ _____ _____    ______ ____
ROOT
ATOM      1  N   UNL     1       2.531   6.225  19.423  0.00  0.00    +0.000 N 
ATOM      2  C   UNL     1       3.134   5.629  18.319  0.00  0.00    +0.000 A 
ATOM      3  N   UNL     1       2.199   4.839  17.804  0.00  0.00    +0.000 NA
ATOM      4  C   UNL     1       1.664   4.315  18.955  0.00  0.00    +0.000 A 
ATOM      5  C   UNL     1       1.108   3.042  19.125  0.00  0.00    +0.000 A 
ATOM      6  C   UNL     1       1.247   2.469  20.393  0.00  0.00    +0.000 A 
ATOM      7  C   UNL     1       1.801   3.199  21.447  0.00  0.00    +0.000 A 
ATOM      8  C   UNL     1       2.124   4.568  21.340  0.00  0.00    +0.000 A 
ATOM      9  C   UNL     1       2.010   5.123  20.061  0.00  0.00    +0.000 A 
ENDROOT
BRANCH   1  10
ATOM     10  C   UNL     1       2.450   7.681  19.459  0.00  0.00    +0.000 C 
BRANCH  10  14
ATOM     11  C   UNL     1      -0.276  10.197  21.637  0.00  0.00    +0.000 A 
ATOM     12  C   UNL     1       0.328   9.119  22.269  0.00  0.00    +0.000 A 
ATOM     13  C   UNL     1       1.122   8.238  21.522  0.00  0.00    +0.000 A 
ATOM     14  C   UNL     1       1.327   8.427  20.132  0.00  0.00    +0.000 A 
ATOM     15  C   UNL     1       0.683   9.500  19.511  0.00  0.00    +0.000 A 
ATOM     16  C   UNL     1      -0.105  10.384  20.267  0.00  0.00    +0.000 A 
ENDBRANCH  10  14
ENDBRANCH   1  10
BRANCH   2  17
ATOM     17  C   UNL     1       4.570   5.296  18.581  0.00  0.00    +0.000 C 
BRANCH  17  18
ATOM     18  O   UNL     1       4.950   4.101  17.944  0.00  0.00    +0.000 OA
BRANCH  18  19
ATOM     19  C   UNL     1       5.533   4.364  16.727  0.00  0.00    +0.000 A 
ATOM     20  C   UNL     1       6.593   5.260  16.763  0.00  0.00    +0.000 A 
ATOM     21  C   UNL     1       7.313   5.535  15.598  0.00  0.00    +0.000 A 
ATOM     22  C   UNL     1       6.990   4.903  14.386  0.00  0.00    +0.000 A 
ATOM     23  C   UNL     1       7.749   5.091  13.226  0.00  0.00    +0.000 A 
ATOM     24  C   UNL     1       7.417   4.437  12.041  0.00  0.00    +0.000 A 
ATOM     25  C   UNL     1       6.291   3.617  11.980  0.00  0.00    +0.000 A 
ATOM     26  C   UNL     1       5.517   3.422  13.126  0.00  0.00    +0.000 A 
ATOM     27  C   UNL     1       5.874   4.033  14.339  0.00  0.00    +0.000 A 
ATOM     28  C   UNL     1       5.157   3.782  15.513  0.00  0.00    +0.000 A 
ENDBRANCH  18  19
ENDBRANCH  17  18
ENDBRANCH   2  17
TORSDOF 5
ENDMDL
MODEL 8
REMARK VINA RESULT:      -9.0      2.125      4.832
REMARK  Name = 
REMARK  5 active torsions:
REMARK  status: ('A' for Active; 'I' for Inactive)
REMARK    1  A    between atoms: C_4  and  C_5
REMARK    2  A    between atoms: C_5  and  N_6
REMARK    3  A    between atoms: C_7  and  C_8
REMARK    4  A    between atoms: C_8  and  O_9
REMARK    5  A    between atoms: O_9  and  C_10
REMARK                            x       y       z     vdW  Elec       q    Type
REMARK                         _______ _______ _______ _____ _____    ______ ____
ROOT
ATOM      1  N   UNL     1       5.547   4.643  17.116  0.00  0.00    +0.000 N 
ATOM      2  C   UNL     1       5.269   5.667  18.018  0.00  0.00    +0.000 A 
ATOM      3  N   UNL     1       5.307   5.089  19.214  0.00  0.00    +0.000 NA
ATOM      4  C   UNL     1       4.662   3.909  18.932  0.00  0.00    +0.000 A 
ATOM      5  C   UNL     1       3.858   3.159  19.797  0.00  0.00    +0.000 A 
ATOM      6  C   UNL     1       2.812   2.442  19.207  0.00  0.00    +0.000 A 
ATOM      7  C   UNL     1       2.677   2.394  17.818  0.00  0.00    +0.000 A 
ATOM      8  C   UNL     1       3.637   2.938  16.939  0.00  0.00    +0.000 A 
ATOM      9  C   UNL     1       4.663   3.678  17.538  0.00  0.00    +0.000 A 
ENDROOT
BRANCH   1  10
ATOM     10  C   UNL     1       6.703   4.796  16.240  0.00  0.00    +0.000 C 
BRANCH  10  14
ATOM     11  C   UNL     1       6.960   4.121  11.999  0.00  0.00    +0.000 A 
ATOM     12  C   UNL     1       7.772   5.073  12.600  0.00  0.00    +0.000 A 
ATOM     13  C   UNL     1       7.599   5.368  13.960  0.00  0.00    +0.000 A 
ATOM     14  C   UNL     1       6.614   4.709  14.738  0.00  0.00    +0.000 A 
ATOM     15  C   UNL     1       5.788   3.778  14.105  0.00  0.00    +0.000 A 
ATOM     16  C   UNL     1       5.971   3.481  12.744  0.00  0.00    +0.000 A 
ENDBRANCH  10  14
ENDBRANCH   1  10
BRANCH   2  17
ATOM     17  C   UNL     1       4.231   6.608  17.490  0.00  0.00    +0.000 C 
BRANCH  17  18
ATOM     18  O   UNL     1       2.948   6.281  17.962  0.00  0.00    +0.000 OA
BRANCH  18  19
ATOM     19  C   UNL     1       2.370   7.361  18.584  0.00  0.00    +0.000 A 
ATOM     20  C   UNL     1       2.050   8.423  17.748  0.00  0.00    +0.000 A 
ATOM     21  C   UNL     1       1.382   9.538  18.260  0.00  0.00    +0.000 A 
ATOM     22  C   UNL     1       1.010   9.595  19.613  0.00  0.00    +0.000 A 
ATOM     23  C   UNL     1       0.263  10.658  20.132  0.00  0.00    +0.000 A 
ATOM     24  C   UNL     1      -0.109  10.680  21.475  0.00  0.00    +0.000 A 
ATOM     25  C   UNL     1       0.301   9.664  22.337  0.00  0.00    +0.000 A 
ATOM     26  C   UNL     1       1.052   8.598  21.839  0.00  0.00    +0.000 A 
ATOM     27  C   UNL     1       1.385   8.537  20.476  0.00  0.00    +0.000 A 
ATOM     28  C   UNL     1       2.067   7.437  19.947  0.00  0.00    +0.000 A 
ENDBRANCH  18  19
ENDBRANCH  17  18
ENDBRANCH   2  17
TORSDOF 5
ENDMDL
MODEL 9
REMARK VINA RESULT:      -9.0      1.916      5.073
REMARK  Name = 
REMARK  5 active torsions:
REMARK  status: ('A' for Active; 'I' for Inactive)
REMARK    1  A    between atoms: C_4  and  C_5
REMARK    2  A    between atoms: C_5  and  N_6
REMARK    3  A    between atoms: C_7  and  C_8
REMARK    4  A    between atoms: C_8  and  O_9
REMARK    5  A    between atoms: O_9  and  C_10
REMARK                            x       y       z     vdW  Elec       q    Type
REMARK                         _______ _______ _______ _____ _____    ______ ____
ROOT
ATOM      1  N   UNL     1       3.514   5.464  17.850  0.00  0.00    +0.000 N 
ATOM      2  C   UNL     1       3.206   6.583  18.619  0.00  0.00    +0.000 A 
ATOM      3  N   UNL     1       3.261   6.159  19.877  0.00  0.00    +0.000 NA
ATOM      4  C   UNL     1       2.652   4.935  19.746  0.00  0.00    +0.000 A 
ATOM      5  C   UNL     1       1.872   4.273  20.701  0.00  0.00    +0.000 A 
ATOM      6  C   UNL     1       0.847   3.459  20.208  0.00  0.00    +0.000 A 
ATOM      7  C   UNL     1       0.714   3.235  18.836  0.00  0.00    +0.000 A 
ATOM      8  C   UNL     1       1.657   3.694  17.892  0.00  0.00    +0.000 A 
ATOM      9  C   UNL     1       2.660   4.533  18.391  0.00  0.00    +0.000 A 
ENDROOT
BRANCH   1  10
ATOM     10  C   UNL     1       4.665   5.541  16.956  0.00  0.00    +0.000 C 
BRANCH  10  14
ATOM     11  C   UNL     1       8.277   7.106  18.692  0.00  0.00    +0.000 A 
ATOM     12  C   UNL     1       7.670   7.772  17.636  0.00  0.00    +0.000 A 
ATOM     13  C   UNL     1       6.561   7.194  17.002  0.00  0.00    +0.000 A 
ATOM     14  C   UNL     1       6.041   5.943  17.420  0.00  0.00    +0.000 A 
ATOM     15  C   UNL     1       6.687   5.276  18.463  0.00  0.00    +0.000 A 
ATOM     16  C   UNL     1       7.793   5.865  19.100  0.00  0.00    +0.000 A 
ENDBRANCH  10  14
ENDBRANCH   1  10
BRANCH   2  17
ATOM     17  C   UNL     1       2.140   7.420  17.982  0.00  0.00    +0.000 C 
BRANCH  17  18
ATOM     18  O   UNL     1       2.310   8.785  18.273  0.00  0.00    +0.000 OA
BRANCH  18  19
ATOM     19  C   UNL     1       1.094   9.397  18.461  0.00  0.00    +0.000 A 
ATOM     20  C   UNL     1       0.993  10.167  19.613  0.00  0.00    +0.000 A 
ATOM     21  C   UNL     1      -0.168  10.902  19.861  0.00  0.00    +0.000 A 
ATOM     22  C   UNL     1      -1.237  10.887  18.950  0.00  0.00    +0.000 A 
ATOM     23  C   UNL     1      -2.374  11.682  19.129  0.00  0.00    +0.000 A 
ATOM     24  C   UNL     1      -3.413  11.662  18.199  0.00  0.00    +0.000 A 
ATOM     25  C   UNL     1      -3.356  10.811  17.096  0.00  0.00    +0.000 A 
ATOM     26  C   UNL     1      -2.231  10.006  16.904  0.00  0.00    +0.000 A 
ATOM     27  C   UNL     1      -1.156  10.058  17.805  0.00  0.00    +0.000 A 
ATOM     28  C   UNL     1       0.010   9.319  17.582  0.00  0.00    +0.000 A 
ENDBRANCH  18  19
ENDBRANCH  17  18
ENDBRANCH   2  17
TORSDOF 5
ENDMDL
