MODEL 1
REMARK VINA RESULT:      -7.3      0.000      0.000
REMARK  Name = 
REMARK  22 active torsions:
REMARK  status: ('A' for Active; 'I' for Inactive)
REMARK    1  A    between atoms: C_1  and  C_2
REMARK    2  A    between atoms: C_2  and  C_3
REMARK    3  A    between atoms: C_3  and  C_4
REMARK    4  A    between atoms: C_4  and  C_5
REMARK    5  A    between atoms: C_5  and  C_6
REMARK    6  A    between atoms: C_6  and  C_7
REMARK    7  A    between atoms: C_7  and  C_8
REMARK    8  A    between atoms: C_8  and  C_9
REMARK    9  A    between atoms: C_8  and  N_27
REMARK   10  A    between atoms: C_9  and  C_10
REMARK   11  A    between atoms: C_13  and  O_14
REMARK   12  A    between atoms: O_14  and  C_15
REMARK   13  A    between atoms: C_16  and  O_17
REMARK   14  A    between atoms: O_17  and  C_18
REMARK   15  A    between atoms: C_18  and  C_19
REMARK   16  A    between atoms: C_19  and  C_20
REMARK   17  A    between atoms: N_27  and  C_28
REMARK   18  A    between atoms: N_27  and  C_31
REMARK   19  A    between atoms: C_28  and  C_29
REMARK   20  A    between atoms: C_29  and  C_30
REMARK   21  A    between atoms: C_31  and  C_32
REMARK   22  A    between atoms: C_32  and  C_33
REMARK                            x       y       z     vdW  Elec       q    Type
REMARK                         _______ _______ _______ _____ _____    ______ ____
ROOT
ATOM      1  C   UNL     1       4.972   5.645  18.179  0.00  0.00    +0.000 A 
ATOM      2  C   UNL     1       4.825   4.748  17.124  0.00  0.00    +0.000 A 
ATOM      3  C   UNL     1       5.732   4.715  16.072  0.00  0.00    +0.000 A 
ATOM      4  C   UNL     1       6.806   5.606  16.030  0.00  0.00    +0.000 A 
ATOM      5  C   UNL     1       6.913   6.599  17.021  0.00  0.00    +0.000 A 
ATOM      6  C   UNL     1       5.973   6.622  18.067  0.00  0.00    +0.000 A 
ENDROOT
BRANCH   4   7
ATOM      7  O   UNL     1       7.610   5.348  14.956  0.00  0.00    +0.000 OA
ATOM      8  C   UNL     1       7.053   4.698  13.829  0.00  0.00    +0.000 C 
ENDBRANCH   4   7
BRANCH   1   9
ATOM      9  C   UNL     1       4.166   5.559  19.459  0.00  0.00    +0.000 C 
BRANCH   9  10
ATOM     10  C   UNL     1       2.666   5.995  19.440  0.00  0.00    +0.000 C 
BRANCH  10  11
ATOM     11  C   UNL     1       1.975   5.438  18.138  0.00  0.00    +0.000 C 
BRANCH  11  12
ATOM     12  C   UNL     1       1.371   4.034  18.218  0.00  0.00    +0.000 C 
BRANCH  12  13
ATOM     13  C   UNL     1       1.100   3.630  19.660  0.00  0.00    +0.000 C 
BRANCH  13  14
ATOM     14  C   UNL     1       1.762   2.293  19.953  0.00  0.00    +0.000 C 
BRANCH  14  15
ATOM     15  C   UNL     1       3.093   2.487  20.677  0.00  0.00    +0.000 C 
BRANCH  15  17
ATOM     16  C   UNL     1       3.731   1.366  18.530  0.00  0.00    +0.000 C 
ATOM     17  C   UNL     1       4.242   2.034  19.791  0.00  0.00    +0.000 C 
ENDBRANCH  15  17
ENDBRANCH  14  15
ENDBRANCH  13  14
ENDBRANCH  12  13
ENDBRANCH  11  12
ENDBRANCH  10  11
BRANCH  10  18
ATOM     18  N   UNL     1       2.395   7.474  19.659  0.00  0.00    +0.000 NA
BRANCH  18  19
ATOM     19  C   UNL     1       2.066   8.124  18.349  0.00  0.00    +0.000 C 
BRANCH  19  20
ATOM     20  C   UNL     1       1.699   9.622  18.330  0.00  0.00    +0.000 C 
ATOM     21  C   UNL     1       0.237   9.894  18.011  0.00  0.00    +0.000 C 
ENDBRANCH  19  20
ENDBRANCH  18  19
BRANCH  18  22
ATOM     22  C   UNL     1       1.282   7.746  20.611  0.00  0.00    +0.000 C 
BRANCH  22  23
ATOM     23  C   UNL     1       1.448   8.735  21.782  0.00  0.00    +0.000 C 
ATOM     24  C   UNL     1       0.153   9.274  22.360  0.00  0.00    +0.000 C 
ENDBRANCH  22  23
ENDBRANCH  18  22
ENDBRANCH  10  18
ENDBRANCH   9  10
ENDBRANCH   1   9
BRANCH   5  25
ATOM     25  O   UNL     1       7.954   7.490  16.941  0.00  0.00    +0.000 OA
BRANCH  25  26
ATOM     26  C   UNL     1       7.794   8.764  17.563  0.00  0.00    +0.000 C 
BRANCH  26  27
ATOM     27  C   UNL     1       8.761   8.855  18.742  0.00  0.00    +0.000 C 
BRANCH  27  28
ATOM     28  C   UNL     1       9.153  10.282  19.031  0.00  0.00    +0.000 A 
ATOM     29  C   UNL     1       9.170  11.235  18.002  0.00  0.00    +0.000 A 
ATOM     30  C   UNL     1       9.559  12.550  18.264  0.00  0.00    +0.000 A 
ATOM     31  C   UNL     1       9.938  12.922  19.552  0.00  0.00    +0.000 A 
ATOM     32  C   UNL     1       9.933  11.981  20.579  0.00  0.00    +0.000 A 
ATOM     33  C   UNL     1       9.545  10.666  20.320  0.00  0.00    +0.000 A 
ENDBRANCH  27  28
ENDBRANCH  26  27
ENDBRANCH  25  26
ENDBRANCH   5  25
TORSDOF 18
ENDMDL
MODEL 2
REMARK VINA RESULT:      -7.2      3.539      7.455
REMARK  Name = 
REMARK  22 active torsions:
REMARK  status: ('A' for Active; 'I' for Inactive)
REMARK    1  A    between atoms: C_1  and  C_2
REMARK    2  A    between atoms: C_2  and  C_3
REMARK    3  A    between atoms: C_3  and  C_4
REMARK    4  A    between atoms: C_4  and  C_5
REMARK    5  A    between atoms: C_5  and  C_6
REMARK    6  A    between atoms: C_6  and  C_7
REMARK    7  A    between atoms: C_7  and  C_8
REMARK    8  A    between atoms: C_8  and  C_9
REMARK    9  A    between atoms: C_8  and  N_27
REMARK   10  A    between atoms: C_9  and  C_10
REMARK   11  A    between atoms: C_13  and  O_14
REMARK   12  A    between atoms: O_14  and  C_15
REMARK   13  A    between atoms: C_16  and  O_17
REMARK   14  A    between atoms: O_17  and  C_18
REMARK   15  A    between atoms: C_18  and  C_19
REMARK   16  A    between atoms: C_19  and  C_20
REMARK   17  A    between atoms: N_27  and  C_28
REMARK   18  A    between atoms: N_27  and  C_31
REMARK   19  A    between atoms: C_28  and  C_29
REMARK   20  A    between atoms: C_29  and  C_30
REMARK   21  A    between atoms: C_31  and  C_32
REMARK   22  A    between atoms: C_32  and  C_33
REMARK                            x       y       z     vdW  Elec       q    Type
REMARK                         _______ _______ _______ _____ _____    ______ ____
ROOT
ATOM      1  C   UNL     1       3.191   6.601  18.670  0.00  0.00    +0.000 A 
ATOM      2  C   UNL     1       2.918   7.507  17.650  0.00  0.00    +0.000 A 
ATOM      3  C   UNL     1       2.150   8.642  17.878  0.00  0.00    +0.000 A 
ATOM      4  C   UNL     1       1.604   8.890  19.139  0.00  0.00    +0.000 A 
ATOM      5  C   UNL     1       1.766   7.934  20.157  0.00  0.00    +0.000 A 
ATOM      6  C   UNL     1       2.535   6.784  19.896  0.00  0.00    +0.000 A 
ENDROOT
BRANCH   4   7
ATOM      7  O   UNL     1       0.955  10.092  19.159  0.00  0.00    +0.000 OA
ATOM      8  C   UNL     1       1.555  11.202  18.517  0.00  0.00    +0.000 C 
ENDBRANCH   4   7
BRANCH   1   9
ATOM      9  C   UNL     1       4.216   5.492  18.542  0.00  0.00    +0.000 C 
BRANCH   9  10
ATOM     10  C   UNL     1       4.565   4.945  17.121  0.00  0.00    +0.000 C 
BRANCH  10  11
ATOM     11  C   UNL     1       3.633   3.718  16.788  0.00  0.00    +0.000 C 
BRANCH  11  12
ATOM     12  C   UNL     1       3.546   2.606  17.836  0.00  0.00    +0.000 C 
BRANCH  12  13
ATOM     13  C   UNL     1       2.110   2.141  18.030  0.00  0.00    +0.000 C 
BRANCH  13  14
ATOM     14  C   UNL     1       1.263   3.291  18.547  0.00  0.00    +0.000 C 
BRANCH  14  15
ATOM     15  C   UNL     1       0.693   2.975  19.929  0.00  0.00    +0.000 C 
BRANCH  15  17
ATOM     16  C   UNL     1       2.529   2.743  21.617  0.00  0.00    +0.000 C 
ATOM     17  C   UNL     1       1.505   3.679  21.004  0.00  0.00    +0.000 C 
ENDBRANCH  15  17
ENDBRANCH  14  15
ENDBRANCH  13  14
ENDBRANCH  12  13
ENDBRANCH  11  12
ENDBRANCH  10  11
BRANCH  10  18
ATOM     18  N   UNL     1       6.032   4.653  16.856  0.00  0.00    +0.000 NA
BRANCH  18  19
ATOM     19  C   UNL     1       6.165   3.837  15.606  0.00  0.00    +0.000 C 
BRANCH  19  20
ATOM     20  C   UNL     1       6.219   4.560  14.244  0.00  0.00    +0.000 C 
ATOM     21  C   UNL     1       6.128   3.626  13.048  0.00  0.00    +0.000 C 
ENDBRANCH  19  20
ENDBRANCH  18  19
BRANCH  18  22
ATOM     22  C   UNL     1       6.872   5.876  16.710  0.00  0.00    +0.000 C 
BRANCH  22  23
ATOM     23  C   UNL     1       7.275   6.725  17.931  0.00  0.00    +0.000 C 
ATOM     24  C   UNL     1       7.914   5.953  19.071  0.00  0.00    +0.000 C 
ENDBRANCH  22  23
ENDBRANCH  18  22
ENDBRANCH  10  18
ENDBRANCH   9  10
ENDBRANCH   1   9
BRANCH   5  25
ATOM     25  O   UNL     1       1.190   8.177  21.379  0.00  0.00    +0.000 OA
BRANCH  25  26
ATOM     26  C   UNL     1      -0.094   8.799  21.401  0.00  0.00    +0.000 C 
BRANCH  26  27
ATOM     27  C   UNL     1      -0.285   9.473  22.759  0.00  0.00    +0.000 C 
BRANCH  27  28
ATOM     28  C   UNL     1      -0.772  10.892  22.611  0.00  0.00    +0.000 A 
ATOM     29  C   UNL     1      -1.915  11.326  23.299  0.00  0.00    +0.000 A 
ATOM     30  C   UNL     1      -2.380  12.633  23.141  0.00  0.00    +0.000 A 
ATOM     31  C   UNL     1      -1.712  13.514  22.293  0.00  0.00    +0.000 A 
ATOM     32  C   UNL     1      -0.581  13.091  21.600  0.00  0.00    +0.000 A 
ATOM     33  C   UNL     1      -0.113  11.785  21.755  0.00  0.00    +0.000 A 
ENDBRANCH  27  28
ENDBRANCH  26  27
ENDBRANCH  25  26
ENDBRANCH   5  25
TORSDOF 18
ENDMDL
MODEL 3
REMARK VINA RESULT:      -7.0      3.078      7.486
REMARK  Name = 
REMARK  22 active torsions:
REMARK  status: ('A' for Active; 'I' for Inactive)
REMARK    1  A    between atoms: C_1  and  C_2
REMARK    2  A    between atoms: C_2  and  C_3
REMARK    3  A    between atoms: C_3  and  C_4
REMARK    4  A    between atoms: C_4  and  C_5
REMARK    5  A    between atoms: C_5  and  C_6
REMARK    6  A    between atoms: C_6  and  C_7
REMARK    7  A    between atoms: C_7  and  C_8
REMARK    8  A    between atoms: C_8  and  C_9
REMARK    9  A    between atoms: C_8  and  N_27
REMARK   10  A    between atoms: C_9  and  C_10
REMARK   11  A    between atoms: C_13  and  O_14
REMARK   12  A    between atoms: O_14  and  C_15
REMARK   13  A    between atoms: C_16  and  O_17
REMARK   14  A    between atoms: O_17  and  C_18
REMARK   15  A    between atoms: C_18  and  C_19
REMARK   16  A    between atoms: C_19  and  C_20
REMARK   17  A    between atoms: N_27  and  C_28
REMARK   18  A    between atoms: N_27  and  C_31
REMARK   19  A    between atoms: C_28  and  C_29
REMARK   20  A    between atoms: C_29  and  C_30
REMARK   21  A    between atoms: C_31  and  C_32
REMARK   22  A    between atoms: C_32  and  C_33
REMARK                            x       y       z     vdW  Elec       q    Type
REMARK                         _______ _______ _______ _____ _____    ______ ____
ROOT
ATOM      1  C   UNL     1       2.935   6.916  19.042  0.00  0.00    +0.000 A 
ATOM      2  C   UNL     1       3.012   7.669  17.873  0.00  0.00    +0.000 A 
ATOM      3  C   UNL     1       2.281   8.840  17.719  0.00  0.00    +0.000 A 
ATOM      4  C   UNL     1       1.421   9.281  18.727  0.00  0.00    +0.000 A 
ATOM      5  C   UNL     1       1.236   8.480  19.868  0.00  0.00    +0.000 A 
ATOM      6  C   UNL     1       1.976   7.290  19.994  0.00  0.00    +0.000 A 
ENDROOT
BRANCH   4   7
ATOM      7  O   UNL     1       0.866  10.485  18.400  0.00  0.00    +0.000 OA
ATOM      8  C   UNL     1       1.696  11.631  18.365  0.00  0.00    +0.000 C 
ENDBRANCH   4   7
BRANCH   1   9
ATOM      9  C   UNL     1       3.887   5.781  19.360  0.00  0.00    +0.000 C 
BRANCH   9  10
ATOM     10  C   UNL     1       4.357   4.841  18.204  0.00  0.00    +0.000 C 
BRANCH  10  11
ATOM     11  C   UNL     1       4.223   3.339  18.664  0.00  0.00    +0.000 C 
BRANCH  11  12
ATOM     12  C   UNL     1       3.624   2.354  17.658  0.00  0.00    +0.000 C 
BRANCH  12  13
ATOM     13  C   UNL     1       2.199   1.976  18.037  0.00  0.00    +0.000 C 
BRANCH  13  14
ATOM     14  C   UNL     1       1.415   3.226  18.399  0.00  0.00    +0.000 C 
BRANCH  14  15
ATOM     15  C   UNL     1       0.606   3.015  19.678  0.00  0.00    +0.000 C 
BRANCH  15  17
ATOM     16  C   UNL     1       2.115   2.871  21.671  0.00  0.00    +0.000 C 
ATOM     17  C   UNL     1       1.239   3.778  20.830  0.00  0.00    +0.000 C 
ENDBRANCH  15  17
ENDBRANCH  14  15
ENDBRANCH  13  14
ENDBRANCH  12  13
ENDBRANCH  11  12
ENDBRANCH  10  11
BRANCH  10  18
ATOM     18  N   UNL     1       5.716   5.148  17.600  0.00  0.00    +0.000 NA
BRANCH  18  19
ATOM     19  C   UNL     1       5.538   5.721  16.226  0.00  0.00    +0.000 C 
BRANCH  19  20
ATOM     20  C   UNL     1       5.510   4.764  15.017  0.00  0.00    +0.000 C 
ATOM     21  C   UNL     1       6.831   4.679  14.269  0.00  0.00    +0.000 C 
ENDBRANCH  19  20
ENDBRANCH  18  19
BRANCH  18  22
ATOM     22  C   UNL     1       6.530   6.104  18.405  0.00  0.00    +0.000 C 
BRANCH  22  23
ATOM     23  C   UNL     1       7.785   6.781  17.822  0.00  0.00    +0.000 C 
ATOM     24  C   UNL     1       7.686   8.286  17.656  0.00  0.00    +0.000 C 
ENDBRANCH  22  23
ENDBRANCH  18  22
ENDBRANCH  10  18
ENDBRANCH   9  10
ENDBRANCH   1   9
BRANCH   5  25
ATOM     25  O   UNL     1       0.358   8.911  20.832  0.00  0.00    +0.000 OA
BRANCH  25  26
ATOM     26  C   UNL     1       0.891   9.583  21.972  0.00  0.00    +0.000 C 
BRANCH  26  27
ATOM     27  C   UNL     1       0.834  11.089  21.720  0.00  0.00    +0.000 C 
BRANCH  27  28
ATOM     28  C   UNL     1      -0.570  11.622  21.858  0.00  0.00    +0.000 A 
ATOM     29  C   UNL     1      -1.259  11.502  23.074  0.00  0.00    +0.000 A 
ATOM     30  C   UNL     1      -2.568  11.972  23.192  0.00  0.00    +0.000 A 
ATOM     31  C   UNL     1      -3.201  12.560  22.100  0.00  0.00    +0.000 A 
ATOM     32  C   UNL     1      -2.528  12.677  20.886  0.00  0.00    +0.000 A 
ATOM     33  C   UNL     1      -1.219  12.208  20.763  0.00  0.00    +0.000 A 
ENDBRANCH  27  28
ENDBRANCH  26  27
ENDBRANCH  25  26
ENDBRANCH   5  25
TORSDOF 18
ENDMDL
MODEL 4
REMARK VINA RESULT:      -6.8      3.135      7.470
REMARK  Name = 
REMARK  22 active torsions:
REMARK  status: ('A' for Active; 'I' for Inactive)
REMARK    1  A    between atoms: C_1  and  C_2
REMARK    2  A    between atoms: C_2  and  C_3
REMARK    3  A    between atoms: C_3  and  C_4
REMARK    4  A    between atoms: C_4  and  C_5
REMARK    5  A    between atoms: C_5  and  C_6
REMARK    6  A    between atoms: C_6  and  C_7
REMARK    7  A    between atoms: C_7  and  C_8
REMARK    8  A    between atoms: C_8  and  C_9
REMARK    9  A    between atoms: C_8  and  N_27
REMARK   10  A    between atoms: C_9  and  C_10
REMARK   11  A    between atoms: C_13  and  O_14
REMARK   12  A    between atoms: O_14  and  C_15
REMARK   13  A    between atoms: C_16  and  O_17
REMARK   14  A    between atoms: O_17  and  C_18
REMARK   15  A    between atoms: C_18  and  C_19
REMARK   16  A    between atoms: C_19  and  C_20
REMARK   17  A    between atoms: N_27  and  C_28
REMARK   18  A    between atoms: N_27  and  C_31
REMARK   19  A    between atoms: C_28  and  C_29
REMARK   20  A    between atoms: C_29  and  C_30
REMARK   21  A    between atoms: C_31  and  C_32
REMARK   22  A    between atoms: C_32  and  C_33
REMARK                            x       y       z     vdW  Elec       q    Type
REMARK                         _______ _______ _______ _____ _____    ______ ____
ROOT
ATOM      1  C   UNL     1       2.911   7.086  18.796  0.00  0.00    +0.000 A 
ATOM      2  C   UNL     1       2.821   7.975  17.728  0.00  0.00    +0.000 A 
ATOM      3  C   UNL     1       2.028   9.112  17.800  0.00  0.00    +0.000 A 
ATOM      4  C   UNL     1       1.271   9.381  18.942  0.00  0.00    +0.000 A 
ATOM      5  C   UNL     1       1.252   8.443  19.988  0.00  0.00    +0.000 A 
ATOM      6  C   UNL     1       2.052   7.290  19.885  0.00  0.00    +0.000 A 
ENDROOT
BRANCH   4   7
ATOM      7  O   UNL     1       0.631  10.583  18.828  0.00  0.00    +0.000 OA
ATOM      8  C   UNL     1       1.406  11.756  18.664  0.00  0.00    +0.000 C 
ENDBRANCH   4   7
BRANCH   1   9
ATOM      9  C   UNL     1       3.940   5.976  18.866  0.00  0.00    +0.000 C 
BRANCH   9  10
ATOM     10  C   UNL     1       4.203   5.105  17.596  0.00  0.00    +0.000 C 
BRANCH  10  11
ATOM     11  C   UNL     1       3.949   3.588  17.940  0.00  0.00    +0.000 C 
BRANCH  11  12
ATOM     12  C   UNL     1       2.692   2.942  17.354  0.00  0.00    +0.000 C 
BRANCH  12  13
ATOM     13  C   UNL     1       1.945   2.133  18.404  0.00  0.00    +0.000 C 
BRANCH  13  14
ATOM     14  C   UNL     1       0.588   2.765  18.671  0.00  0.00    +0.000 C 
BRANCH  14  15
ATOM     15  C   UNL     1       0.538   3.390  20.064  0.00  0.00    +0.000 C 
BRANCH  15  17
ATOM     16  C   UNL     1       2.437   3.833  21.635  0.00  0.00    +0.000 C 
ATOM     17  C   UNL     1       1.600   2.767  20.956  0.00  0.00    +0.000 C 
ENDBRANCH  15  17
ENDBRANCH  14  15
ENDBRANCH  13  14
ENDBRANCH  12  13
ENDBRANCH  11  12
ENDBRANCH  10  11
BRANCH  10  18
ATOM     18  N   UNL     1       5.528   5.331  16.890  0.00  0.00    +0.000 NA
BRANCH  18  19
ATOM     19  C   UNL     1       5.365   5.080  15.421  0.00  0.00    +0.000 C 
BRANCH  19  20
ATOM     20  C   UNL     1       6.388   4.179  14.699  0.00  0.00    +0.000 C 
ATOM     21  C   UNL     1       7.204   4.901  13.639  0.00  0.00    +0.000 C 
ENDBRANCH  19  20
ENDBRANCH  18  19
BRANCH  18  22
ATOM     22  C   UNL     1       6.081   6.703  17.073  0.00  0.00    +0.000 C 
BRANCH  22  23
ATOM     23  C   UNL     1       7.481   6.932  17.677  0.00  0.00    +0.000 C 
ATOM     24  C   UNL     1       7.944   8.376  17.698  0.00  0.00    +0.000 C 
ENDBRANCH  22  23
ENDBRANCH  18  22
ENDBRANCH  10  18
ENDBRANCH   9  10
ENDBRANCH   1   9
BRANCH   5  25
ATOM     25  O   UNL     1       0.472   8.706  21.087  0.00  0.00    +0.000 OA
BRANCH  25  26
ATOM     26  C   UNL     1       0.747   9.890  21.835  0.00  0.00    +0.000 C 
BRANCH  26  27
ATOM     27  C   UNL     1      -0.527  10.310  22.567  0.00  0.00    +0.000 C 
BRANCH  27  28
ATOM     28  C   UNL     1      -1.041  11.638  22.070  0.00  0.00    +0.000 A 
ATOM     29  C   UNL     1      -1.672  11.732  20.821  0.00  0.00    +0.000 A 
ATOM     30  C   UNL     1      -2.124  12.966  20.350  0.00  0.00    +0.000 A 
ATOM     31  C   UNL     1      -1.945  14.114  21.118  0.00  0.00    +0.000 A 
ATOM     32  C   UNL     1      -1.312  14.033  22.356  0.00  0.00    +0.000 A 
ATOM     33  C   UNL     1      -0.859  12.801  22.830  0.00  0.00    +0.000 A 
ENDBRANCH  27  28
ENDBRANCH  26  27
ENDBRANCH  25  26
ENDBRANCH   5  25
TORSDOF 18
ENDMDL
MODEL 5
REMARK VINA RESULT:      -6.7      3.463      6.661
REMARK  Name = 
REMARK  22 active torsions:
REMARK  status: ('A' for Active; 'I' for Inactive)
REMARK    1  A    between atoms: C_1  and  C_2
REMARK    2  A    between atoms: C_2  and  C_3
REMARK    3  A    between atoms: C_3  and  C_4
REMARK    4  A    between atoms: C_4  and  C_5
REMARK    5  A    between atoms: C_5  and  C_6
REMARK    6  A    between atoms: C_6  and  C_7
REMARK    7  A    between atoms: C_7  and  C_8
REMARK    8  A    between atoms: C_8  and  C_9
REMARK    9  A    between atoms: C_8  and  N_27
REMARK   10  A    between atoms: C_9  and  C_10
REMARK   11  A    between atoms: C_13  and  O_14
REMARK   12  A    between atoms: O_14  and  C_15
REMARK   13  A    between atoms: C_16  and  O_17
REMARK   14  A    between atoms: O_17  and  C_18
REMARK   15  A    between atoms: C_18  and  C_19
REMARK   16  A    between atoms: C_19  and  C_20
REMARK   17  A    between atoms: N_27  and  C_28
REMARK   18  A    between atoms: N_27  and  C_31
REMARK   19  A    between atoms: C_28  and  C_29
REMARK   20  A    between atoms: C_29  and  C_30
REMARK   21  A    between atoms: C_31  and  C_32
REMARK   22  A    between atoms: C_32  and  C_33
REMARK                            x       y       z     vdW  Elec       q    Type
REMARK                         _______ _______ _______ _____ _____    ______ ____
ROOT
ATOM      1  C   UNL     1       2.159   6.984  18.783  0.00  0.00    +0.000 A 
ATOM      2  C   UNL     1       1.972   6.857  20.157  0.00  0.00    +0.000 A 
ATOM      3  C   UNL     1       1.449   7.899  20.913  0.00  0.00    +0.000 A 
ATOM      4  C   UNL     1       1.123   9.118  20.317  0.00  0.00    +0.000 A 
ATOM      5  C   UNL     1       1.410   9.313  18.954  0.00  0.00    +0.000 A 
ATOM      6  C   UNL     1       1.955   8.248  18.212  0.00  0.00    +0.000 A 
ENDROOT
BRANCH   4   7
ATOM      7  O   UNL     1       0.556   9.966  21.224  0.00  0.00    +0.000 OA
ATOM      8  C   UNL     1       0.479   9.564  22.579  0.00  0.00    +0.000 C 
ENDBRANCH   4   7
BRANCH   1   9
ATOM      9  C   UNL     1       2.487   5.811  17.880  0.00  0.00    +0.000 C 
BRANCH   9  10
ATOM     10  C   UNL     1       3.984   5.499  17.558  0.00  0.00    +0.000 C 
BRANCH  10  11
ATOM     11  C   UNL     1       4.697   4.959  18.855  0.00  0.00    +0.000 C 
BRANCH  11  12
ATOM     12  C   UNL     1       5.082   3.478  18.872  0.00  0.00    +0.000 C 
BRANCH  12  13
ATOM     13  C   UNL     1       4.482   2.765  20.075  0.00  0.00    +0.000 C 
BRANCH  13  14
ATOM     14  C   UNL     1       3.027   2.426  19.799  0.00  0.00    +0.000 C 
BRANCH  14  15
ATOM     15  C   UNL     1       2.099   3.168  20.758  0.00  0.00    +0.000 C 
BRANCH  15  17
ATOM     16  C   UNL     1       0.638   2.632  18.796  0.00  0.00    +0.000 C 
ATOM     17  C   UNL     1       0.733   3.363  20.121  0.00  0.00    +0.000 C 
ENDBRANCH  15  17
ENDBRANCH  14  15
ENDBRANCH  13  14
ENDBRANCH  12  13
ENDBRANCH  11  12
ENDBRANCH  10  11
BRANCH  10  18
ATOM     18  N   UNL     1       4.769   6.607  16.877  0.00  0.00    +0.000 NA
BRANCH  18  19
ATOM     19  C   UNL     1       5.840   7.105  17.800  0.00  0.00    +0.000 C 
BRANCH  19  20
ATOM     20  C   UNL     1       7.295   7.163  17.292  0.00  0.00    +0.000 C 
ATOM     21  C   UNL     1       8.061   8.390  17.759  0.00  0.00    +0.000 C 
ENDBRANCH  19  20
ENDBRANCH  18  19
BRANCH  18  22
ATOM     22  C   UNL     1       5.408   6.191  15.596  0.00  0.00    +0.000 C 
BRANCH  22  23
ATOM     23  C   UNL     1       5.290   4.748  15.070  0.00  0.00    +0.000 C 
ATOM     24  C   UNL     1       6.609   4.021  14.883  0.00  0.00    +0.000 C 
ENDBRANCH  22  23
ENDBRANCH  18  22
ENDBRANCH  10  18
ENDBRANCH   9  10
ENDBRANCH   1   9
BRANCH   5  25
ATOM     25  O   UNL     1       1.118  10.532  18.393  0.00  0.00    +0.000 OA
BRANCH  25  26
ATOM     26  C   UNL     1       2.124  11.542  18.425  0.00  0.00    +0.000 C 
BRANCH  26  27
ATOM     27  C   UNL     1       1.600  12.726  19.237  0.00  0.00    +0.000 C 
BRANCH  27  28
ATOM     28  C   UNL     1       2.130  14.037  18.714  0.00  0.00    +0.000 A 
ATOM     29  C   UNL     1       3.422  14.115  18.172  0.00  0.00    +0.000 A 
ATOM     30  C   UNL     1       3.922  15.334  17.712  0.00  0.00    +0.000 A 
ATOM     31  C   UNL     1       3.141  16.485  17.794  0.00  0.00    +0.000 A 
ATOM     32  C   UNL     1       1.860  16.420  18.338  0.00  0.00    +0.000 A 
ATOM     33  C   UNL     1       1.357  15.202  18.798  0.00  0.00    +0.000 A 
ENDBRANCH  27  28
ENDBRANCH  26  27
ENDBRANCH  25  26
ENDBRANCH   5  25
TORSDOF 18
ENDMDL
MODEL 6
REMARK VINA RESULT:      -6.7      3.532      8.240
REMARK  Name = 
REMARK  22 active torsions:
REMARK  status: ('A' for Active; 'I' for Inactive)
REMARK    1  A    between atoms: C_1  and  C_2
REMARK    2  A    between atoms: C_2  and  C_3
REMARK    3  A    between atoms: C_3  and  C_4
REMARK    4  A    between atoms: C_4  and  C_5
REMARK    5  A    between atoms: C_5  and  C_6
REMARK    6  A    between atoms: C_6  and  C_7
REMARK    7  A    between atoms: C_7  and  C_8
REMARK    8  A    between atoms: C_8  and  C_9
REMARK    9  A    between atoms: C_8  and  N_27
REMARK   10  A    between atoms: C_9  and  C_10
REMARK   11  A    between atoms: C_13  and  O_14
REMARK   12  A    between atoms: O_14  and  C_15
REMARK   13  A    between atoms: C_16  and  O_17
REMARK   14  A    between atoms: O_17  and  C_18
REMARK   15  A    between atoms: C_18  and  C_19
REMARK   16  A    between atoms: C_19  and  C_20
REMARK   17  A    between atoms: N_27  and  C_28
REMARK   18  A    between atoms: N_27  and  C_31
REMARK   19  A    between atoms: C_28  and  C_29
REMARK   20  A    between atoms: C_29  and  C_30
REMARK   21  A    between atoms: C_31  and  C_32
REMARK   22  A    between atoms: C_32  and  C_33
REMARK                            x       y       z     vdW  Elec       q    Type
REMARK                         _______ _______ _______ _____ _____    ______ ____
ROOT
ATOM      1  C   UNL     1       2.362   6.679  18.483  0.00  0.00    +0.000 A 
ATOM      2  C   UNL     1       2.422   6.490  19.861  0.00  0.00    +0.000 A 
ATOM      3  C   UNL     1       1.982   7.469  20.744  0.00  0.00    +0.000 A 
ATOM      4  C   UNL     1       1.492   8.686  20.270  0.00  0.00    +0.000 A 
ATOM      5  C   UNL     1       1.528   8.949  18.889  0.00  0.00    +0.000 A 
ATOM      6  C   UNL     1       1.993   7.949  18.016  0.00  0.00    +0.000 A 
ENDROOT
BRANCH   4   7
ATOM      7  O   UNL     1       1.045   9.464  21.300  0.00  0.00    +0.000 OA
ATOM      8  C   UNL     1      -0.280   9.287  21.763  0.00  0.00    +0.000 C 
ENDBRANCH   4   7
BRANCH   1   9
ATOM      9  C   UNL     1       2.592   5.563  17.483  0.00  0.00    +0.000 C 
BRANCH   9  10
ATOM     10  C   UNL     1       4.033   4.984  17.313  0.00  0.00    +0.000 C 
BRANCH  10  11
ATOM     11  C   UNL     1       4.208   3.731  18.254  0.00  0.00    +0.000 C 
BRANCH  11  12
ATOM     12  C   UNL     1       3.586   2.415  17.783  0.00  0.00    +0.000 C 
BRANCH  12  13
ATOM     13  C   UNL     1       2.803   1.742  18.901  0.00  0.00    +0.000 C 
BRANCH  13  14
ATOM     14  C   UNL     1       1.328   2.086  18.775  0.00  0.00    +0.000 C 
BRANCH  14  15
ATOM     15  C   UNL     1       0.936   3.190  19.755  0.00  0.00    +0.000 C 
BRANCH  15  17
ATOM     16  C   UNL     1       2.357   3.424  21.804  0.00  0.00    +0.000 C 
ATOM     17  C   UNL     1       1.162   2.726  21.185  0.00  0.00    +0.000 C 
ENDBRANCH  15  17
ENDBRANCH  14  15
ENDBRANCH  13  14
ENDBRANCH  12  13
ENDBRANCH  11  12
ENDBRANCH  10  11
BRANCH  10  18
ATOM     18  N   UNL     1       5.175   5.977  17.443  0.00  0.00    +0.000 NA
BRANCH  18  19
ATOM     19  C   UNL     1       5.982   5.658  18.665  0.00  0.00    +0.000 C 
BRANCH  19  20
ATOM     20  C   UNL     1       7.420   6.206  18.774  0.00  0.00    +0.000 C 
ATOM     21  C   UNL     1       8.234   5.580  19.895  0.00  0.00    +0.000 C 
ENDBRANCH  19  20
ENDBRANCH  18  19
BRANCH  18  22
ATOM     22  C   UNL     1       6.091   5.996  16.267  0.00  0.00    +0.000 C 
BRANCH  22  23
ATOM     23  C   UNL     1       6.546   4.693  15.581  0.00  0.00    +0.000 C 
ATOM     24  C   UNL     1       5.949   4.445  14.208  0.00  0.00    +0.000 C 
ENDBRANCH  22  23
ENDBRANCH  18  22
ENDBRANCH  10  18
ENDBRANCH   9  10
ENDBRANCH   1   9
BRANCH   5  25
ATOM     25  O   UNL     1       1.078  10.168  18.444  0.00  0.00    +0.000 OA
BRANCH  25  26
ATOM     26  C   UNL     1      -0.244  10.240  17.913  0.00  0.00    +0.000 C 
BRANCH  26  27
ATOM     27  C   UNL     1      -0.904  11.520  18.421  0.00  0.00    +0.000 C 
BRANCH  27  28
ATOM     28  C   UNL     1      -2.371  11.565  18.074  0.00  0.00    +0.000 A 
ATOM     29  C   UNL     1      -3.316  11.953  19.035  0.00  0.00    +0.000 A 
ATOM     30  C   UNL     1      -4.676  11.969  18.721  0.00  0.00    +0.000 A 
ATOM     31  C   UNL     1      -5.104  11.593  17.449  0.00  0.00    +0.000 A 
ATOM     32  C   UNL     1      -4.174  11.198  16.490  0.00  0.00    +0.000 A 
ATOM     33  C   UNL     1      -2.813  11.181  16.801  0.00  0.00    +0.000 A 
ENDBRANCH  27  28
ENDBRANCH  26  27
ENDBRANCH  25  26
ENDBRANCH   5  25
TORSDOF 18
ENDMDL
MODEL 7
REMARK VINA RESULT:      -6.7      3.608      8.247
REMARK  Name = 
REMARK  22 active torsions:
REMARK  status: ('A' for Active; 'I' for Inactive)
REMARK    1  A    between atoms: C_1  and  C_2
REMARK    2  A    between atoms: C_2  and  C_3
REMARK    3  A    between atoms: C_3  and  C_4
REMARK    4  A    between atoms: C_4  and  C_5
REMARK    5  A    between atoms: C_5  and  C_6
REMARK    6  A    between atoms: C_6  and  C_7
REMARK    7  A    between atoms: C_7  and  C_8
REMARK    8  A    between atoms: C_8  and  C_9
REMARK    9  A    between atoms: C_8  and  N_27
REMARK   10  A    between atoms: C_9  and  C_10
REMARK   11  A    between atoms: C_13  and  O_14
REMARK   12  A    between atoms: O_14  and  C_15
REMARK   13  A    between atoms: C_16  and  O_17
REMARK   14  A    between atoms: O_17  and  C_18
REMARK   15  A    between atoms: C_18  and  C_19
REMARK   16  A    between atoms: C_19  and  C_20
REMARK   17  A    between atoms: N_27  and  C_28
REMARK   18  A    between atoms: N_27  and  C_31
REMARK   19  A    between atoms: C_28  and  C_29
REMARK   20  A    between atoms: C_29  and  C_30
REMARK   21  A    between atoms: C_31  and  C_32
REMARK   22  A    between atoms: C_32  and  C_33
REMARK                            x       y       z     vdW  Elec       q    Type
REMARK                         _______ _______ _______ _____ _____    ______ ____
ROOT
ATOM      1  C   UNL     1       3.269   7.349  18.074  0.00  0.00    +0.000 A 
ATOM      2  C   UNL     1       3.159   6.559  19.215  0.00  0.00    +0.000 A 
ATOM      3  C   UNL     1       2.281   6.887  20.240  0.00  0.00    +0.000 A 
ATOM      4  C   UNL     1       1.501   8.042  20.166  0.00  0.00    +0.000 A 
ATOM      5  C   UNL     1       1.676   8.920  19.081  0.00  0.00    +0.000 A 
ATOM      6  C   UNL     1       2.583   8.573  18.063  0.00  0.00    +0.000 A 
ENDROOT
BRANCH   4   7
ATOM      7  O   UNL     1       0.659   8.129  21.238  0.00  0.00    +0.000 OA
ATOM      8  C   UNL     1       0.981   9.021  22.288  0.00  0.00    +0.000 C 
ENDBRANCH   4   7
BRANCH   1   9
ATOM      9  C   UNL     1       4.017   6.912  16.831  0.00  0.00    +0.000 C 
BRANCH   9  10
ATOM     10  C   UNL     1       4.454   5.418  16.697  0.00  0.00    +0.000 C 
BRANCH  10  11
ATOM     11  C   UNL     1       3.554   4.523  17.631  0.00  0.00    +0.000 C 
BRANCH  11  12
ATOM     12  C   UNL     1       3.086   3.180  17.067  0.00  0.00    +0.000 C 
BRANCH  12  13
ATOM     13  C   UNL     1       2.081   2.511  17.994  0.00  0.00    +0.000 C 
BRANCH  13  14
ATOM     14  C   UNL     1       1.080   3.540  18.494  0.00  0.00    +0.000 C 
BRANCH  14  15
ATOM     15  C   UNL     1       0.627   3.217  19.917  0.00  0.00    +0.000 C 
BRANCH  15  17
ATOM     16  C   UNL     1       2.304   3.508  21.753  0.00  0.00    +0.000 C 
ATOM     17  C   UNL     1       1.761   2.569  20.694  0.00  0.00    +0.000 C 
ENDBRANCH  15  17
ENDBRANCH  14  15
ENDBRANCH  13  14
ENDBRANCH  12  13
ENDBRANCH  11  12
ENDBRANCH  10  11
BRANCH  10  18
ATOM     18  N   UNL     1       5.937   5.135  16.867  0.00  0.00    +0.000 NA
BRANCH  18  19
ATOM     19  C   UNL     1       6.190   4.588  18.240  0.00  0.00    +0.000 C 
BRANCH  19  20
ATOM     20  C   UNL     1       6.719   5.536  19.335  0.00  0.00    +0.000 C 
ATOM     21  C   UNL     1       8.059   6.173  19.004  0.00  0.00    +0.000 C 
ENDBRANCH  19  20
ENDBRANCH  18  19
BRANCH  18  22
ATOM     22  C   UNL     1       6.483   4.172  15.870  0.00  0.00    +0.000 C 
BRANCH  22  23
ATOM     23  C   UNL     1       6.706   4.576  14.399  0.00  0.00    +0.000 C 
ATOM     24  C   UNL     1       5.912   3.777  13.384  0.00  0.00    +0.000 C 
ENDBRANCH  22  23
ENDBRANCH  18  22
ENDBRANCH  10  18
ENDBRANCH   9  10
ENDBRANCH   1   9
BRANCH   5  25
ATOM     25  O   UNL     1       0.928  10.070  19.045  0.00  0.00    +0.000 OA
BRANCH  25  26
ATOM     26  C   UNL     1      -0.259  10.072  18.254  0.00  0.00    +0.000 C 
BRANCH  26  27
ATOM     27  C   UNL     1      -0.943  11.430  18.406  0.00  0.00    +0.000 C 
BRANCH  27  28
ATOM     28  C   UNL     1      -2.362  11.398  17.897  0.00  0.00    +0.000 A 
ATOM     29  C   UNL     1      -2.632  11.034  16.570  0.00  0.00    +0.000 A 
ATOM     30  C   UNL     1      -3.944  11.031  16.092  0.00  0.00    +0.000 A 
ATOM     31  C   UNL     1      -4.994  11.393  16.932  0.00  0.00    +0.000 A 
ATOM     32  C   UNL     1      -4.736  11.763  18.250  0.00  0.00    +0.000 A 
ATOM     33  C   UNL     1      -3.426  11.769  18.731  0.00  0.00    +0.000 A 
ENDBRANCH  27  28
ENDBRANCH  26  27
ENDBRANCH  25  26
ENDBRANCH   5  25
TORSDOF 18
ENDMDL
MODEL 8
REMARK VINA RESULT:      -6.7      1.305      2.343
REMARK  Name = 
REMARK  22 active torsions:
REMARK  status: ('A' for Active; 'I' for Inactive)
REMARK    1  A    between atoms: C_1  and  C_2
REMARK    2  A    between atoms: C_2  and  C_3
REMARK    3  A    between atoms: C_3  and  C_4
REMARK    4  A    between atoms: C_4  and  C_5
REMARK    5  A    between atoms: C_5  and  C_6
REMARK    6  A    between atoms: C_6  and  C_7
REMARK    7  A    between atoms: C_7  and  C_8
REMARK    8  A    between atoms: C_8  and  C_9
REMARK    9  A    between atoms: C_8  and  N_27
REMARK   10  A    between atoms: C_9  and  C_10
REMARK   11  A    between atoms: C_13  and  O_14
REMARK   12  A    between atoms: O_14  and  C_15
REMARK   13  A    between atoms: C_16  and  O_17
REMARK   14  A    between atoms: O_17  and  C_18
REMARK   15  A    between atoms: C_18  and  C_19
REMARK   16  A    between atoms: C_19  and  C_20
REMARK   17  A    between atoms: N_27  and  C_28
REMARK   18  A    between atoms: N_27  and  C_31
REMARK   19  A    between atoms: C_28  and  C_29
REMARK   20  A    between atoms: C_29  and  C_30
REMARK   21  A    between atoms: C_31  and  C_32
REMARK   22  A    between atoms: C_32  and  C_33
REMARK                            x       y       z     vdW  Elec       q    Type
REMARK                         _______ _______ _______ _____ _____    ______ ____
ROOT
ATOM      1  C   UNL     1       4.039   6.940  17.405  0.00  0.00    +0.000 A 
ATOM      2  C   UNL     1       4.101   5.560  17.234  0.00  0.00    +0.000 A 
ATOM      3  C   UNL     1       5.314   4.910  17.045  0.00  0.00    +0.000 A 
ATOM      4  C   UNL     1       6.508   5.632  16.991  0.00  0.00    +0.000 A 
ATOM      5  C   UNL     1       6.463   7.036  17.044  0.00  0.00    +0.000 A 
ATOM      6  C   UNL     1       5.221   7.673  17.220  0.00  0.00    +0.000 A 
ENDROOT
BRANCH   4   7
ATOM      7  O   UNL     1       7.578   4.791  16.877  0.00  0.00    +0.000 OA
ATOM      8  C   UNL     1       8.210   4.328  18.056  0.00  0.00    +0.000 C 
ENDBRANCH   4   7
BRANCH   1   9
ATOM      9  C   UNL     1       2.786   7.664  17.858  0.00  0.00    +0.000 C 
BRANCH   9  10
ATOM     10  C   UNL     1       2.296   7.479  19.329  0.00  0.00    +0.000 C 
BRANCH  10  11
ATOM     11  C   UNL     1       1.905   5.971  19.566  0.00  0.00    +0.000 C 
BRANCH  11  12
ATOM     12  C   UNL     1       2.831   5.145  20.462  0.00  0.00    +0.000 C 
BRANCH  12  13
ATOM     13  C   UNL     1       2.045   4.136  21.287  0.00  0.00    +0.000 C 
BRANCH  13  14
ATOM     14  C   UNL     1       2.368   2.726  20.819  0.00  0.00    +0.000 C 
BRANCH  14  15
ATOM     15  C   UNL     1       3.178   2.751  19.524  0.00  0.00    +0.000 C 
BRANCH  15  17
ATOM     16  C   UNL     1       0.840   2.258  18.774  0.00  0.00    +0.000 C 
ATOM     17  C   UNL     1       2.282   2.429  18.339  0.00  0.00    +0.000 C 
ENDBRANCH  15  17
ENDBRANCH  14  15
ENDBRANCH  13  14
ENDBRANCH  12  13
ENDBRANCH  11  12
ENDBRANCH  10  11
BRANCH  10  18
ATOM     18  N   UNL     1       1.222   8.443  19.805  0.00  0.00    +0.000 NA
BRANCH  18  19
ATOM     19  C   UNL     1       1.239   8.517  21.302  0.00  0.00    +0.000 C 
BRANCH  19  20
ATOM     20  C   UNL     1      -0.102   8.592  22.061  0.00  0.00    +0.000 C 
ATOM     21  C   UNL     1      -0.217   9.792  22.987  0.00  0.00    +0.000 C 
ENDBRANCH  19  20
ENDBRANCH  18  19
BRANCH  18  22
ATOM     22  C   UNL     1       1.373   9.824  19.265  0.00  0.00    +0.000 C 
BRANCH  22  23
ATOM     23  C   UNL     1       0.274  10.475  18.403  0.00  0.00    +0.000 C 
ATOM     24  C   UNL     1      -1.144  10.263  18.899  0.00  0.00    +0.000 C 
ENDBRANCH  22  23
ENDBRANCH  18  22
ENDBRANCH  10  18
ENDBRANCH   9  10
ENDBRANCH   1   9
BRANCH   5  25
ATOM     25  O   UNL     1       7.644   7.731  16.951  0.00  0.00    +0.000 OA
BRANCH  25  26
ATOM     26  C   UNL     1       8.079   8.467  18.092  0.00  0.00    +0.000 C 
BRANCH  26  27
ATOM     27  C   UNL     1       8.179   9.943  17.710  0.00  0.00    +0.000 C 
BRANCH  27  28
ATOM     28  C   UNL     1       9.278  10.641  18.471  0.00  0.00    +0.000 A 
ATOM     29  C   UNL     1      10.360  11.215  17.787  0.00  0.00    +0.000 A 
ATOM     30  C   UNL     1      11.391  11.837  18.494  0.00  0.00    +0.000 A 
ATOM     31  C   UNL     1      11.353  11.887  19.886  0.00  0.00    +0.000 A 
ATOM     32  C   UNL     1      10.287  11.313  20.574  0.00  0.00    +0.000 A 
ATOM     33  C   UNL     1       9.255  10.689  19.871  0.00  0.00    +0.000 A 
ENDBRANCH  27  28
ENDBRANCH  26  27
ENDBRANCH  25  26
ENDBRANCH   5  25
TORSDOF 18
ENDMDL
MODEL 9
REMARK VINA RESULT:      -6.7      3.177      7.725
REMARK  Name = 
REMARK  22 active torsions:
REMARK  status: ('A' for Active; 'I' for Inactive)
REMARK    1  A    between atoms: C_1  and  C_2
REMARK    2  A    between atoms: C_2  and  C_3
REMARK    3  A    between atoms: C_3  and  C_4
REMARK    4  A    between atoms: C_4  and  C_5
REMARK    5  A    between atoms: C_5  and  C_6
REMARK    6  A    between atoms: C_6  and  C_7
REMARK    7  A    between atoms: C_7  and  C_8
REMARK    8  A    between atoms: C_8  and  C_9
REMARK    9  A    between atoms: C_8  and  N_27
REMARK   10  A    between atoms: C_9  and  C_10
REMARK   11  A    between atoms: C_13  and  O_14
REMARK   12  A    between atoms: O_14  and  C_15
REMARK   13  A    between atoms: C_16  and  O_17
REMARK   14  A    between atoms: O_17  and  C_18
REMARK   15  A    between atoms: C_18  and  C_19
REMARK   16  A    between atoms: C_19  and  C_20
REMARK   17  A    between atoms: N_27  and  C_28
REMARK   18  A    between atoms: N_27  and  C_31
REMARK   19  A    between atoms: C_28  and  C_29
REMARK   20  A    between atoms: C_29  and  C_30
REMARK   21  A    between atoms: C_31  and  C_32
REMARK   22  A    between atoms: C_32  and  C_33
REMARK                            x       y       z     vdW  Elec       q    Type
REMARK                         _______ _______ _______ _____ _____    ______ ____
ROOT
ATOM      1  C   UNL     1       2.711   7.308  18.789  0.00  0.00    +0.000 A 
ATOM      2  C   UNL     1       2.569   8.190  17.722  0.00  0.00    +0.000 A 
ATOM      3  C   UNL     1       1.772   9.323  17.823  0.00  0.00    +0.000 A 
ATOM      4  C   UNL     1       1.065   9.594  18.995  0.00  0.00    +0.000 A 
ATOM      5  C   UNL     1       1.098   8.661  20.047  0.00  0.00    +0.000 A 
ATOM      6  C   UNL     1       1.900   7.513  19.915  0.00  0.00    +0.000 A 
ENDROOT
BRANCH   4   7
ATOM      7  O   UNL     1       0.413  10.791  18.904  0.00  0.00    +0.000 OA
ATOM      8  C   UNL     1       1.177  11.974  18.757  0.00  0.00    +0.000 C 
ENDBRANCH   4   7
BRANCH   1   9
ATOM      9  C   UNL     1       3.749   6.204  18.820  0.00  0.00    +0.000 C 
BRANCH   9  10
ATOM     10  C   UNL     1       3.999   5.363  17.527  0.00  0.00    +0.000 C 
BRANCH  10  11
ATOM     11  C   UNL     1       4.356   3.881  17.928  0.00  0.00    +0.000 C 
BRANCH  11  12
ATOM     12  C   UNL     1       4.944   3.660  19.323  0.00  0.00    +0.000 C 
BRANCH  12  13
ATOM     13  C   UNL     1       4.383   2.399  19.966  0.00  0.00    +0.000 C 
BRANCH  13  14
ATOM     14  C   UNL     1       2.882   2.333  19.743  0.00  0.00    +0.000 C 
BRANCH  14  15
ATOM     15  C   UNL     1       2.135   3.166  20.783  0.00  0.00    +0.000 C 
BRANCH  15  17
ATOM     16  C   UNL     1       0.876   3.567  18.656  0.00  0.00    +0.000 C 
ATOM     17  C   UNL     1       0.965   3.888  20.135  0.00  0.00    +0.000 C 
ENDBRANCH  15  17
ENDBRANCH  14  15
ENDBRANCH  13  14
ENDBRANCH  12  13
ENDBRANCH  11  12
ENDBRANCH  10  11
BRANCH  10  18
ATOM     18  N   UNL     1       4.977   5.949  16.524  0.00  0.00    +0.000 NA
BRANCH  18  19
ATOM     19  C   UNL     1       5.795   7.018  17.183  0.00  0.00    +0.000 C 
BRANCH  19  20
ATOM     20  C   UNL     1       7.278   6.733  17.501  0.00  0.00    +0.000 C 
ATOM     21  C   UNL     1       8.058   7.960  17.944  0.00  0.00    +0.000 C 
ENDBRANCH  19  20
ENDBRANCH  18  19
BRANCH  18  22
ATOM     22  C   UNL     1       5.905   4.945  15.931  0.00  0.00    +0.000 C 
BRANCH  22  23
ATOM     23  C   UNL     1       6.326   5.013  14.451  0.00  0.00    +0.000 C 
ATOM     24  C   UNL     1       6.072   3.750  13.649  0.00  0.00    +0.000 C 
ENDBRANCH  22  23
ENDBRANCH  18  22
ENDBRANCH  10  18
ENDBRANCH   9  10
ENDBRANCH   1   9
BRANCH   5  25
ATOM     25  O   UNL     1       0.365   8.926  21.177  0.00  0.00    +0.000 OA
BRANCH  25  26
ATOM     26  C   UNL     1       0.670  10.112  21.910  0.00  0.00    +0.000 C 
BRANCH  26  27
ATOM     27  C   UNL     1      -0.543  10.484  22.761  0.00  0.00    +0.000 C 
BRANCH  27  28
ATOM     28  C   UNL     1      -1.161  11.783  22.311  0.00  0.00    +0.000 A 
ATOM     29  C   UNL     1      -1.742  11.890  21.039  0.00  0.00    +0.000 A 
ATOM     30  C   UNL     1      -2.290  13.101  20.613  0.00  0.00    +0.000 A 
ATOM     31  C   UNL     1      -2.258  14.215  21.449  0.00  0.00    +0.000 A 
ATOM     32  C   UNL     1      -1.676  14.121  22.711  0.00  0.00    +0.000 A 
ATOM     33  C   UNL     1      -1.127  12.912  23.140  0.00  0.00    +0.000 A 
ENDBRANCH  27  28
ENDBRANCH  26  27
ENDBRANCH  25  26
ENDBRANCH   5  25
TORSDOF 18
ENDMDL
