MODEL 1
REMARK VINA RESULT:      -6.3      0.000      0.000
REMARK  Name = 
REMARK  8 active torsions:
REMARK  status: ('A' for Active; 'I' for Inactive)
REMARK    1  A    between atoms: C_1  and  C_2
REMARK    2  A    between atoms: C_5  and  C_7
REMARK    3  A    between atoms: C_7  and  C_8
REMARK    4  A    between atoms: C_10  and  N_11
REMARK    5  A    between atoms: N_11  and  C_12
REMARK    6  A    between atoms: N_11  and  C_13
REMARK    7  A    between atoms: C_14  and  C_15
REMARK    8  A    between atoms: C_16  and  C_17
REMARK                            x       y       z     vdW  Elec       q    Type
REMARK                         _______ _______ _______ _____ _____    ______ ____
ROOT
ATOM      1  C   UNL     1       2.862   1.591  18.606  0.00  0.00    +0.000 C 
ATOM      2  C   UNL     1       3.009   3.059  18.422  0.00  0.00    +0.000 A 
ATOM      3  N   UNL     1       3.962   3.561  17.636  0.00  0.00    +0.000 NA
ATOM      4  N   UNL     1       3.900   4.914  17.785  0.00  0.00    +0.000 N 
ATOM      5  C   UNL     1       4.755   5.768  17.023  0.00  0.00    +0.000 C 
ATOM      6  O   UNL     1       4.575   6.983  17.065  0.00  0.00    +0.000 OA
ATOM      7  C   UNL     1       2.892   5.246  18.699  0.00  0.00    +0.000 A 
ATOM      8  C   UNL     1       2.619   6.613  19.217  0.00  0.00    +0.000 C 
ATOM      9  C   UNL     1       2.233   4.070  19.021  0.00  0.00    +0.000 A 
ATOM     10  C   UNL     1       1.026   3.878  19.867  0.00  0.00    +0.000 C 
ENDROOT
BRANCH   5  11
ATOM     11  C   UNL     1       5.814   5.136  16.162  0.00  0.00    +0.000 C 
ATOM     12  C   UNL     1       5.648   5.137  14.818  0.00  0.00    +0.000 C 
BRANCH  12  13
ATOM     13  N   UNL     1       6.432   4.592  13.787  0.00  0.00    +0.000 N 
ATOM     14  C   UNL     1       6.017   3.463  12.945  0.00  0.00    +0.000 C 
ATOM     15  C   UNL     1       7.741   5.136  13.412  0.00  0.00    +0.000 C 
ENDBRANCH  12  13
BRANCH  11  16
ATOM     16  C   UNL     1       7.038   4.689  16.718  0.00  0.00    +0.000 C 
ATOM     17  N   UNL     1       8.003   4.297  17.239  0.00  0.00    +0.000 NA
ENDBRANCH  11  16
ENDBRANCH   5  11
TORSDOF 3
ENDMDL
MODEL 2
REMARK VINA RESULT:      -5.8      0.954      1.271
REMARK  Name = 
REMARK  8 active torsions:
REMARK  status: ('A' for Active; 'I' for Inactive)
REMARK    1  A    between atoms: C_1  and  C_2
REMARK    2  A    between atoms: C_5  and  C_7
REMARK    3  A    between atoms: C_7  and  C_8
REMARK    4  A    between atoms: C_10  and  N_11
REMARK    5  A    between atoms: N_11  and  C_12
REMARK    6  A    between atoms: N_11  and  C_13
REMARK    7  A    between atoms: C_14  and  C_15
REMARK    8  A    between atoms: C_16  and  C_17
REMARK                            x       y       z     vdW  Elec       q    Type
REMARK                         _______ _______ _______ _____ _____    ______ ____
ROOT
ATOM      1  C   UNL     1       4.495   1.855  20.148  0.00  0.00    +0.000 C 
ATOM      2  C   UNL     1       4.130   3.173  19.567  0.00  0.00    +0.000 A 
ATOM      3  N   UNL     1       4.755   3.646  18.488  0.00  0.00    +0.000 NA
ATOM      4  N   UNL     1       4.275   4.906  18.296  0.00  0.00    +0.000 N 
ATOM      5  C   UNL     1       4.697   5.680  17.171  0.00  0.00    +0.000 C 
ATOM      6  O   UNL     1       4.138   6.750  16.939  0.00  0.00    +0.000 OA
ATOM      7  C   UNL     1       3.342   5.218  19.293  0.00  0.00    +0.000 A 
ATOM      8  C   UNL     1       2.708   6.548  19.491  0.00  0.00    +0.000 C 
ATOM      9  C   UNL     1       3.151   4.068  20.043  0.00  0.00    +0.000 A 
ATOM     10  C   UNL     1       2.194   3.827  21.154  0.00  0.00    +0.000 C 
ENDROOT
BRANCH   5  11
ATOM     11  C   UNL     1       5.782   5.126  16.289  0.00  0.00    +0.000 C 
ATOM     12  C   UNL     1       5.596   5.125  14.948  0.00  0.00    +0.000 C 
BRANCH  12  13
ATOM     13  N   UNL     1       6.398   4.641  13.901  0.00  0.00    +0.000 N 
ATOM     14  C   UNL     1       7.716   5.187  13.551  0.00  0.00    +0.000 C 
ATOM     15  C   UNL     1       6.014   3.493  13.071  0.00  0.00    +0.000 C 
ENDBRANCH  12  13
BRANCH  11  16
ATOM     16  C   UNL     1       7.042   4.757  16.824  0.00  0.00    +0.000 C 
ATOM     17  N   UNL     1       8.055   4.487  17.331  0.00  0.00    +0.000 NA
ENDBRANCH  11  16
ENDBRANCH   5  11
TORSDOF 3
ENDMDL
MODEL 3
REMARK VINA RESULT:      -5.6      1.989      5.521
REMARK  Name = 
REMARK  8 active torsions:
REMARK  status: ('A' for Active; 'I' for Inactive)
REMARK    1  A    between atoms: C_1  and  C_2
REMARK    2  A    between atoms: C_5  and  C_7
REMARK    3  A    between atoms: C_7  and  C_8
REMARK    4  A    between atoms: C_10  and  N_11
REMARK    5  A    between atoms: N_11  and  C_12
REMARK    6  A    between atoms: N_11  and  C_13
REMARK    7  A    between atoms: C_14  and  C_15
REMARK    8  A    between atoms: C_16  and  C_17
REMARK                            x       y       z     vdW  Elec       q    Type
REMARK                         _______ _______ _______ _____ _____    ______ ____
ROOT
ATOM      1  C   UNL     1       5.204   3.530  14.246  0.00  0.00    +0.000 C 
ATOM      2  C   UNL     1       5.710   4.208  15.469  0.00  0.00    +0.000 A 
ATOM      3  N   UNL     1       5.147   3.991  16.658  0.00  0.00    +0.000 NA
ATOM      4  N   UNL     1       5.758   4.846  17.525  0.00  0.00    +0.000 N 
ATOM      5  C   UNL     1       5.429   4.826  18.916  0.00  0.00    +0.000 C 
ATOM      6  O   UNL     1       6.099   5.499  19.697  0.00  0.00    +0.000 OA
ATOM      7  C   UNL     1       6.709   5.616  16.845  0.00  0.00    +0.000 A 
ATOM      8  C   UNL     1       7.476   6.748  17.430  0.00  0.00    +0.000 C 
ATOM      9  C   UNL     1       6.772   5.130  15.548  0.00  0.00    +0.000 A 
ATOM     10  C   UNL     1       7.688   5.525  14.447  0.00  0.00    +0.000 C 
ENDROOT
BRANCH   5  11
ATOM     11  C   UNL     1       4.301   3.943  19.371  0.00  0.00    +0.000 C 
ATOM     12  C   UNL     1       3.031   4.293  19.061  0.00  0.00    +0.000 C 
BRANCH  12  13
ATOM     13  N   UNL     1       1.799   3.700  19.384  0.00  0.00    +0.000 N 
ATOM     14  C   UNL     1       1.125   2.694  18.553  0.00  0.00    +0.000 C 
ATOM     15  C   UNL     1       1.077   3.995  20.627  0.00  0.00    +0.000 C 
ENDBRANCH  12  13
BRANCH  11  16
ATOM     16  C   UNL     1       4.554   2.685  19.975  0.00  0.00    +0.000 C 
ATOM     17  N   UNL     1       4.836   1.656  20.441  0.00  0.00    +0.000 NA
ENDBRANCH  11  16
ENDBRANCH   5  11
TORSDOF 3
ENDMDL
MODEL 4
REMARK VINA RESULT:      -5.6      2.772      5.563
REMARK  Name = 
REMARK  8 active torsions:
REMARK  status: ('A' for Active; 'I' for Inactive)
REMARK    1  A    between atoms: C_1  and  C_2
REMARK    2  A    between atoms: C_5  and  C_7
REMARK    3  A    between atoms: C_7  and  C_8
REMARK    4  A    between atoms: C_10  and  N_11
REMARK    5  A    between atoms: N_11  and  C_12
REMARK    6  A    between atoms: N_11  and  C_13
REMARK    7  A    between atoms: C_14  and  C_15
REMARK    8  A    between atoms: C_16  and  C_17
REMARK                            x       y       z     vdW  Elec       q    Type
REMARK                         _______ _______ _______ _____ _____    ______ ____
ROOT
ATOM      1  C   UNL     1       0.817   2.991  19.535  0.00  0.00    +0.000 C 
ATOM      2  C   UNL     1       1.898   3.774  18.881  0.00  0.00    +0.000 A 
ATOM      3  N   UNL     1       1.893   5.107  18.905  0.00  0.00    +0.000 NA
ATOM      4  N   UNL     1       2.935   5.503  18.121  0.00  0.00    +0.000 N 
ATOM      5  C   UNL     1       3.253   6.889  17.983  0.00  0.00    +0.000 C 
ATOM      6  O   UNL     1       4.284   7.208  17.395  0.00  0.00    +0.000 OA
ATOM      7  C   UNL     1       3.585   4.381  17.592  0.00  0.00    +0.000 A 
ATOM      8  C   UNL     1       4.681   4.418  16.587  0.00  0.00    +0.000 C 
ATOM      9  C   UNL     1       3.003   3.265  18.171  0.00  0.00    +0.000 A 
ATOM     10  C   UNL     1       3.386   1.835  18.032  0.00  0.00    +0.000 C 
ENDROOT
BRANCH   5  11
ATOM     11  C   UNL     1       2.330   7.900  18.605  0.00  0.00    +0.000 C 
ATOM     12  C   UNL     1       1.754   8.834  17.812  0.00  0.00    +0.000 C 
BRANCH  12  13
ATOM     13  N   UNL     1       0.903   9.910  18.113  0.00  0.00    +0.000 N 
ATOM     14  C   UNL     1      -0.550   9.899  17.894  0.00  0.00    +0.000 C 
ATOM     15  C   UNL     1       1.380  11.152  18.732  0.00  0.00    +0.000 C 
ENDBRANCH  12  13
BRANCH  11  16
ATOM     16  C   UNL     1       1.937   7.794  19.963  0.00  0.00    +0.000 C 
ATOM     17  N   UNL     1       1.540   7.721  21.055  0.00  0.00    +0.000 NA
ENDBRANCH  11  16
ENDBRANCH   5  11
TORSDOF 3
ENDMDL
MODEL 5
REMARK VINA RESULT:      -5.6      1.820      2.030
REMARK  Name = 
REMARK  8 active torsions:
REMARK  status: ('A' for Active; 'I' for Inactive)
REMARK    1  A    between atoms: C_1  and  C_2
REMARK    2  A    between atoms: C_5  and  C_7
REMARK    3  A    between atoms: C_7  and  C_8
REMARK    4  A    between atoms: C_10  and  N_11
REMARK    5  A    between atoms: N_11  and  C_12
REMARK    6  A    between atoms: N_11  and  C_13
REMARK    7  A    between atoms: C_14  and  C_15
REMARK    8  A    between atoms: C_16  and  C_17
REMARK                            x       y       z     vdW  Elec       q    Type
REMARK                         _______ _______ _______ _____ _____    ______ ____
ROOT
ATOM      1  C   UNL     1       4.709   1.723  20.500  0.00  0.00    +0.000 C 
ATOM      2  C   UNL     1       3.955   2.946  20.117  0.00  0.00    +0.000 A 
ATOM      3  N   UNL     1       4.381   3.736  19.131  0.00  0.00    +0.000 NA
ATOM      4  N   UNL     1       3.546   4.813  19.123  0.00  0.00    +0.000 N 
ATOM      5  C   UNL     1       3.689   5.834  18.134  0.00  0.00    +0.000 C 
ATOM      6  O   UNL     1       2.833   6.713  18.056  0.00  0.00    +0.000 OA
ATOM      7  C   UNL     1       2.593   4.684  20.140  0.00  0.00    +0.000 A 
ATOM      8  C   UNL     1       1.601   5.723  20.526  0.00  0.00    +0.000 C 
ATOM      9  C   UNL     1       2.771   3.431  20.706  0.00  0.00    +0.000 A 
ATOM     10  C   UNL     1       1.960   2.757  21.754  0.00  0.00    +0.000 C 
ENDROOT
BRANCH   5  11
ATOM     11  C   UNL     1       4.862   5.762  17.196  0.00  0.00    +0.000 C 
ATOM     12  C   UNL     1       4.886   4.791  16.253  0.00  0.00    +0.000 C 
BRANCH  12  13
ATOM     13  N   UNL     1       5.852   4.457  15.289  0.00  0.00    +0.000 N 
ATOM     14  C   UNL     1       5.550   4.192  13.877  0.00  0.00    +0.000 C 
ATOM     15  C   UNL     1       7.286   4.387  15.593  0.00  0.00    +0.000 C 
ENDBRANCH  12  13
BRANCH  11  16
ATOM     16  C   UNL     1       5.851   6.778  17.183  0.00  0.00    +0.000 C 
ATOM     17  N   UNL     1       6.716   7.556  17.153  0.00  0.00    +0.000 NA
ENDBRANCH  11  16
ENDBRANCH   5  11
TORSDOF 3
ENDMDL
MODEL 6
REMARK VINA RESULT:      -5.4      2.844      6.154
REMARK  Name = 
REMARK  8 active torsions:
REMARK  status: ('A' for Active; 'I' for Inactive)
REMARK    1  A    between atoms: C_1  and  C_2
REMARK    2  A    between atoms: C_5  and  C_7
REMARK    3  A    between atoms: C_7  and  C_8
REMARK    4  A    between atoms: C_10  and  N_11
REMARK    5  A    between atoms: N_11  and  C_12
REMARK    6  A    between atoms: N_11  and  C_13
REMARK    7  A    between atoms: C_14  and  C_15
REMARK    8  A    between atoms: C_16  and  C_17
REMARK                            x       y       z     vdW  Elec       q    Type
REMARK                         _______ _______ _______ _____ _____    ______ ____
ROOT
ATOM      1  C   UNL     1       7.299   7.463  17.421  0.00  0.00    +0.000 C 
ATOM      2  C   UNL     1       6.086   6.606  17.348  0.00  0.00    +0.000 A 
ATOM      3  N   UNL     1       4.906   7.047  17.784  0.00  0.00    +0.000 NA
ATOM      4  N   UNL     1       4.051   5.991  17.690  0.00  0.00    +0.000 N 
ATOM      5  C   UNL     1       2.670   6.144  18.023  0.00  0.00    +0.000 C 
ATOM      6  O   UNL     1       1.893   5.221  17.786  0.00  0.00    +0.000 OA
ATOM      7  C   UNL     1       4.730   4.870  17.197  0.00  0.00    +0.000 A 
ATOM      8  C   UNL     1       4.162   3.500  17.086  0.00  0.00    +0.000 C 
ATOM      9  C   UNL     1       6.008   5.287  16.859  0.00  0.00    +0.000 A 
ATOM     10  C   UNL     1       7.097   4.519  16.201  0.00  0.00    +0.000 C 
ENDROOT
BRANCH   5  11
ATOM     11  C   UNL     1       2.216   7.452  18.609  0.00  0.00    +0.000 C 
ATOM     12  C   UNL     1       1.900   8.468  17.772  0.00  0.00    +0.000 C 
BRANCH  12  13
ATOM     13  N   UNL     1       1.499   9.790  18.027  0.00  0.00    +0.000 N 
ATOM     14  C   UNL     1       2.391  10.954  17.944  0.00  0.00    +0.000 C 
ATOM     15  C   UNL     1       0.116  10.150  18.360  0.00  0.00    +0.000 C 
ENDBRANCH  12  13
BRANCH  11  16
ATOM     16  C   UNL     1       1.966   7.584  19.998  0.00  0.00    +0.000 C 
ATOM     17  N   UNL     1       1.690   7.721  21.121  0.00  0.00    +0.000 NA
ENDBRANCH  11  16
ENDBRANCH   5  11
TORSDOF 3
ENDMDL
MODEL 7
REMARK VINA RESULT:      -5.3      3.636      5.929
REMARK  Name = 
REMARK  8 active torsions:
REMARK  status: ('A' for Active; 'I' for Inactive)
REMARK    1  A    between atoms: C_1  and  C_2
REMARK    2  A    between atoms: C_5  and  C_7
REMARK    3  A    between atoms: C_7  and  C_8
REMARK    4  A    between atoms: C_10  and  N_11
REMARK    5  A    between atoms: N_11  and  C_12
REMARK    6  A    between atoms: N_11  and  C_13
REMARK    7  A    between atoms: C_14  and  C_15
REMARK    8  A    between atoms: C_16  and  C_17
REMARK                            x       y       z     vdW  Elec       q    Type
REMARK                         _______ _______ _______ _____ _____    ______ ____
ROOT
ATOM      1  C   UNL     1       0.149   8.763  22.455  0.00  0.00    +0.000 C 
ATOM      2  C   UNL     1       0.716   8.748  21.080  0.00  0.00    +0.000 A 
ATOM      3  N   UNL     1       1.453   7.722  20.652  0.00  0.00    +0.000 NA
ATOM      4  N   UNL     1       1.911   8.076  19.419  0.00  0.00    +0.000 N 
ATOM      5  C   UNL     1       2.691   7.162  18.645  0.00  0.00    +0.000 C 
ATOM      6  O   UNL     1       2.962   7.448  17.481  0.00  0.00    +0.000 OA
ATOM      7  C   UNL     1       1.454   9.358  19.091  0.00  0.00    +0.000 A 
ATOM      8  C   UNL     1       1.858  10.132  17.887  0.00  0.00    +0.000 C 
ATOM      9  C   UNL     1       0.586   9.749  20.098  0.00  0.00    +0.000 A 
ATOM     10  C   UNL     1      -0.248  10.976  20.188  0.00  0.00    +0.000 C 
ENDROOT
BRANCH   5  11
ATOM     11  C   UNL     1       3.108   5.864  19.278  0.00  0.00    +0.000 C 
ATOM     12  C   UNL     1       2.159   4.942  19.566  0.00  0.00    +0.000 C 
BRANCH  12  13
ATOM     13  N   UNL     1       2.244   3.686  20.187  0.00  0.00    +0.000 N 
ATOM     14  C   UNL     1       2.482   2.426  19.471  0.00  0.00    +0.000 C 
ATOM     15  C   UNL     1       2.152   3.510  21.641  0.00  0.00    +0.000 C 
ENDBRANCH  12  13
BRANCH  11  16
ATOM     16  C   UNL     1       4.478   5.531  19.431  0.00  0.00    +0.000 C 
ATOM     17  N   UNL     1       5.580   5.185  19.573  0.00  0.00    +0.000 NA
ENDBRANCH  11  16
ENDBRANCH   5  11
TORSDOF 3
ENDMDL
MODEL 8
REMARK VINA RESULT:      -5.3      2.012      3.013
REMARK  Name = 
REMARK  8 active torsions:
REMARK  status: ('A' for Active; 'I' for Inactive)
REMARK    1  A    between atoms: C_1  and  C_2
REMARK    2  A    between atoms: C_5  and  C_7
REMARK    3  A    between atoms: C_7  and  C_8
REMARK    4  A    between atoms: C_10  and  N_11
REMARK    5  A    between atoms: N_11  and  C_12
REMARK    6  A    between atoms: N_11  and  C_13
REMARK    7  A    between atoms: C_14  and  C_15
REMARK    8  A    between atoms: C_16  and  C_17
REMARK                            x       y       z     vdW  Elec       q    Type
REMARK                         _______ _______ _______ _____ _____    ______ ____
ROOT
ATOM      1  C   UNL     1       2.097   8.932  17.918  0.00  0.00    +0.000 C 
ATOM      2  C   UNL     1       2.635   7.675  18.501  0.00  0.00    +0.000 A 
ATOM      3  N   UNL     1       3.600   6.991  17.886  0.00  0.00    +0.000 NA
ATOM      4  N   UNL     1       3.770   5.847  18.607  0.00  0.00    +0.000 N 
ATOM      5  C   UNL     1       4.787   4.909  18.250  0.00  0.00    +0.000 C 
ATOM      6  O   UNL     1       5.017   3.964  19.003  0.00  0.00    +0.000 OA
ATOM      7  C   UNL     1       2.875   5.826  19.683  0.00  0.00    +0.000 A 
ATOM      8  C   UNL     1       2.672   4.680  20.609  0.00  0.00    +0.000 C 
ATOM      9  C   UNL     1       2.225   7.050  19.694  0.00  0.00    +0.000 A 
ATOM     10  C   UNL     1       1.253   7.581  20.685  0.00  0.00    +0.000 C 
ENDROOT
BRANCH   5  11
ATOM     11  C   UNL     1       5.566   5.144  16.985  0.00  0.00    +0.000 C 
ATOM     12  C   UNL     1       5.323   4.355  15.912  0.00  0.00    +0.000 C 
BRANCH  12  13
ATOM     13  N   UNL     1       5.915   4.312  14.640  0.00  0.00    +0.000 N 
ATOM     14  C   UNL     1       5.206   3.929  13.412  0.00  0.00    +0.000 C 
ATOM     15  C   UNL     1       7.310   4.699  14.399  0.00  0.00    +0.000 C 
ENDBRANCH  12  13
BRANCH  11  16
ATOM     16  C   UNL     1       6.424   6.265  16.853  0.00  0.00    +0.000 C 
ATOM     17  N   UNL     1       7.135   7.186  16.823  0.00  0.00    +0.000 NA
ENDBRANCH  11  16
ENDBRANCH   5  11
TORSDOF 3
ENDMDL
MODEL 9
REMARK VINA RESULT:      -5.3      1.876      2.858
REMARK  Name = 
REMARK  8 active torsions:
REMARK  status: ('A' for Active; 'I' for Inactive)
REMARK    1  A    between atoms: C_1  and  C_2
REMARK    2  A    between atoms: C_5  and  C_7
REMARK    3  A    between atoms: C_7  and  C_8
REMARK    4  A    between atoms: C_10  and  N_11
REMARK    5  A    between atoms: N_11  and  C_12
REMARK    6  A    between atoms: N_11  and  C_13
REMARK    7  A    between atoms: C_14  and  C_15
REMARK    8  A    between atoms: C_16  and  C_17
REMARK                            x       y       z     vdW  Elec       q    Type
REMARK                         _______ _______ _______ _____ _____    ______ ____
ROOT
ATOM      1  C   UNL     1       2.640   8.436  17.844  0.00  0.00    +0.000 C 
ATOM      2  C   UNL     1       2.978   7.165  18.536  0.00  0.00    +0.000 A 
ATOM      3  N   UNL     1       3.915   6.348  18.054  0.00  0.00    +0.000 NA
ATOM      4  N   UNL     1       3.888   5.236  18.841  0.00  0.00    +0.000 N 
ATOM      5  C   UNL     1       4.823   4.177  18.633  0.00  0.00    +0.000 C 
ATOM      6  O   UNL     1       4.875   3.258  19.449  0.00  0.00    +0.000 OA
ATOM      7  C   UNL     1       2.897   5.372  19.822  0.00  0.00    +0.000 A 
ATOM      8  C   UNL     1       2.482   4.309  20.776  0.00  0.00    +0.000 C 
ATOM      9  C   UNL     1       2.390   6.656  19.710  0.00  0.00    +0.000 A 
ATOM     10  C   UNL     1       1.392   7.343  20.572  0.00  0.00    +0.000 C 
ENDROOT
BRANCH   5  11
ATOM     11  C   UNL     1       5.740   4.255  17.444  0.00  0.00    +0.000 C 
ATOM     12  C   UNL     1       5.199   4.382  16.209  0.00  0.00    +0.000 C 
BRANCH  12  13
ATOM     13  N   UNL     1       5.792   4.433  14.937  0.00  0.00    +0.000 N 
ATOM     14  C   UNL     1       5.260   3.750  13.751  0.00  0.00    +0.000 C 
ATOM     15  C   UNL     1       6.995   5.224  14.652  0.00  0.00    +0.000 C 
ENDBRANCH  12  13
BRANCH  11  16
ATOM     16  C   UNL     1       7.145   4.357  17.608  0.00  0.00    +0.000 C 
ATOM     17  N   UNL     1       8.287   4.435  17.822  0.00  0.00    +0.000 NA
ENDBRANCH  11  16
ENDBRANCH   5  11
TORSDOF 3
ENDMDL
