MODEL 1
REMARK VINA RESULT:      -7.9      0.000      0.000
REMARK  Name = 
REMARK  5 active torsions:
REMARK  status: ('A' for Active; 'I' for Inactive)
REMARK    1  A    between atoms: C_1  and  O_2
REMARK    2  A    between atoms: O_2  and  C_3
REMARK    3  A    between atoms: N_10  and  N_11
REMARK    4  A    between atoms: C_15  and  S_16
REMARK    5  A    between atoms: S_16  and  C_17
REMARK                            x       y       z     vdW  Elec       q    Type
REMARK                         _______ _______ _______ _____ _____    ______ ____
ROOT
ATOM      1  C   UNL     1       5.548   5.374  18.208  0.00  0.00    +0.000 A 
ATOM      2  C   UNL     1       5.731   6.277  17.146  0.00  0.00    +0.000 A 
ATOM      3  C   UNL     1       4.800   7.294  16.903  0.00  0.00    +0.000 A 
ATOM      4  C   UNL     1       3.676   7.396  17.721  0.00  0.00    +0.000 A 
ATOM      5  C   UNL     1       3.476   6.531  18.772  0.00  0.00    +0.000 A 
ATOM      6  C   UNL     1       4.409   5.504  19.039  0.00  0.00    +0.000 A 
ATOM      7  C   UNL     1       2.208   6.894  19.425  0.00  0.00    +0.000 C 
ATOM      8  N   UNL     1       1.653   6.289  20.430  0.00  0.00    +0.000 NA
ATOM      9  C   UNL     1       1.556   8.044  18.676  0.00  0.00    +0.000 C 
ATOM     10  C   UNL     1       2.604   8.430  17.604  0.00  0.00    +0.000 C 
ENDROOT
BRANCH   8  11
ATOM     11  N   UNL     1       2.273   5.235  21.064  0.00  0.00    +0.000 NA
ATOM     12  C   UNL     1       1.816   4.025  21.070  0.00  0.00    +0.000 C 
ATOM     13  N   UNL     1       0.623   3.672  20.390  0.00  0.00    +0.000 N 
ATOM     14  N   UNL     1       2.543   3.029  21.770  0.00  0.00    +0.000 N 
ATOM     15  H   UNL     1       0.080   4.364  19.855  0.00  0.00    +0.000 HD
ATOM     16  H   UNL     1       0.284   2.698  20.422  0.00  0.00    +0.000 HD
ATOM     17  H   UNL     1       3.411   3.267  22.273  0.00  0.00    +0.000 HD
ATOM     18  H   UNL     1       2.215   2.052  21.785  0.00  0.00    +0.000 HD
ENDBRANCH   8  11
BRANCH   1  20
ATOM     19  C   UNL     1       7.785   4.413  17.896  0.00  0.00    +0.000 C 
ATOM     20  O   UNL     1       6.493   4.408  18.381  0.00  0.00    +0.000 OA
ENDBRANCH   1  20
BRANCH   9  21
ATOM     21  S   UNL     1       1.155   9.469  19.763  0.00  0.00    +0.000 S 
BRANCH  21  22
ATOM     22  C   UNL     1      -0.401   9.966  18.979  0.00  0.00    +0.000 A 
ATOM     23  N   UNL     1      -0.753   9.612  17.716  0.00  0.00    +0.000 NA
ATOM     24  C   UNL     1      -1.919  10.209  17.340  0.00  0.00    +0.000 A 
ATOM     25  C   UNL     1      -2.536  10.039  16.095  0.00  0.00    +0.000 A 
ATOM     26  C   UNL     1      -3.737  10.725  15.832  0.00  0.00    +0.000 A 
ATOM     27  C   UNL     1      -4.303  11.571  16.807  0.00  0.00    +0.000 A 
ATOM     28  C   UNL     1      -3.675  11.737  18.051  0.00  0.00    +0.000 A 
ATOM     29  C   UNL     1      -2.487  11.043  18.290  0.00  0.00    +0.000 A 
ATOM     30  S   UNL     1      -1.514  11.047  19.664  0.00  0.00    +0.000 S 
ENDBRANCH  21  22
ENDBRANCH   9  21
TORSDOF 4
ENDMDL
MODEL 2
REMARK VINA RESULT:      -7.6      2.728      3.442
REMARK  Name = 
REMARK  5 active torsions:
REMARK  status: ('A' for Active; 'I' for Inactive)
REMARK    1  A    between atoms: C_1  and  O_2
REMARK    2  A    between atoms: O_2  and  C_3
REMARK    3  A    between atoms: N_10  and  N_11
REMARK    4  A    between atoms: C_15  and  S_16
REMARK    5  A    between atoms: S_16  and  C_17
REMARK                            x       y       z     vdW  Elec       q    Type
REMARK                         _______ _______ _______ _____ _____    ______ ____
ROOT
ATOM      1  C   UNL     1       5.569   4.626  15.612  0.00  0.00    +0.000 A 
ATOM      2  C   UNL     1       5.799   6.004  15.458  0.00  0.00    +0.000 A 
ATOM      3  C   UNL     1       5.072   6.939  16.204  0.00  0.00    +0.000 A 
ATOM      4  C   UNL     1       4.103   6.489  17.099  0.00  0.00    +0.000 A 
ATOM      5  C   UNL     1       3.863   5.147  17.276  0.00  0.00    +0.000 A 
ATOM      6  C   UNL     1       4.592   4.187  16.538  0.00  0.00    +0.000 A 
ATOM      7  C   UNL     1       2.786   5.004  18.269  0.00  0.00    +0.000 C 
ATOM      8  N   UNL     1       2.249   3.895  18.675  0.00  0.00    +0.000 NA
ATOM      9  C   UNL     1       2.295   6.378  18.694  0.00  0.00    +0.000 C 
ATOM     10  C   UNL     1       3.259   7.355  17.977  0.00  0.00    +0.000 C 
ENDROOT
BRANCH   8  11
ATOM     11  N   UNL     1       2.714   2.672  18.245  0.00  0.00    +0.000 NA
ATOM     12  C   UNL     1       3.540   1.936  18.917  0.00  0.00    +0.000 C 
ATOM     13  N   UNL     1       4.027   2.329  20.190  0.00  0.00    +0.000 N 
ATOM     14  N   UNL     1       3.955   0.700  18.361  0.00  0.00    +0.000 N 
ATOM     15  H   UNL     1       3.732   3.209  20.634  0.00  0.00    +0.000 HD
ATOM     16  H   UNL     1       4.689   1.720  20.695  0.00  0.00    +0.000 HD
ATOM     17  H   UNL     1       3.614   0.400  17.434  0.00  0.00    +0.000 HD
ATOM     18  H   UNL     1       4.600   0.083  18.874  0.00  0.00    +0.000 HD
ENDBRANCH   8  11
BRANCH   1  20
ATOM     19  C   UNL     1       6.279   3.650  13.475  0.00  0.00    +0.000 C 
ATOM     20  O   UNL     1       6.311   3.776  14.848  0.00  0.00    +0.000 OA
ENDBRANCH   1  20
BRANCH   9  21
ATOM     21  S   UNL     1       2.330   6.618  20.514  0.00  0.00    +0.000 S 
BRANCH  21  22
ATOM     22  C   UNL     1       1.425   8.185  20.589  0.00  0.00    +0.000 A 
ATOM     23  N   UNL     1       1.083   8.909  19.493  0.00  0.00    +0.000 NA
ATOM     24  C   UNL     1       0.505  10.094  19.840  0.00  0.00    +0.000 A 
ATOM     25  C   UNL     1       0.046  11.054  18.929  0.00  0.00    +0.000 A 
ATOM     26  C   UNL     1      -0.523  12.242  19.425  0.00  0.00    +0.000 A 
ATOM     27  C   UNL     1      -0.624  12.460  20.814  0.00  0.00    +0.000 A 
ATOM     28  C   UNL     1      -0.158  11.492  21.718  0.00  0.00    +0.000 A 
ATOM     29  C   UNL     1       0.398  10.319  21.203  0.00  0.00    +0.000 A 
ATOM     30  S   UNL     1       1.040   8.999  22.027  0.00  0.00    +0.000 S 
ENDBRANCH  21  22
ENDBRANCH   9  21
TORSDOF 4
ENDMDL
MODEL 3
REMARK VINA RESULT:      -7.5      2.821      3.693
REMARK  Name = 
REMARK  5 active torsions:
REMARK  status: ('A' for Active; 'I' for Inactive)
REMARK    1  A    between atoms: C_1  and  O_2
REMARK    2  A    between atoms: O_2  and  C_3
REMARK    3  A    between atoms: N_10  and  N_11
REMARK    4  A    between atoms: C_15  and  S_16
REMARK    5  A    between atoms: S_16  and  C_17
REMARK                            x       y       z     vdW  Elec       q    Type
REMARK                         _______ _______ _______ _____ _____    ______ ____
ROOT
ATOM      1  C   UNL     1       5.442   4.623  15.661  0.00  0.00    +0.000 A 
ATOM      2  C   UNL     1       5.682   5.999  15.505  0.00  0.00    +0.000 A 
ATOM      3  C   UNL     1       4.985   6.940  16.272  0.00  0.00    +0.000 A 
ATOM      4  C   UNL     1       4.035   6.497  17.191  0.00  0.00    +0.000 A 
ATOM      5  C   UNL     1       3.785   5.157  17.371  0.00  0.00    +0.000 A 
ATOM      6  C   UNL     1       4.485   4.192  16.612  0.00  0.00    +0.000 A 
ATOM      7  C   UNL     1       2.733   5.023  18.392  0.00  0.00    +0.000 C 
ATOM      8  N   UNL     1       2.195   3.918  18.808  0.00  0.00    +0.000 NA
ATOM      9  C   UNL     1       2.268   6.401  18.832  0.00  0.00    +0.000 C 
ATOM     10  C   UNL     1       3.222   7.369  18.092  0.00  0.00    +0.000 C 
ENDROOT
BRANCH   8  11
ATOM     11  N   UNL     1       2.637   2.692  18.364  0.00  0.00    +0.000 NA
ATOM     12  C   UNL     1       3.518   1.974  18.982  0.00  0.00    +0.000 C 
ATOM     13  N   UNL     1       4.099   2.392  20.206  0.00  0.00    +0.000 N 
ATOM     14  N   UNL     1       3.900   0.732  18.415  0.00  0.00    +0.000 N 
ATOM     15  H   UNL     1       3.832   3.278  20.657  0.00  0.00    +0.000 HD
ATOM     16  H   UNL     1       4.804   1.797  20.668  0.00  0.00    +0.000 HD
ATOM     17  H   UNL     1       3.491   0.413  17.523  0.00  0.00    +0.000 HD
ATOM     18  H   UNL     1       4.589   0.128  18.887  0.00  0.00    +0.000 HD
ENDBRANCH   8  11
BRANCH   1  20
ATOM     19  C   UNL     1       6.355   3.860  13.516  0.00  0.00    +0.000 C 
ATOM     20  O   UNL     1       6.155   3.768  14.877  0.00  0.00    +0.000 OA
ENDBRANCH   1  20
BRANCH   9  21
ATOM     21  S   UNL     1       2.353   6.636  20.651  0.00  0.00    +0.000 S 
BRANCH  21  22
ATOM     22  C   UNL     1       1.408   8.178  20.760  0.00  0.00    +0.000 A 
ATOM     23  N   UNL     1       0.870   8.650  21.914  0.00  0.00    +0.000 NA
ATOM     24  C   UNL     1       0.123   9.768  21.693  0.00  0.00    +0.000 A 
ATOM     25  C   UNL     1      -0.557  10.482  22.687  0.00  0.00    +0.000 A 
ATOM     26  C   UNL     1      -1.304  11.618  22.318  0.00  0.00    +0.000 A 
ATOM     27  C   UNL     1      -1.367  12.023  20.970  0.00  0.00    +0.000 A 
ATOM     28  C   UNL     1      -0.683  11.297  19.980  0.00  0.00    +0.000 A 
ATOM     29  C   UNL     1       0.054  10.178  20.371  0.00  0.00    +0.000 A 
ATOM     30  S   UNL     1       0.958   9.120  19.423  0.00  0.00    +0.000 S 
ENDBRANCH  21  22
ENDBRANCH   9  21
TORSDOF 4
ENDMDL
MODEL 4
REMARK VINA RESULT:      -7.2      3.372      4.745
REMARK  Name = 
REMARK  5 active torsions:
REMARK  status: ('A' for Active; 'I' for Inactive)
REMARK    1  A    between atoms: C_1  and  O_2
REMARK    2  A    between atoms: O_2  and  C_3
REMARK    3  A    between atoms: N_10  and  N_11
REMARK    4  A    between atoms: C_15  and  S_16
REMARK    5  A    between atoms: S_16  and  C_17
REMARK                            x       y       z     vdW  Elec       q    Type
REMARK                         _______ _______ _______ _____ _____    ______ ____
ROOT
ATOM      1  C   UNL     1       2.942   2.614  18.626  0.00  0.00    +0.000 A 
ATOM      2  C   UNL     1       1.846   2.744  19.496  0.00  0.00    +0.000 A 
ATOM      3  C   UNL     1       1.381   4.009  19.879  0.00  0.00    +0.000 A 
ATOM      4  C   UNL     1       2.027   5.144  19.394  0.00  0.00    +0.000 A 
ATOM      5  C   UNL     1       3.097   5.047  18.535  0.00  0.00    +0.000 A 
ATOM      6  C   UNL     1       3.574   3.780  18.130  0.00  0.00    +0.000 A 
ATOM      7  C   UNL     1       3.555   6.410  18.221  0.00  0.00    +0.000 C 
ATOM      8  N   UNL     1       4.566   6.735  17.476  0.00  0.00    +0.000 NA
ATOM      9  C   UNL     1       2.726   7.420  18.996  0.00  0.00    +0.000 C 
ATOM     10  C   UNL     1       1.645   6.558  19.693  0.00  0.00    +0.000 C 
ENDROOT
BRANCH   8  11
ATOM     11  N   UNL     1       5.301   5.781  16.809  0.00  0.00    +0.000 NA
ATOM     12  C   UNL     1       6.568   5.885  16.566  0.00  0.00    +0.000 C 
ATOM     13  N   UNL     1       7.323   7.006  16.994  0.00  0.00    +0.000 N 
ATOM     14  N   UNL     1       7.211   4.837  15.858  0.00  0.00    +0.000 N 
ATOM     15  H   UNL     1       6.894   7.775  17.527  0.00  0.00    +0.000 HD
ATOM     16  H   UNL     1       8.330   7.058  16.777  0.00  0.00    +0.000 HD
ATOM     17  H   UNL     1       6.677   4.016  15.535  0.00  0.00    +0.000 HD
ATOM     18  H   UNL     1       8.221   4.880  15.659  0.00  0.00    +0.000 HD
ENDBRANCH   8  11
BRANCH   1  20
ATOM     19  C   UNL     1       4.467   0.696  18.751  0.00  0.00    +0.000 C 
ATOM     20  O   UNL     1       3.340   1.352  18.301  0.00  0.00    +0.000 OA
ENDBRANCH   1  20
BRANCH   9  21
ATOM     21  S   UNL     1       1.968   8.700  17.919  0.00  0.00    +0.000 S 
BRANCH  21  22
ATOM     22  C   UNL     1       1.062   9.613  19.194  0.00  0.00    +0.000 A 
ATOM     23  N   UNL     1       0.935   9.187  20.478  0.00  0.00    +0.000 NA
ATOM     24  C   UNL     1       0.116  10.007  21.195  0.00  0.00    +0.000 A 
ATOM     25  C   UNL     1      -0.207   9.827  22.545  0.00  0.00    +0.000 A 
ATOM     26  C   UNL     1      -1.077  10.746  23.164  0.00  0.00    +0.000 A 
ATOM     27  C   UNL     1      -1.613  11.825  22.432  0.00  0.00    +0.000 A 
ATOM     28  C   UNL     1      -1.284  11.994  21.077  0.00  0.00    +0.000 A 
ATOM     29  C   UNL     1      -0.416  11.072  20.487  0.00  0.00    +0.000 A 
ATOM     30  S   UNL     1       0.147  11.011  18.902  0.00  0.00    +0.000 S 
ENDBRANCH  21  22
ENDBRANCH   9  21
TORSDOF 4
ENDMDL
MODEL 5
REMARK VINA RESULT:      -7.2      3.441      4.734
REMARK  Name = 
REMARK  5 active torsions:
REMARK  status: ('A' for Active; 'I' for Inactive)
REMARK    1  A    between atoms: C_1  and  O_2
REMARK    2  A    between atoms: O_2  and  C_3
REMARK    3  A    between atoms: N_10  and  N_11
REMARK    4  A    between atoms: C_15  and  S_16
REMARK    5  A    between atoms: S_16  and  C_17
REMARK                            x       y       z     vdW  Elec       q    Type
REMARK                         _______ _______ _______ _____ _____    ______ ____
ROOT
ATOM      1  C   UNL     1       3.277   3.269  19.619  0.00  0.00    +0.000 A 
ATOM      2  C   UNL     1       2.423   3.467  20.717  0.00  0.00    +0.000 A 
ATOM      3  C   UNL     1       1.895   4.734  20.995  0.00  0.00    +0.000 A 
ATOM      4  C   UNL     1       2.236   5.806  20.173  0.00  0.00    +0.000 A 
ATOM      5  C   UNL     1       3.064   5.640  19.088  0.00  0.00    +0.000 A 
ATOM      6  C   UNL     1       3.599   4.368  18.786  0.00  0.00    +0.000 A 
ATOM      7  C   UNL     1       3.235   6.951  18.441  0.00  0.00    +0.000 C 
ATOM      8  N   UNL     1       3.976   7.215  17.409  0.00  0.00    +0.000 NA
ATOM      9  C   UNL     1       2.491   8.014  19.232  0.00  0.00    +0.000 C 
ATOM     10  C   UNL     1       1.747   7.210  20.326  0.00  0.00    +0.000 C 
ENDROOT
BRANCH   8  11
ATOM     11  N   UNL     1       4.650   6.220  16.737  0.00  0.00    +0.000 NA
ATOM     12  C   UNL     1       5.922   6.241  16.501  0.00  0.00    +0.000 C 
ATOM     13  N   UNL     1       6.748   7.306  16.944  0.00  0.00    +0.000 N 
ATOM     14  N   UNL     1       6.499   5.160  15.788  0.00  0.00    +0.000 N 
ATOM     15  H   UNL     1       6.369   8.097  17.482  0.00  0.00    +0.000 HD
ATOM     16  H   UNL     1       7.758   7.292  16.733  0.00  0.00    +0.000 HD
ATOM     17  H   UNL     1       5.913   4.379  15.454  0.00  0.00    +0.000 HD
ATOM     18  H   UNL     1       7.510   5.137  15.594  0.00  0.00    +0.000 HD
ENDBRANCH   8  11
BRANCH   1  20
ATOM     19  C   UNL     1       3.657   1.262  18.258  0.00  0.00    +0.000 C 
ATOM     20  O   UNL     1       3.755   2.010  19.413  0.00  0.00    +0.000 OA
ENDBRANCH   1  20
BRANCH   9  21
ATOM     21  S   UNL     1       1.320   8.983  18.200  0.00  0.00    +0.000 S 
BRANCH  21  22
ATOM     22  C   UNL     1       0.882  10.248  19.420  0.00  0.00    +0.000 A 
ATOM     23  N   UNL     1       0.071  10.018  20.484  0.00  0.00    +0.000 NA
ATOM     24  C   UNL     1      -0.178  11.165  21.177  0.00  0.00    +0.000 A 
ATOM     25  C   UNL     1      -0.980  11.247  22.322  0.00  0.00    +0.000 A 
ATOM     26  C   UNL     1      -1.163  12.501  22.935  0.00  0.00    +0.000 A 
ATOM     27  C   UNL     1      -0.551  13.653  22.400  0.00  0.00    +0.000 A 
ATOM     28  C   UNL     1       0.249  13.560  21.250  0.00  0.00    +0.000 A 
ATOM     29  C   UNL     1       0.419  12.305  20.662  0.00  0.00    +0.000 A 
ATOM     30  S   UNL     1       1.301  11.887  19.290  0.00  0.00    +0.000 S 
ENDBRANCH  21  22
ENDBRANCH   9  21
TORSDOF 4
ENDMDL
MODEL 6
REMARK VINA RESULT:      -7.2      3.656      8.126
REMARK  Name = 
REMARK  5 active torsions:
REMARK  status: ('A' for Active; 'I' for Inactive)
REMARK    1  A    between atoms: C_1  and  O_2
REMARK    2  A    between atoms: O_2  and  C_3
REMARK    3  A    between atoms: N_10  and  N_11
REMARK    4  A    between atoms: C_15  and  S_16
REMARK    5  A    between atoms: S_16  and  C_17
REMARK                            x       y       z     vdW  Elec       q    Type
REMARK                         _______ _______ _______ _____ _____    ______ ____
ROOT
ATOM      1  C   UNL     1      -2.732  11.232  18.048  0.00  0.00    +0.000 A 
ATOM      2  C   UNL     1      -2.498  10.454  16.901  0.00  0.00    +0.000 A 
ATOM      3  C   UNL     1      -1.375   9.622  16.816  0.00  0.00    +0.000 A 
ATOM      4  C   UNL     1      -0.477   9.582  17.881  0.00  0.00    +0.000 A 
ATOM      5  C   UNL     1      -0.684  10.327  19.018  0.00  0.00    +0.000 A 
ATOM      6  C   UNL     1      -1.817  11.165  19.127  0.00  0.00    +0.000 A 
ATOM      7  C   UNL     1       0.436  10.073  19.939  0.00  0.00    +0.000 C 
ATOM      8  N   UNL     1       0.623  10.620  21.100  0.00  0.00    +0.000 NA
ATOM      9  C   UNL     1       1.435   9.134  19.283  0.00  0.00    +0.000 C 
ATOM     10  C   UNL     1       0.754   8.739  17.950  0.00  0.00    +0.000 C 
ENDROOT
BRANCH   8  11
ATOM     11  N   UNL     1      -0.302  11.482  21.645  0.00  0.00    +0.000 NA
ATOM     12  C   UNL     1      -1.007  11.216  22.696  0.00  0.00    +0.000 C 
ATOM     13  N   UNL     1      -0.867   9.994  23.401  0.00  0.00    +0.000 N 
ATOM     14  N   UNL     1      -1.937  12.184  23.153  0.00  0.00    +0.000 N 
ATOM     15  H   UNL     1      -0.188   9.276  23.111  0.00  0.00    +0.000 HD
ATOM     16  H   UNL     1      -1.451   9.812  24.232  0.00  0.00    +0.000 HD
ATOM     17  H   UNL     1      -2.055  13.077  22.651  0.00  0.00    +0.000 HD
ATOM     18  H   UNL     1      -2.505  12.011  23.995  0.00  0.00    +0.000 HD
ENDBRANCH   8  11
BRANCH   1  20
ATOM     19  C   UNL     1      -4.969  11.877  17.275  0.00  0.00    +0.000 C 
ATOM     20  O   UNL     1      -3.843  12.019  18.058  0.00  0.00    +0.000 OA
ENDBRANCH   1  20
BRANCH   9  21
ATOM     21  S   UNL     1       1.808   7.658  20.309  0.00  0.00    +0.000 S 
BRANCH  21  22
ATOM     22  C   UNL     1       2.796   6.740  19.099  0.00  0.00    +0.000 A 
ATOM     23  N   UNL     1       3.595   7.334  18.176  0.00  0.00    +0.000 NA
ATOM     24  C   UNL     1       4.137   6.418  17.325  0.00  0.00    +0.000 A 
ATOM     25  C   UNL     1       5.003   6.726  16.268  0.00  0.00    +0.000 A 
ATOM     26  C   UNL     1       5.483   5.681  15.457  0.00  0.00    +0.000 A 
ATOM     27  C   UNL     1       5.095   4.349  15.705  0.00  0.00    +0.000 A 
ATOM     28  C   UNL     1       4.224   4.052  16.766  0.00  0.00    +0.000 A 
ATOM     29  C   UNL     1       3.764   5.105  17.559  0.00  0.00    +0.000 A 
ATOM     30  S   UNL     1       2.719   5.060  18.878  0.00  0.00    +0.000 S 
ENDBRANCH  21  22
ENDBRANCH   9  21
TORSDOF 4
ENDMDL
MODEL 7
REMARK VINA RESULT:      -7.2      3.653      5.028
REMARK  Name = 
REMARK  5 active torsions:
REMARK  status: ('A' for Active; 'I' for Inactive)
REMARK    1  A    between atoms: C_1  and  O_2
REMARK    2  A    between atoms: O_2  and  C_3
REMARK    3  A    between atoms: N_10  and  N_11
REMARK    4  A    between atoms: C_15  and  S_16
REMARK    5  A    between atoms: S_16  and  C_17
REMARK                            x       y       z     vdW  Elec       q    Type
REMARK                         _______ _______ _______ _____ _____    ______ ____
ROOT
ATOM      1  C   UNL     1       3.303   3.479  19.644  0.00  0.00    +0.000 A 
ATOM      2  C   UNL     1       2.427   3.729  20.714  0.00  0.00    +0.000 A 
ATOM      3  C   UNL     1       1.877   5.002  20.907  0.00  0.00    +0.000 A 
ATOM      4  C   UNL     1       2.219   6.030  20.030  0.00  0.00    +0.000 A 
ATOM      5  C   UNL     1       3.068   5.812  18.970  0.00  0.00    +0.000 A 
ATOM      6  C   UNL     1       3.625   4.532  18.753  0.00  0.00    +0.000 A 
ATOM      7  C   UNL     1       3.233   7.085  18.250  0.00  0.00    +0.000 C 
ATOM      8  N   UNL     1       3.988   7.298  17.217  0.00  0.00    +0.000 NA
ATOM      9  C   UNL     1       2.460   8.182  18.964  0.00  0.00    +0.000 C 
ATOM     10  C   UNL     1       1.708   7.433  20.091  0.00  0.00    +0.000 C 
ENDROOT
BRANCH   8  11
ATOM     11  N   UNL     1       4.687   6.275  16.616  0.00  0.00    +0.000 NA
ATOM     12  C   UNL     1       5.977   6.242  16.517  0.00  0.00    +0.000 C 
ATOM     13  N   UNL     1       6.795   7.271  17.049  0.00  0.00    +0.000 N 
ATOM     14  N   UNL     1       6.580   5.137  15.864  0.00  0.00    +0.000 N 
ATOM     15  H   UNL     1       6.394   8.078  17.547  0.00  0.00    +0.000 HD
ATOM     16  H   UNL     1       7.820   7.215  16.946  0.00  0.00    +0.000 HD
ATOM     17  H   UNL     1       6.000   4.381  15.467  0.00  0.00    +0.000 HD
ATOM     18  H   UNL     1       7.604   5.072  15.779  0.00  0.00    +0.000 HD
ENDBRANCH   8  11
BRANCH   1  20
ATOM     19  C   UNL     1       3.624   1.354  18.460  0.00  0.00    +0.000 C 
ATOM     20  O   UNL     1       3.801   2.218  19.521  0.00  0.00    +0.000 OA
ENDBRANCH   1  20
BRANCH   9  21
ATOM     21  S   UNL     1       1.295   9.071  17.857  0.00  0.00    +0.000 S 
BRANCH  21  22
ATOM     22  C   UNL     1       1.519  10.739  18.528  0.00  0.00    +0.000 A 
ATOM     23  N   UNL     1       2.359  11.660  17.988  0.00  0.00    +0.000 NA
ATOM     24  C   UNL     1       2.415  12.789  18.750  0.00  0.00    +0.000 A 
ATOM     25  C   UNL     1       3.193  13.914  18.452  0.00  0.00    +0.000 A 
ATOM     26  C   UNL     1       3.166  15.011  19.334  0.00  0.00    +0.000 A 
ATOM     27  C   UNL     1       2.371  14.973  20.497  0.00  0.00    +0.000 A 
ATOM     28  C   UNL     1       1.597  13.838  20.787  0.00  0.00    +0.000 A 
ATOM     29  C   UNL     1       1.637  12.764  19.896  0.00  0.00    +0.000 A 
ATOM     30  S   UNL     1       0.834  11.287  19.980  0.00  0.00    +0.000 S 
ENDBRANCH  21  22
ENDBRANCH   9  21
TORSDOF 4
ENDMDL
MODEL 8
REMARK VINA RESULT:      -7.1      2.310      2.941
REMARK  Name = 
REMARK  5 active torsions:
REMARK  status: ('A' for Active; 'I' for Inactive)
REMARK    1  A    between atoms: C_1  and  O_2
REMARK    2  A    between atoms: O_2  and  C_3
REMARK    3  A    between atoms: N_10  and  N_11
REMARK    4  A    between atoms: C_15  and  S_16
REMARK    5  A    between atoms: S_16  and  C_17
REMARK                            x       y       z     vdW  Elec       q    Type
REMARK                         _______ _______ _______ _____ _____    ______ ____
ROOT
ATOM      1  C   UNL     1       5.157   4.755  16.188  0.00  0.00    +0.000 A 
ATOM      2  C   UNL     1       5.674   6.044  15.975  0.00  0.00    +0.000 A 
ATOM      3  C   UNL     1       5.079   7.163  16.572  0.00  0.00    +0.000 A 
ATOM      4  C   UNL     1       3.954   6.986  17.375  0.00  0.00    +0.000 A 
ATOM      5  C   UNL     1       3.431   5.735  17.606  0.00  0.00    +0.000 A 
ATOM      6  C   UNL     1       4.023   4.594  17.020  0.00  0.00    +0.000 A 
ATOM      7  C   UNL     1       2.253   5.888  18.475  0.00  0.00    +0.000 C 
ATOM      8  N   UNL     1       1.465   4.943  18.885  0.00  0.00    +0.000 NA
ATOM      9  C   UNL     1       2.009   7.362  18.752  0.00  0.00    +0.000 C 
ATOM     10  C   UNL     1       3.217   8.070  18.092  0.00  0.00    +0.000 C 
ENDROOT
BRANCH   8  11
ATOM     11  N   UNL     1       1.716   3.621  18.590  0.00  0.00    +0.000 NA
ATOM     12  C   UNL     1       1.457   2.640  19.393  0.00  0.00    +0.000 C 
ATOM     13  N   UNL     1       0.862   2.849  20.663  0.00  0.00    +0.000 N 
ATOM     14  N   UNL     1       1.773   1.322  18.977  0.00  0.00    +0.000 N 
ATOM     15  H   UNL     1       0.600   3.789  20.989  0.00  0.00    +0.000 HD
ATOM     16  H   UNL     1       0.676   2.043  21.280  0.00  0.00    +0.000 HD
ATOM     17  H   UNL     1       2.210   1.151  18.059  0.00  0.00    +0.000 HD
ATOM     18  H   UNL     1       1.569   0.516  19.585  0.00  0.00    +0.000 HD
ENDBRANCH   8  11
BRANCH   1  20
ATOM     19  C   UNL     1       6.313   3.703  14.296  0.00  0.00    +0.000 C 
ATOM     20  O   UNL     1       5.786   3.716  15.571  0.00  0.00    +0.000 OA
ENDBRANCH   1  20
BRANCH   9  21
ATOM     21  S   UNL     1       1.907   7.745  20.546  0.00  0.00    +0.000 S 
BRANCH  21  22
ATOM     22  C   UNL     1       0.844   9.208  20.441  0.00  0.00    +0.000 A 
ATOM     23  N   UNL     1       0.302   9.823  21.524  0.00  0.00    +0.000 NA
ATOM     24  C   UNL     1      -0.539  10.830  21.155  0.00  0.00    +0.000 A 
ATOM     25  C   UNL     1      -1.246  11.645  22.047  0.00  0.00    +0.000 A 
ATOM     26  C   UNL     1      -2.092  12.644  21.530  0.00  0.00    +0.000 A 
ATOM     27  C   UNL     1      -2.226  12.815  20.137  0.00  0.00    +0.000 A 
ATOM     28  C   UNL     1      -1.514  11.990  19.251  0.00  0.00    +0.000 A 
ATOM     29  C   UNL     1      -0.678  11.009  19.788  0.00  0.00    +0.000 A 
ATOM     30  S   UNL     1       0.282   9.881  18.989  0.00  0.00    +0.000 S 
ENDBRANCH  21  22
ENDBRANCH   9  21
TORSDOF 4
ENDMDL
MODEL 9
REMARK VINA RESULT:      -7.1      3.320      4.688
REMARK  Name = 
REMARK  5 active torsions:
REMARK  status: ('A' for Active; 'I' for Inactive)
REMARK    1  A    between atoms: C_1  and  O_2
REMARK    2  A    between atoms: O_2  and  C_3
REMARK    3  A    between atoms: N_10  and  N_11
REMARK    4  A    between atoms: C_15  and  S_16
REMARK    5  A    between atoms: S_16  and  C_17
REMARK                            x       y       z     vdW  Elec       q    Type
REMARK                         _______ _______ _______ _____ _____    ______ ____
ROOT
ATOM      1  C   UNL     1       3.335   3.473  19.675  0.00  0.00    +0.000 A 
ATOM      2  C   UNL     1       2.442   3.734  20.728  0.00  0.00    +0.000 A 
ATOM      3  C   UNL     1       1.884   5.007  20.897  0.00  0.00    +0.000 A 
ATOM      4  C   UNL     1       2.235   6.024  20.011  0.00  0.00    +0.000 A 
ATOM      5  C   UNL     1       3.100   5.796  18.967  0.00  0.00    +0.000 A 
ATOM      6  C   UNL     1       3.667   4.516  18.776  0.00  0.00    +0.000 A 
ATOM      7  C   UNL     1       3.272   7.061  18.233  0.00  0.00    +0.000 C 
ATOM      8  N   UNL     1       4.042   7.263  17.209  0.00  0.00    +0.000 NA
ATOM      9  C   UNL     1       2.483   8.163  18.921  0.00  0.00    +0.000 C 
ATOM     10  C   UNL     1       1.717   7.426  20.046  0.00  0.00    +0.000 C 
ENDROOT
BRANCH   8  11
ATOM     11  N   UNL     1       4.754   6.236  16.632  0.00  0.00    +0.000 NA
ATOM     12  C   UNL     1       6.039   6.244  16.480  0.00  0.00    +0.000 C 
ATOM     13  N   UNL     1       6.838   7.328  16.922  0.00  0.00    +0.000 N 
ATOM     14  N   UNL     1       6.656   5.128  15.860  0.00  0.00    +0.000 N 
ATOM     15  H   UNL     1       6.428   8.146  17.394  0.00  0.00    +0.000 HD
ATOM     16  H   UNL     1       7.860   7.304  16.778  0.00  0.00    +0.000 HD
ATOM     17  H   UNL     1       6.090   4.332  15.528  0.00  0.00    +0.000 HD
ATOM     18  H   UNL     1       7.678   5.095  15.734  0.00  0.00    +0.000 HD
ENDBRANCH   8  11
BRANCH   1  20
ATOM     19  C   UNL     1       3.632   1.311  18.553  0.00  0.00    +0.000 C 
ATOM     20  O   UNL     1       3.841   2.212  19.577  0.00  0.00    +0.000 OA
ENDBRANCH   1  20
BRANCH   9  21
ATOM     21  S   UNL     1       1.332   9.032  17.785  0.00  0.00    +0.000 S 
BRANCH  21  22
ATOM     22  C   UNL     1       0.779  10.334  18.918  0.00  0.00    +0.000 A 
ATOM     23  N   UNL     1       1.541  11.403  19.264  0.00  0.00    +0.000 NA
ATOM     24  C   UNL     1       0.926  12.167  20.210  0.00  0.00    +0.000 A 
ATOM     25  C   UNL     1       1.463  13.334  20.766  0.00  0.00    +0.000 A 
ATOM     26  C   UNL     1       0.723  14.023  21.746  0.00  0.00    +0.000 A 
ATOM     27  C   UNL     1      -0.534  13.540  22.161  0.00  0.00    +0.000 A 
ATOM     28  C   UNL     1      -1.062  12.366  21.599  0.00  0.00    +0.000 A 
ATOM     29  C   UNL     1      -0.312  11.703  20.626  0.00  0.00    +0.000 A 
ATOM     30  S   UNL     1      -0.676  10.288  19.790  0.00  0.00    +0.000 S 
ENDBRANCH  21  22
ENDBRANCH   9  21
TORSDOF 4
ENDMDL
