MODEL 1
REMARK VINA RESULT:      -7.1      0.000      0.000
REMARK  Name = 
REMARK  5 active torsions:
REMARK  status: ('A' for Active; 'I' for Inactive)
REMARK    1  A    between atoms: C_2  and  C_3
REMARK    2  A    between atoms: C_6  and  C_7
REMARK    3  A    between atoms: N_9  and  C_10
REMARK    4  A    between atoms: C_16  and  N_17
REMARK    5  A    between atoms: N_17  and  C_18
REMARK                            x       y       z     vdW  Elec       q    Type
REMARK                         _______ _______ _______ _____ _____    ______ ____
ROOT
ATOM      1  C   UNL     1       2.190   7.122  19.564  0.00  0.00    +0.000 C 
ATOM      2  O   UNL     1       2.392   7.117  18.351  0.00  0.00    +0.000 OA
ATOM      3  N   UNL     1       2.429   6.037  20.397  0.00  0.00    +0.000 N 
ATOM      4  H   UNL     1       1.912   6.055  21.278  0.00  0.00    +0.000 HD
ENDROOT
BRANCH   3   5
ATOM      5  C   UNL     1       2.802   4.742  19.902  0.00  0.00    +0.000 A 
ATOM      6  C   UNL     1       1.833   3.722  19.970  0.00  0.00    +0.000 A 
ATOM      7  F   UNL     1       0.612   3.989  20.465  0.00  0.00    +0.000 F 
ATOM      8  C   UNL     1       2.065   2.452  19.440  0.00  0.00    +0.000 A 
ATOM      9  C   UNL     1       3.304   2.158  18.890  0.00  0.00    +0.000 A 
ATOM     10  C   UNL     1       4.311   3.133  18.872  0.00  0.00    +0.000 A 
ATOM     11  C   UNL     1       4.080   4.441  19.348  0.00  0.00    +0.000 A 
BRANCH  11  12
ATOM     12  N   UNL     1       5.096   5.443  19.251  0.00  0.00    +0.000 N 
ATOM     13  H   UNL     1       4.618   6.275  18.881  0.00  0.00    +0.000 HD
BRANCH  12  14
ATOM     14  C   UNL     1       6.434   5.201  18.665  0.00  0.00    +0.000 C 
ATOM     15  C   UNL     1       7.161   6.355  18.014  0.00  0.00    +0.000 C 
ATOM     16  C   UNL     1       7.675   5.775  19.299  0.00  0.00    +0.000 C 
ENDBRANCH  12  14
ENDBRANCH  11  12
ENDBRANCH   3   5
BRANCH   1  20
ATOM     17  C   UNL     1       0.318  10.578  21.339  0.00  0.00    +0.000 A 
ATOM     18  C   UNL     1       0.710   9.526  22.167  0.00  0.00    +0.000 A 
ATOM     19  C   UNL     1       1.376   8.412  21.611  0.00  0.00    +0.000 A 
ATOM     20  C   UNL     1       1.603   8.365  20.230  0.00  0.00    +0.000 A 
ATOM     21  N   UNL     1       1.266   9.399  19.413  0.00  0.00    +0.000 NA
ATOM     22  C   UNL     1       0.639  10.471  19.993  0.00  0.00    +0.000 A 
BRANCH  17  24
ATOM     23  N   UNL     1      -0.935  12.660  22.265  0.00  0.00    +0.000 NA
ATOM     24  C   UNL     1      -0.383  11.737  21.855  0.00  0.00    +0.000 C 
ENDBRANCH  17  24
ENDBRANCH   1  20
TORSDOF 5
ENDMDL
MODEL 2
REMARK VINA RESULT:      -7.0      2.212      3.588
REMARK  Name = 
REMARK  5 active torsions:
REMARK  status: ('A' for Active; 'I' for Inactive)
REMARK    1  A    between atoms: C_2  and  C_3
REMARK    2  A    between atoms: C_6  and  C_7
REMARK    3  A    between atoms: N_9  and  C_10
REMARK    4  A    between atoms: C_16  and  N_17
REMARK    5  A    between atoms: N_17  and  C_18
REMARK                            x       y       z     vdW  Elec       q    Type
REMARK                         _______ _______ _______ _____ _____    ______ ____
ROOT
ATOM      1  C   UNL     1       2.388   7.905  18.427  0.00  0.00    +0.000 C 
ATOM      2  O   UNL     1       2.183   8.247  17.264  0.00  0.00    +0.000 OA
ATOM      3  N   UNL     1       3.202   6.843  18.795  0.00  0.00    +0.000 N 
ATOM      4  H   UNL     1       3.014   6.466  19.725  0.00  0.00    +0.000 HD
ENDROOT
BRANCH   3   5
ATOM      5  C   UNL     1       3.776   5.936  17.841  0.00  0.00    +0.000 A 
ATOM      6  C   UNL     1       4.924   6.371  17.148  0.00  0.00    +0.000 A 
ATOM      7  F   UNL     1       5.445   7.583  17.408  0.00  0.00    +0.000 F 
ATOM      8  C   UNL     1       5.607   5.537  16.263  0.00  0.00    +0.000 A 
ATOM      9  C   UNL     1       5.113   4.268  16.002  0.00  0.00    +0.000 A 
ATOM     10  C   UNL     1       3.934   3.834  16.625  0.00  0.00    +0.000 A 
ATOM     11  C   UNL     1       3.259   4.637  17.567  0.00  0.00    +0.000 A 
BRANCH  11  12
ATOM     12  N   UNL     1       2.101   4.147  18.248  0.00  0.00    +0.000 N 
ATOM     13  H   UNL     1       1.385   4.873  18.118  0.00  0.00    +0.000 HD
BRANCH  12  14
ATOM     14  C   UNL     1       2.135   3.566  19.611  0.00  0.00    +0.000 C 
ATOM     15  C   UNL     1       1.422   4.294  20.728  0.00  0.00    +0.000 C 
ATOM     16  C   UNL     1       0.896   2.978  20.234  0.00  0.00    +0.000 C 
ENDBRANCH  12  14
ENDBRANCH  11  12
ENDBRANCH   3   5
BRANCH   1  20
ATOM     17  C   UNL     1       0.211   9.968  21.528  0.00  0.00    +0.000 A 
ATOM     18  C   UNL     1       0.760   8.717  21.809  0.00  0.00    +0.000 A 
ATOM     19  C   UNL     1       1.524   8.053  20.825  0.00  0.00    +0.000 A 
ATOM     20  C   UNL     1       1.692   8.645  19.568  0.00  0.00    +0.000 A 
ATOM     21  N   UNL     1       1.201   9.884  19.288  0.00  0.00    +0.000 NA
ATOM     22  C   UNL     1       0.482  10.505  20.277  0.00  0.00    +0.000 A 
BRANCH  17  24
ATOM     23  N   UNL     1      -1.230  11.255  23.267  0.00  0.00    +0.000 NA
ATOM     24  C   UNL     1      -0.594  10.686  22.496  0.00  0.00    +0.000 C 
ENDBRANCH  17  24
ENDBRANCH   1  20
TORSDOF 5
ENDMDL
MODEL 3
REMARK VINA RESULT:      -7.0      0.789      1.194
REMARK  Name = 
REMARK  5 active torsions:
REMARK  status: ('A' for Active; 'I' for Inactive)
REMARK    1  A    between atoms: C_2  and  C_3
REMARK    2  A    between atoms: C_6  and  C_7
REMARK    3  A    between atoms: N_9  and  C_10
REMARK    4  A    between atoms: C_16  and  N_17
REMARK    5  A    between atoms: N_17  and  C_18
REMARK                            x       y       z     vdW  Elec       q    Type
REMARK                         _______ _______ _______ _____ _____    ______ ____
ROOT
ATOM      1  C   UNL     1       2.392   6.908  19.225  0.00  0.00    +0.000 C 
ATOM      2  O   UNL     1       2.720   6.841  18.042  0.00  0.00    +0.000 OA
ATOM      3  N   UNL     1       2.540   5.869  20.134  0.00  0.00    +0.000 N 
ATOM      4  H   UNL     1       1.934   5.932  20.954  0.00  0.00    +0.000 HD
ENDROOT
BRANCH   3   5
ATOM      5  C   UNL     1       2.959   4.551  19.748  0.00  0.00    +0.000 A 
ATOM      6  C   UNL     1       1.979   3.537  19.746  0.00  0.00    +0.000 A 
ATOM      7  F   UNL     1       0.710   3.832  20.077  0.00  0.00    +0.000 F 
ATOM      8  C   UNL     1       2.262   2.244  19.308  0.00  0.00    +0.000 A 
ATOM      9  C   UNL     1       3.556   1.920  18.926  0.00  0.00    +0.000 A 
ATOM     10  C   UNL     1       4.566   2.890  18.984  0.00  0.00    +0.000 A 
ATOM     11  C   UNL     1       4.292   4.219  19.367  0.00  0.00    +0.000 A 
BRANCH  11  12
ATOM     12  N   UNL     1       5.320   5.213  19.347  0.00  0.00    +0.000 N 
ATOM     13  H   UNL     1       4.908   6.036  19.805  0.00  0.00    +0.000 HD
BRANCH  12  14
ATOM     14  C   UNL     1       6.132   5.528  18.149  0.00  0.00    +0.000 C 
ATOM     15  C   UNL     1       7.412   6.314  18.326  0.00  0.00    +0.000 C 
ATOM     16  C   UNL     1       7.469   4.870  17.922  0.00  0.00    +0.000 C 
ENDBRANCH  12  14
ENDBRANCH  11  12
ENDBRANCH   3   5
BRANCH   1  20
ATOM     17  C   UNL     1       0.770  10.561  20.846  0.00  0.00    +0.000 A 
ATOM     18  C   UNL     1       0.954  10.460  19.468  0.00  0.00    +0.000 A 
ATOM     19  C   UNL     1       1.431   9.252  18.914  0.00  0.00    +0.000 A 
ATOM     20  C   UNL     1       1.742   8.182  19.761  0.00  0.00    +0.000 A 
ATOM     21  N   UNL     1       1.528   8.245  21.103  0.00  0.00    +0.000 NA
ATOM     22  C   UNL     1       1.046   9.429  21.601  0.00  0.00    +0.000 A 
BRANCH  17  24
ATOM     23  N   UNL     1      -0.079  12.752  21.959  0.00  0.00    +0.000 NA
ATOM     24  C   UNL     1       0.299  11.782  21.468  0.00  0.00    +0.000 C 
ENDBRANCH  17  24
ENDBRANCH   1  20
TORSDOF 5
ENDMDL
MODEL 4
REMARK VINA RESULT:      -6.9      3.494      7.090
REMARK  Name = 
REMARK  5 active torsions:
REMARK  status: ('A' for Active; 'I' for Inactive)
REMARK    1  A    between atoms: C_2  and  C_3
REMARK    2  A    between atoms: C_6  and  C_7
REMARK    3  A    between atoms: N_9  and  C_10
REMARK    4  A    between atoms: C_16  and  N_17
REMARK    5  A    between atoms: N_17  and  C_18
REMARK                            x       y       z     vdW  Elec       q    Type
REMARK                         _______ _______ _______ _____ _____    ______ ____
ROOT
ATOM      1  C   UNL     1       4.095   3.645  17.204  0.00  0.00    +0.000 C 
ATOM      2  O   UNL     1       3.039   3.200  16.755  0.00  0.00    +0.000 OA
ATOM      3  N   UNL     1       4.352   3.822  18.556  0.00  0.00    +0.000 N 
ATOM      4  H   UNL     1       5.092   4.495  18.763  0.00  0.00    +0.000 HD
ENDROOT
BRANCH   3   5
ATOM      5  C   UNL     1       3.353   3.639  19.570  0.00  0.00    +0.000 A 
ATOM      6  C   UNL     1       3.549   2.587  20.487  0.00  0.00    +0.000 A 
ATOM      7  F   UNL     1       4.649   1.819  20.400  0.00  0.00    +0.000 F 
ATOM      8  C   UNL     1       2.682   2.376  21.559  0.00  0.00    +0.000 A 
ATOM      9  C   UNL     1       1.557   3.176  21.695  0.00  0.00    +0.000 A 
ATOM     10  C   UNL     1       1.299   4.185  20.758  0.00  0.00    +0.000 A 
ATOM     11  C   UNL     1       2.192   4.455  19.700  0.00  0.00    +0.000 A 
BRANCH  11  12
ATOM     12  N   UNL     1       1.950   5.539  18.798  0.00  0.00    +0.000 N 
ATOM     13  H   UNL     1       1.974   5.119  17.860  0.00  0.00    +0.000 HD
BRANCH  12  14
ATOM     14  C   UNL     1       2.630   6.852  18.893  0.00  0.00    +0.000 C 
ATOM     15  C   UNL     1       3.493   7.307  17.738  0.00  0.00    +0.000 C 
ATOM     16  C   UNL     1       2.201   8.011  18.031  0.00  0.00    +0.000 C 
ENDBRANCH  12  14
ENDBRANCH  11  12
ENDBRANCH   3   5
BRANCH   1  20
ATOM     17  C   UNL     1       7.066   5.034  14.404  0.00  0.00    +0.000 A 
ATOM     18  C   UNL     1       7.253   5.287  15.762  0.00  0.00    +0.000 A 
ATOM     19  C   UNL     1       6.320   4.790  16.699  0.00  0.00    +0.000 A 
ATOM     20  C   UNL     1       5.202   4.079  16.245  0.00  0.00    +0.000 A 
ATOM     21  N   UNL     1       5.025   3.785  14.929  0.00  0.00    +0.000 NA
ATOM     22  C   UNL     1       5.963   4.268  14.053  0.00  0.00    +0.000 A 
BRANCH  17  24
ATOM     23  N   UNL     1       8.712   5.935  12.603  0.00  0.00    +0.000 NA
ATOM     24  C   UNL     1       7.984   5.534  13.399  0.00  0.00    +0.000 C 
ENDBRANCH  17  24
ENDBRANCH   1  20
TORSDOF 5
ENDMDL
MODEL 5
REMARK VINA RESULT:      -6.9      2.292      3.859
REMARK  Name = 
REMARK  5 active torsions:
REMARK  status: ('A' for Active; 'I' for Inactive)
REMARK    1  A    between atoms: C_2  and  C_3
REMARK    2  A    between atoms: C_6  and  C_7
REMARK    3  A    between atoms: N_9  and  C_10
REMARK    4  A    between atoms: C_16  and  N_17
REMARK    5  A    between atoms: N_17  and  C_18
REMARK                            x       y       z     vdW  Elec       q    Type
REMARK                         _______ _______ _______ _____ _____    ______ ____
ROOT
ATOM      1  C   UNL     1       2.616   7.851  18.204  0.00  0.00    +0.000 C 
ATOM      2  O   UNL     1       2.618   8.268  17.047  0.00  0.00    +0.000 OA
ATOM      3  N   UNL     1       3.349   6.754  18.637  0.00  0.00    +0.000 N 
ATOM      4  H   UNL     1       3.000   6.322  19.495  0.00  0.00    +0.000 HD
ENDROOT
BRANCH   3   5
ATOM      5  C   UNL     1       4.075   5.900  17.741  0.00  0.00    +0.000 A 
ATOM      6  C   UNL     1       5.345   6.342  17.317  0.00  0.00    +0.000 A 
ATOM      7  F   UNL     1       5.834   7.509  17.769  0.00  0.00    +0.000 F 
ATOM      8  C   UNL     1       6.167   5.551  16.514  0.00  0.00    +0.000 A 
ATOM      9  C   UNL     1       5.703   4.324  16.062  0.00  0.00    +0.000 A 
ATOM     10  C   UNL     1       4.417   3.890  16.410  0.00  0.00    +0.000 A 
ATOM     11  C   UNL     1       3.591   4.646  17.268  0.00  0.00    +0.000 A 
BRANCH  11  12
ATOM     12  N   UNL     1       2.312   4.151  17.674  0.00  0.00    +0.000 N 
ATOM     13  H   UNL     1       1.706   4.981  17.723  0.00  0.00    +0.000 HD
BRANCH  12  14
ATOM     14  C   UNL     1       2.119   3.192  18.786  0.00  0.00    +0.000 C 
ATOM     15  C   UNL     1       1.064   3.491  19.828  0.00  0.00    +0.000 C 
ATOM     16  C   UNL     1       0.874   2.347  18.875  0.00  0.00    +0.000 C 
ENDBRANCH  12  14
ENDBRANCH  11  12
ENDBRANCH   3   5
BRANCH   1  20
ATOM     17  C   UNL     1       0.336   9.828  21.285  0.00  0.00    +0.000 A 
ATOM     18  C   UNL     1       0.353  10.378  20.004  0.00  0.00    +0.000 A 
ATOM     19  C   UNL     1       1.047   9.713  18.969  0.00  0.00    +0.000 A 
ATOM     20  C   UNL     1       1.736   8.529  19.253  0.00  0.00    +0.000 A 
ATOM     21  N   UNL     1       1.696   7.954  20.486  0.00  0.00    +0.000 NA
ATOM     22  C   UNL     1       0.995   8.619  21.459  0.00  0.00    +0.000 A 
BRANCH  17  24
ATOM     23  N   UNL     1      -0.894  10.991  23.259  0.00  0.00    +0.000 NA
ATOM     24  C   UNL     1      -0.347  10.477  22.387  0.00  0.00    +0.000 C 
ENDBRANCH  17  24
ENDBRANCH   1  20
TORSDOF 5
ENDMDL
MODEL 6
REMARK VINA RESULT:      -6.8      1.661      2.057
REMARK  Name = 
REMARK  5 active torsions:
REMARK  status: ('A' for Active; 'I' for Inactive)
REMARK    1  A    between atoms: C_2  and  C_3
REMARK    2  A    between atoms: C_6  and  C_7
REMARK    3  A    between atoms: N_9  and  C_10
REMARK    4  A    between atoms: C_16  and  N_17
REMARK    5  A    between atoms: N_17  and  C_18
REMARK                            x       y       z     vdW  Elec       q    Type
REMARK                         _______ _______ _______ _____ _____    ______ ____
ROOT
ATOM      1  C   UNL     1       2.348   7.863  18.343  0.00  0.00    +0.000 C 
ATOM      2  O   UNL     1       2.514   8.195  17.170  0.00  0.00    +0.000 OA
ATOM      3  N   UNL     1       2.791   6.663  18.883  0.00  0.00    +0.000 N 
ATOM      4  H   UNL     1       2.303   6.373  19.732  0.00  0.00    +0.000 HD
ENDROOT
BRANCH   3   5
ATOM      5  C   UNL     1       3.365   5.616  18.086  0.00  0.00    +0.000 A 
ATOM      6  C   UNL     1       2.610   4.436  17.931  0.00  0.00    +0.000 A 
ATOM      7  F   UNL     1       1.398   4.336  18.502  0.00  0.00    +0.000 F 
ATOM      8  C   UNL     1       3.039   3.393  17.110  0.00  0.00    +0.000 A 
ATOM      9  C   UNL     1       4.271   3.483  16.479  0.00  0.00    +0.000 A 
ATOM     10  C   UNL     1       5.074   4.615  16.670  0.00  0.00    +0.000 A 
ATOM     11  C   UNL     1       4.636   5.707  17.448  0.00  0.00    +0.000 A 
BRANCH  11  12
ATOM     12  N   UNL     1       5.437   6.885  17.569  0.00  0.00    +0.000 N 
ATOM     13  H   UNL     1       4.887   7.632  17.125  0.00  0.00    +0.000 HD
BRANCH  12  14
ATOM     14  C   UNL     1       6.884   6.929  17.256  0.00  0.00    +0.000 C 
ATOM     15  C   UNL     1       7.658   8.188  17.574  0.00  0.00    +0.000 C 
ATOM     16  C   UNL     1       7.917   6.932  18.354  0.00  0.00    +0.000 C 
ENDBRANCH  12  14
ENDBRANCH  11  12
ENDBRANCH   3   5
BRANCH   1  20
ATOM     17  C   UNL     1       0.379  10.499  21.132  0.00  0.00    +0.000 A 
ATOM     18  C   UNL     1       0.499  10.897  19.801  0.00  0.00    +0.000 A 
ATOM     19  C   UNL     1       1.090  10.023  18.862  0.00  0.00    +0.000 A 
ATOM     20  C   UNL     1       1.576   8.781  19.289  0.00  0.00    +0.000 A 
ATOM     21  N   UNL     1       1.430   8.357  20.574  0.00  0.00    +0.000 NA
ATOM     22  C   UNL     1       0.834   9.226  21.451  0.00  0.00    +0.000 A 
BRANCH  17  24
ATOM     23  N   UNL     1      -0.664  12.053  22.937  0.00  0.00    +0.000 NA
ATOM     24  C   UNL     1      -0.204  11.363  22.139  0.00  0.00    +0.000 C 
ENDBRANCH  17  24
ENDBRANCH   1  20
TORSDOF 5
ENDMDL
MODEL 7
REMARK VINA RESULT:      -6.8      1.695      1.928
REMARK  Name = 
REMARK  5 active torsions:
REMARK  status: ('A' for Active; 'I' for Inactive)
REMARK    1  A    between atoms: C_2  and  C_3
REMARK    2  A    between atoms: C_6  and  C_7
REMARK    3  A    between atoms: N_9  and  C_10
REMARK    4  A    between atoms: C_16  and  N_17
REMARK    5  A    between atoms: N_17  and  C_18
REMARK                            x       y       z     vdW  Elec       q    Type
REMARK                         _______ _______ _______ _____ _____    ______ ____
ROOT
ATOM      1  C   UNL     1       2.032   6.602  19.602  0.00  0.00    +0.000 C 
ATOM      2  O   UNL     1       1.801   6.056  20.680  0.00  0.00    +0.000 OA
ATOM      3  N   UNL     1       2.529   5.941  18.486  0.00  0.00    +0.000 N 
ATOM      4  H   UNL     1       2.986   6.547  17.803  0.00  0.00    +0.000 HD
ENDROOT
BRANCH   3   5
ATOM      5  C   UNL     1       2.963   4.573  18.520  0.00  0.00    +0.000 A 
ATOM      6  C   UNL     1       2.037   3.593  18.110  0.00  0.00    +0.000 A 
ATOM      7  F   UNL     1       0.814   3.959  17.691  0.00  0.00    +0.000 F 
ATOM      8  C   UNL     1       2.386   2.245  18.026  0.00  0.00    +0.000 A 
ATOM      9  C   UNL     1       3.654   1.841  18.418  0.00  0.00    +0.000 A 
ATOM     10  C   UNL     1       4.572   2.786  18.896  0.00  0.00    +0.000 A 
ATOM     11  C   UNL     1       4.263   4.162  18.935  0.00  0.00    +0.000 A 
BRANCH  11  12
ATOM     12  N   UNL     1       5.239   5.118  19.354  0.00  0.00    +0.000 N 
ATOM     13  H   UNL     1       4.715   5.818  19.896  0.00  0.00    +0.000 HD
BRANCH  12  14
ATOM     14  C   UNL     1       6.264   5.694  18.451  0.00  0.00    +0.000 C 
ATOM     15  C   UNL     1       7.664   5.899  18.982  0.00  0.00    +0.000 C 
ATOM     16  C   UNL     1       7.404   4.854  17.937  0.00  0.00    +0.000 C 
ENDBRANCH  12  14
ENDBRANCH  11  12
ENDBRANCH   3   5
BRANCH   1  20
ATOM     17  C   UNL     1       1.233  10.798  19.010  0.00  0.00    +0.000 A 
ATOM     18  C   UNL     1       0.902  10.217  20.234  0.00  0.00    +0.000 A 
ATOM     19  C   UNL     1       1.209   8.858  20.466  0.00  0.00    +0.000 A 
ATOM     20  C   UNL     1       1.811   8.105  19.451  0.00  0.00    +0.000 A 
ATOM     21  N   UNL     1       2.180   8.665  18.266  0.00  0.00    +0.000 NA
ATOM     22  C   UNL     1       1.883   9.991  18.086  0.00  0.00    +0.000 A 
BRANCH  17  24
ATOM     23  N   UNL     1       0.682  13.284  18.483  0.00  0.00    +0.000 NA
ATOM     24  C   UNL     1       0.927  12.184  18.713  0.00  0.00    +0.000 C 
ENDBRANCH  17  24
ENDBRANCH   1  20
TORSDOF 5
ENDMDL
MODEL 8
REMARK VINA RESULT:      -6.7      2.388      3.631
REMARK  Name = 
REMARK  5 active torsions:
REMARK  status: ('A' for Active; 'I' for Inactive)
REMARK    1  A    between atoms: C_2  and  C_3
REMARK    2  A    between atoms: C_6  and  C_7
REMARK    3  A    between atoms: N_9  and  C_10
REMARK    4  A    between atoms: C_16  and  N_17
REMARK    5  A    between atoms: N_17  and  C_18
REMARK                            x       y       z     vdW  Elec       q    Type
REMARK                         _______ _______ _______ _____ _____    ______ ____
ROOT
ATOM      1  C   UNL     1       2.750   6.580  18.161  0.00  0.00    +0.000 C 
ATOM      2  O   UNL     1       2.131   5.547  17.910  0.00  0.00    +0.000 OA
ATOM      3  N   UNL     1       4.034   6.848  17.705  0.00  0.00    +0.000 N 
ATOM      4  H   UNL     1       4.541   7.547  18.250  0.00  0.00    +0.000 HD
ENDROOT
BRANCH   3   5
ATOM      5  C   UNL     1       4.831   5.878  17.008  0.00  0.00    +0.000 A 
ATOM      6  C   UNL     1       5.123   6.137  15.654  0.00  0.00    +0.000 A 
ATOM      7  F   UNL     1       4.676   7.264  15.075  0.00  0.00    +0.000 F 
ATOM      8  C   UNL     1       5.957   5.302  14.910  0.00  0.00    +0.000 A 
ATOM      9  C   UNL     1       6.463   4.148  15.492  0.00  0.00    +0.000 A 
ATOM     10  C   UNL     1       6.132   3.830  16.816  0.00  0.00    +0.000 A 
ATOM     11  C   UNL     1       5.338   4.688  17.606  0.00  0.00    +0.000 A 
BRANCH  11  12
ATOM     12  N   UNL     1       5.075   4.383  18.977  0.00  0.00    +0.000 N 
ATOM     13  H   UNL     1       5.909   4.702  19.489  0.00  0.00    +0.000 HD
BRANCH  12  14
ATOM     14  C   UNL     1       4.540   3.082  19.441  0.00  0.00    +0.000 C 
ATOM     15  C   UNL     1       3.185   3.050  20.109  0.00  0.00    +0.000 C 
ATOM     16  C   UNL     1       3.366   2.436  18.752  0.00  0.00    +0.000 C 
ENDBRANCH  12  14
ENDBRANCH  11  12
ENDBRANCH   3   5
BRANCH   1  20
ATOM     17  C   UNL     1       0.761   9.540  20.586  0.00  0.00    +0.000 A 
ATOM     18  C   UNL     1       1.196   8.360  21.188  0.00  0.00    +0.000 A 
ATOM     19  C   UNL     1       1.900   7.404  20.423  0.00  0.00    +0.000 A 
ATOM     20  C   UNL     1       2.121   7.642  19.061  0.00  0.00    +0.000 A 
ATOM     21  N   UNL     1       1.742   8.805  18.465  0.00  0.00    +0.000 NA
ATOM     22  C   UNL     1       1.079   9.716  19.247  0.00  0.00    +0.000 A 
BRANCH  17  24
ATOM     23  N   UNL     1      -0.570  11.345  21.902  0.00  0.00    +0.000 NA
ATOM     24  C   UNL     1       0.020  10.546  21.322  0.00  0.00    +0.000 C 
ENDBRANCH  17  24
ENDBRANCH   1  20
TORSDOF 5
ENDMDL
MODEL 9
REMARK VINA RESULT:      -6.7      1.780      2.199
REMARK  Name = 
REMARK  5 active torsions:
REMARK  status: ('A' for Active; 'I' for Inactive)
REMARK    1  A    between atoms: C_2  and  C_3
REMARK    2  A    between atoms: C_6  and  C_7
REMARK    3  A    between atoms: N_9  and  C_10
REMARK    4  A    between atoms: C_16  and  N_17
REMARK    5  A    between atoms: N_17  and  C_18
REMARK                            x       y       z     vdW  Elec       q    Type
REMARK                         _______ _______ _______ _____ _____    ______ ____
ROOT
ATOM      1  C   UNL     1       2.038   6.610  19.477  0.00  0.00    +0.000 C 
ATOM      2  O   UNL     1       1.834   6.163  20.605  0.00  0.00    +0.000 OA
ATOM      3  N   UNL     1       2.524   5.856  18.418  0.00  0.00    +0.000 N 
ATOM      4  H   UNL     1       2.960   6.402  17.673  0.00  0.00    +0.000 HD
ENDROOT
BRANCH   3   5
ATOM      5  C   UNL     1       2.979   4.502  18.569  0.00  0.00    +0.000 A 
ATOM      6  C   UNL     1       2.063   3.476  18.260  0.00  0.00    +0.000 A 
ATOM      7  F   UNL     1       0.830   3.787  17.825  0.00  0.00    +0.000 F 
ATOM      8  C   UNL     1       2.430   2.131  18.294  0.00  0.00    +0.000 A 
ATOM      9  C   UNL     1       3.708   1.782  18.705  0.00  0.00    +0.000 A 
ATOM     10  C   UNL     1       4.618   2.778  19.085  0.00  0.00    +0.000 A 
ATOM     11  C   UNL     1       4.289   4.147  19.004  0.00  0.00    +0.000 A 
BRANCH  11  12
ATOM     12  N   UNL     1       5.255   5.151  19.323  0.00  0.00    +0.000 N 
ATOM     13  H   UNL     1       4.727   5.890  19.806  0.00  0.00    +0.000 HD
BRANCH  12  14
ATOM     14  C   UNL     1       6.262   5.656  18.361  0.00  0.00    +0.000 C 
ATOM     15  C   UNL     1       7.678   5.878  18.841  0.00  0.00    +0.000 C 
ATOM     16  C   UNL     1       7.381   4.772  17.872  0.00  0.00    +0.000 C 
ENDBRANCH  12  14
ENDBRANCH  11  12
ENDBRANCH   3   5
BRANCH   1  20
ATOM     17  C   UNL     1       1.512  10.843  18.841  0.00  0.00    +0.000 A 
ATOM     18  C   UNL     1       2.081  10.076  17.825  0.00  0.00    +0.000 A 
ATOM     19  C   UNL     1       2.208   8.679  17.993  0.00  0.00    +0.000 A 
ATOM     20  C   UNL     1       1.792   8.090  19.192  0.00  0.00    +0.000 A 
ATOM     21  N   UNL     1       1.195   8.814  20.178  0.00  0.00    +0.000 NA
ATOM     22  C   UNL     1       1.072  10.164  19.969  0.00  0.00    +0.000 A 
BRANCH  17  24
ATOM     23  N   UNL     1       1.261  13.423  18.641  0.00  0.00    +0.000 NA
ATOM     24  C   UNL     1       1.373  12.281  18.727  0.00  0.00    +0.000 C 
ENDBRANCH  17  24
ENDBRANCH   1  20
TORSDOF 5
ENDMDL
