MODEL 1
REMARK VINA RESULT:      -8.9      0.000      0.000
REMARK  Name = 
REMARK  10 active torsions:
REMARK  status: ('A' for Active; 'I' for Inactive)
REMARK    1  A    between atoms: C_1  and  C_2
REMARK    2  A    between atoms: N_4  and  C_5
REMARK    3  A    between atoms: C_5  and  C_6
REMARK    4  A    between atoms: C_6  and  C_7
REMARK    5  A    between atoms: N_9  and  C_10
REMARK    6  A    between atoms: C_12  and  S_13
REMARK    7  A    between atoms: S_13  and  N_16
REMARK    8  A    between atoms: C_24  and  O_25
REMARK    9  A    between atoms: O_25  and  C_26
REMARK   10  A    between atoms: C_30  and  C_31
REMARK                            x       y       z     vdW  Elec       q    Type
REMARK                         _______ _______ _______ _____ _____    ______ ____
ROOT
ATOM      1  C   UNL     1       2.200   6.793  19.825  0.00  0.00    +0.000 A 
ATOM      2  C   UNL     1       1.611   8.018  20.183  0.00  0.00    +0.000 A 
ATOM      3  C   UNL     1       1.522   9.085  19.298  0.00  0.00    +0.000 A 
ATOM      4  C   UNL     1       2.097   8.980  18.034  0.00  0.00    +0.000 A 
ATOM      5  C   UNL     1       2.637   7.762  17.631  0.00  0.00    +0.000 A 
ATOM      6  C   UNL     1       2.686   6.660  18.486  0.00  0.00    +0.000 A 
ENDROOT
BRANCH   1   9
ATOM      7  C   UNL     1       1.502   4.571  20.711  0.00  0.00    +0.000 C 
ATOM      8  O   UNL     1       0.738   4.294  19.809  0.00  0.00    +0.000 OA
ATOM      9  N   UNL     1       2.262   5.746  20.802  0.00  0.00    +0.000 N 
ATOM     10  H   UNL     1       3.063   5.726  21.417  0.00  0.00    +0.000 HD
BRANCH   7  11
ATOM     11  C   UNL     1       1.737   3.568  21.836  0.00  0.00    +0.000 C 
BRANCH  11  12
ATOM     12  C   UNL     1       2.760   2.514  21.370  0.00  0.00    +0.000 C 
BRANCH  12  16
ATOM     13  C   UNL     1       3.740   1.950  17.742  0.00  0.00    +0.000 C 
ATOM     14  C   UNL     1       3.908   2.153  19.214  0.00  0.00    +0.000 C 
ATOM     15  O   UNL     1       5.037   2.189  19.741  0.00  0.00    +0.000 OA
ATOM     16  N   UNL     1       2.746   2.275  19.930  0.00  0.00    +0.000 N 
ATOM     17  H   UNL     1       1.872   2.396  19.420  0.00  0.00    +0.000 HD
ENDBRANCH  12  16
ENDBRANCH  11  12
ENDBRANCH   7  11
ENDBRANCH   1   9
BRANCH   3  18
ATOM     18  S   UNL     1       0.762  10.612  19.829  0.00  0.00    +0.000 S 
ATOM     19  O   UNL     1       0.588  10.514  21.269  0.00  0.00    +0.000 OA
ATOM     20  O   UNL     1       1.538  11.685  19.251  0.00  0.00    +0.000 OA
BRANCH  18  21
ATOM     21  N   UNL     1      -0.798  10.634  19.110  0.00  0.00    +0.000 NA
ATOM     22  C   UNL     1      -1.603  11.863  19.339  0.00  0.00    +0.000 C 
ATOM     23  C   UNL     1      -3.019  11.752  18.786  0.00  0.00    +0.000 C 
ATOM     24  C   UNL     1      -3.025  11.268  17.345  0.00  0.00    +0.000 C 
ATOM     25  C   UNL     1      -2.350   9.909  17.270  0.00  0.00    +0.000 C 
ATOM     26  C   UNL     1      -0.915   9.955  17.793  0.00  0.00    +0.000 C 
ENDBRANCH  18  21
ENDBRANCH   3  18
BRANCH   6  27
ATOM     27  O   UNL     1       3.248   5.565  17.868  0.00  0.00    +0.000 OA
BRANCH  27  28
ATOM     28  C   UNL     1       4.601   5.507  17.650  0.00  0.00    +0.000 A 
ATOM     29  C   UNL     1       5.477   5.518  18.727  0.00  0.00    +0.000 A 
ATOM     30  C   UNL     1       6.825   5.419  18.547  0.00  0.00    +0.000 A 
ATOM     31  C   UNL     1       7.321   5.169  17.257  0.00  0.00    +0.000 A 
ATOM     32  C   UNL     1       6.462   5.106  16.167  0.00  0.00    +0.000 A 
ATOM     33  C   UNL     1       6.987   4.656  14.827  0.00  0.00    +0.000 C 
ATOM     34  C   UNL     1       5.098   5.349  16.341  0.00  0.00    +0.000 A 
ENDBRANCH  27  28
ENDBRANCH   6  27
TORSDOF 8
ENDMDL
MODEL 2
REMARK VINA RESULT:      -8.8      0.317      1.212
REMARK  Name = 
REMARK  10 active torsions:
REMARK  status: ('A' for Active; 'I' for Inactive)
REMARK    1  A    between atoms: C_1  and  C_2
REMARK    2  A    between atoms: N_4  and  C_5
REMARK    3  A    between atoms: C_5  and  C_6
REMARK    4  A    between atoms: C_6  and  C_7
REMARK    5  A    between atoms: N_9  and  C_10
REMARK    6  A    between atoms: C_12  and  S_13
REMARK    7  A    between atoms: S_13  and  N_16
REMARK    8  A    between atoms: C_24  and  O_25
REMARK    9  A    between atoms: O_25  and  C_26
REMARK   10  A    between atoms: C_30  and  C_31
REMARK                            x       y       z     vdW  Elec       q    Type
REMARK                         _______ _______ _______ _____ _____    ______ ____
ROOT
ATOM      1  C   UNL     1       2.196   6.817  19.786  0.00  0.00    +0.000 A 
ATOM      2  C   UNL     1       1.641   8.063  20.126  0.00  0.00    +0.000 A 
ATOM      3  C   UNL     1       1.571   9.115  19.224  0.00  0.00    +0.000 A 
ATOM      4  C   UNL     1       2.133   8.975  17.958  0.00  0.00    +0.000 A 
ATOM      5  C   UNL     1       2.639   7.737  17.571  0.00  0.00    +0.000 A 
ATOM      6  C   UNL     1       2.668   6.649  18.445  0.00  0.00    +0.000 A 
ENDROOT
BRANCH   1   9
ATOM      7  C   UNL     1       1.508   4.594  20.677  0.00  0.00    +0.000 C 
ATOM      8  O   UNL     1       0.787   4.288  19.750  0.00  0.00    +0.000 OA
ATOM      9  N   UNL     1       2.241   5.786  20.780  0.00  0.00    +0.000 N 
ATOM     10  H   UNL     1       3.017   5.791  21.426  0.00  0.00    +0.000 HD
BRANCH   7  11
ATOM     11  C   UNL     1       1.719   3.613  21.826  0.00  0.00    +0.000 C 
BRANCH  11  12
ATOM     12  C   UNL     1       2.725   2.530  21.389  0.00  0.00    +0.000 C 
BRANCH  12  16
ATOM     13  C   UNL     1       3.688   1.894  17.769  0.00  0.00    +0.000 C 
ATOM     14  C   UNL     1       3.864   2.145  19.232  0.00  0.00    +0.000 C 
ATOM     15  O   UNL     1       4.996   2.231  19.746  0.00  0.00    +0.000 OA
ATOM     16  N   UNL     1       2.705   2.249  19.957  0.00  0.00    +0.000 N 
ATOM     17  H   UNL     1       1.823   2.328  19.453  0.00  0.00    +0.000 HD
ENDBRANCH  12  16
ENDBRANCH  11  12
ENDBRANCH   7  11
ENDBRANCH   1   9
BRANCH   3  18
ATOM     18  S   UNL     1       0.853  10.670  19.735  0.00  0.00    +0.000 S 
ATOM     19  O   UNL     1       0.769  10.635  21.185  0.00  0.00    +0.000 OA
ATOM     20  O   UNL     1       1.596  11.711  19.063  0.00  0.00    +0.000 OA
BRANCH  18  21
ATOM     21  N   UNL     1      -0.749  10.673  19.114  0.00  0.00    +0.000 NA
ATOM     22  C   UNL     1      -1.554  11.891  19.396  0.00  0.00    +0.000 C 
ATOM     23  C   UNL     1      -3.000  11.762  18.931  0.00  0.00    +0.000 C 
ATOM     24  C   UNL     1      -3.089  11.281  17.493  0.00  0.00    +0.000 C 
ATOM     25  C   UNL     1      -2.403   9.931  17.372  0.00  0.00    +0.000 C 
ATOM     26  C   UNL     1      -0.938   9.995  17.805  0.00  0.00    +0.000 C 
ENDBRANCH  18  21
ENDBRANCH   3  18
BRANCH   6  27
ATOM     27  O   UNL     1       3.198   5.530  17.841  0.00  0.00    +0.000 OA
BRANCH  27  28
ATOM     28  C   UNL     1       4.536   5.463  17.553  0.00  0.00    +0.000 A 
ATOM     29  C   UNL     1       4.963   5.480  16.232  0.00  0.00    +0.000 A 
ATOM     30  C   UNL     1       6.288   5.458  15.914  0.00  0.00    +0.000 A 
ATOM     31  C   UNL     1       7.236   5.553  16.945  0.00  0.00    +0.000 A 
ATOM     32  C   UNL     1       6.836   5.586  18.275  0.00  0.00    +0.000 A 
ATOM     33  C   UNL     1       7.850   5.874  19.353  0.00  0.00    +0.000 C 
ATOM     34  C   UNL     1       5.483   5.467  18.597  0.00  0.00    +0.000 A 
ENDBRANCH  27  28
ENDBRANCH   6  27
TORSDOF 8
ENDMDL
MODEL 3
REMARK VINA RESULT:      -8.6      1.459      1.956
REMARK  Name = 
REMARK  10 active torsions:
REMARK  status: ('A' for Active; 'I' for Inactive)
REMARK    1  A    between atoms: C_1  and  C_2
REMARK    2  A    between atoms: N_4  and  C_5
REMARK    3  A    between atoms: C_5  and  C_6
REMARK    4  A    between atoms: C_6  and  C_7
REMARK    5  A    between atoms: N_9  and  C_10
REMARK    6  A    between atoms: C_12  and  S_13
REMARK    7  A    between atoms: S_13  and  N_16
REMARK    8  A    between atoms: C_24  and  O_25
REMARK    9  A    between atoms: O_25  and  C_26
REMARK   10  A    between atoms: C_30  and  C_31
REMARK                            x       y       z     vdW  Elec       q    Type
REMARK                         _______ _______ _______ _____ _____    ______ ____
ROOT
ATOM      1  C   UNL     1       2.183   6.873  20.010  0.00  0.00    +0.000 A 
ATOM      2  C   UNL     1       1.569   7.990  20.604  0.00  0.00    +0.000 A 
ATOM      3  C   UNL     1       1.261   9.137  19.885  0.00  0.00    +0.000 A 
ATOM      4  C   UNL     1       1.635   9.232  18.546  0.00  0.00    +0.000 A 
ATOM      5  C   UNL     1       2.192   8.123  17.916  0.00  0.00    +0.000 A 
ATOM      6  C   UNL     1       2.458   6.940  18.607  0.00  0.00    +0.000 A 
ENDROOT
BRANCH   1   9
ATOM      7  C   UNL     1       1.666   4.588  20.858  0.00  0.00    +0.000 C 
ATOM      8  O   UNL     1       0.660   4.419  20.202  0.00  0.00    +0.000 OA
ATOM      9  N   UNL     1       2.476   5.732  20.825  0.00  0.00    +0.000 N 
ATOM     10  H   UNL     1       3.421   5.634  21.171  0.00  0.00    +0.000 HD
BRANCH   7  11
ATOM     11  C   UNL     1       2.171   3.472  21.768  0.00  0.00    +0.000 C 
BRANCH  11  12
ATOM     12  C   UNL     1       2.050   2.124  21.031  0.00  0.00    +0.000 C 
BRANCH  12  16
ATOM     13  C   UNL     1       3.851   2.301  17.690  0.00  0.00    +0.000 C 
ATOM     14  C   UNL     1       3.671   2.180  19.170  0.00  0.00    +0.000 C 
ATOM     15  O   UNL     1       4.646   2.055  19.935  0.00  0.00    +0.000 OA
ATOM     16  N   UNL     1       2.373   2.197  19.609  0.00  0.00    +0.000 N 
ATOM     17  H   UNL     1       1.641   2.460  18.952  0.00  0.00    +0.000 HD
ENDBRANCH  12  16
ENDBRANCH  11  12
ENDBRANCH   7  11
ENDBRANCH   1   9
BRANCH   3  18
ATOM     18  S   UNL     1       0.484  10.517  20.713  0.00  0.00    +0.000 S 
ATOM     19  O   UNL     1      -0.942  10.238  20.741  0.00  0.00    +0.000 OA
ATOM     20  O   UNL     1       1.218  10.732  21.938  0.00  0.00    +0.000 OA
BRANCH  18  21
ATOM     21  N   UNL     1       0.736  11.877  19.694  0.00  0.00    +0.000 NA
ATOM     22  C   UNL     1      -0.490  12.573  19.224  0.00  0.00    +0.000 C 
ATOM     23  C   UNL     1      -0.191  13.682  18.221  0.00  0.00    +0.000 C 
ATOM     24  C   UNL     1       0.898  14.616  18.722  0.00  0.00    +0.000 C 
ATOM     25  C   UNL     1       2.165  13.818  18.979  0.00  0.00    +0.000 C 
ATOM     26  C   UNL     1       1.938  12.699  19.995  0.00  0.00    +0.000 C 
ENDBRANCH  18  21
ENDBRANCH   3  18
BRANCH   6  27
ATOM     27  O   UNL     1       2.994   5.979  17.778  0.00  0.00    +0.000 OA
BRANCH  27  28
ATOM     28  C   UNL     1       4.353   5.810  17.698  0.00  0.00    +0.000 A 
ATOM     29  C   UNL     1       5.100   5.634  18.854  0.00  0.00    +0.000 A 
ATOM     30  C   UNL     1       6.445   5.421  18.806  0.00  0.00    +0.000 A 
ATOM     31  C   UNL     1       7.060   5.246  17.555  0.00  0.00    +0.000 A 
ATOM     32  C   UNL     1       6.327   5.370  16.381  0.00  0.00    +0.000 A 
ATOM     33  C   UNL     1       6.959   4.997  15.064  0.00  0.00    +0.000 C 
ATOM     34  C   UNL     1       4.978   5.727  16.438  0.00  0.00    +0.000 A 
ENDBRANCH  27  28
ENDBRANCH   6  27
TORSDOF 8
ENDMDL
MODEL 4
REMARK VINA RESULT:      -8.4      1.676      2.261
REMARK  Name = 
REMARK  10 active torsions:
REMARK  status: ('A' for Active; 'I' for Inactive)
REMARK    1  A    between atoms: C_1  and  C_2
REMARK    2  A    between atoms: N_4  and  C_5
REMARK    3  A    between atoms: C_5  and  C_6
REMARK    4  A    between atoms: C_6  and  C_7
REMARK    5  A    between atoms: N_9  and  C_10
REMARK    6  A    between atoms: C_12  and  S_13
REMARK    7  A    between atoms: S_13  and  N_16
REMARK    8  A    between atoms: C_24  and  O_25
REMARK    9  A    between atoms: O_25  and  C_26
REMARK   10  A    between atoms: C_30  and  C_31
REMARK                            x       y       z     vdW  Elec       q    Type
REMARK                         _______ _______ _______ _____ _____    ______ ____
ROOT
ATOM      1  C   UNL     1       2.338   7.001  19.794  0.00  0.00    +0.000 A 
ATOM      2  C   UNL     1       1.647   8.057  20.413  0.00  0.00    +0.000 A 
ATOM      3  C   UNL     1       1.277   9.206  19.725  0.00  0.00    +0.000 A 
ATOM      4  C   UNL     1       1.661   9.367  18.396  0.00  0.00    +0.000 A 
ATOM      5  C   UNL     1       2.296   8.315  17.740  0.00  0.00    +0.000 A 
ATOM      6  C   UNL     1       2.627   7.130  18.398  0.00  0.00    +0.000 A 
ENDROOT
BRANCH   1   9
ATOM      7  C   UNL     1       1.798   4.808  20.847  0.00  0.00    +0.000 C 
ATOM      8  O   UNL     1       0.657   4.735  20.442  0.00  0.00    +0.000 OA
ATOM      9  N   UNL     1       2.692   5.855  20.578  0.00  0.00    +0.000 N 
ATOM     10  H   UNL     1       3.676   5.662  20.707  0.00  0.00    +0.000 HD
BRANCH   7  11
ATOM     11  C   UNL     1       2.381   3.666  21.674  0.00  0.00    +0.000 C 
BRANCH  11  12
ATOM     12  C   UNL     1       1.853   2.325  21.128  0.00  0.00    +0.000 C 
BRANCH  12  16
ATOM     13  C   UNL     1       2.683   2.060  17.430  0.00  0.00    +0.000 C 
ATOM     14  C   UNL     1       2.902   2.055  18.909  0.00  0.00    +0.000 C 
ATOM     15  O   UNL     1       4.029   1.853  19.400  0.00  0.00    +0.000 OA
ATOM     16  N   UNL     1       1.783   2.267  19.672  0.00  0.00    +0.000 N 
ATOM     17  H   UNL     1       0.932   2.581  19.208  0.00  0.00    +0.000 HD
ENDBRANCH  12  16
ENDBRANCH  11  12
ENDBRANCH   7  11
ENDBRANCH   1   9
BRANCH   3  18
ATOM     18  S   UNL     1       0.404  10.506  20.584  0.00  0.00    +0.000 S 
ATOM     19  O   UNL     1      -1.011  10.186  20.499  0.00  0.00    +0.000 OA
ATOM     20  O   UNL     1       1.049  10.663  21.867  0.00  0.00    +0.000 OA
BRANCH  18  21
ATOM     21  N   UNL     1       0.676  11.936  19.672  0.00  0.00    +0.000 NA
ATOM     22  C   UNL     1      -0.539  12.683  19.254  0.00  0.00    +0.000 C 
ATOM     23  C   UNL     1      -0.222  13.860  18.338  0.00  0.00    +0.000 C 
ATOM     24  C   UNL     1       0.879  14.739  18.910  0.00  0.00    +0.000 C 
ATOM     25  C   UNL     1       2.134  13.906  19.107  0.00  0.00    +0.000 C 
ATOM     26  C   UNL     1       1.889  12.716  20.035  0.00  0.00    +0.000 C 
ENDBRANCH  18  21
ENDBRANCH   3  18
BRANCH   6  27
ATOM     27  O   UNL     1       3.234   6.232  17.548  0.00  0.00    +0.000 OA
BRANCH  27  28
ATOM     28  C   UNL     1       4.584   6.006  17.624  0.00  0.00    +0.000 A 
ATOM     29  C   UNL     1       5.080   4.717  17.490  0.00  0.00    +0.000 A 
ATOM     30  C   UNL     1       6.420   4.464  17.518  0.00  0.00    +0.000 A 
ATOM     31  C   UNL     1       7.314   5.546  17.551  0.00  0.00    +0.000 A 
ATOM     32  C   UNL     1       6.845   6.851  17.637  0.00  0.00    +0.000 A 
ATOM     33  C   UNL     1       7.807   8.002  17.484  0.00  0.00    +0.000 C 
ATOM     34  C   UNL     1       5.474   7.092  17.749  0.00  0.00    +0.000 A 
ENDBRANCH  27  28
ENDBRANCH   6  27
TORSDOF 8
ENDMDL
MODEL 5
REMARK VINA RESULT:      -8.3      1.925      2.542
REMARK  Name = 
REMARK  10 active torsions:
REMARK  status: ('A' for Active; 'I' for Inactive)
REMARK    1  A    between atoms: C_1  and  C_2
REMARK    2  A    between atoms: N_4  and  C_5
REMARK    3  A    between atoms: C_5  and  C_6
REMARK    4  A    between atoms: C_6  and  C_7
REMARK    5  A    between atoms: N_9  and  C_10
REMARK    6  A    between atoms: C_12  and  S_13
REMARK    7  A    between atoms: S_13  and  N_16
REMARK    8  A    between atoms: C_24  and  O_25
REMARK    9  A    between atoms: O_25  and  C_26
REMARK   10  A    between atoms: C_30  and  C_31
REMARK                            x       y       z     vdW  Elec       q    Type
REMARK                         _______ _______ _______ _____ _____    ______ ____
ROOT
ATOM      1  C   UNL     1       2.205   6.900  19.815  0.00  0.00    +0.000 A 
ATOM      2  C   UNL     1       1.555   8.088  20.193  0.00  0.00    +0.000 A 
ATOM      3  C   UNL     1       1.377   9.149  19.315  0.00  0.00    +0.000 A 
ATOM      4  C   UNL     1       1.921   9.081  18.034  0.00  0.00    +0.000 A 
ATOM      5  C   UNL     1       2.520   7.898  17.611  0.00  0.00    +0.000 A 
ATOM      6  C   UNL     1       2.659   6.799  18.461  0.00  0.00    +0.000 A 
ENDROOT
BRANCH   1   9
ATOM      7  C   UNL     1       1.654   4.646  20.722  0.00  0.00    +0.000 C 
ATOM      8  O   UNL     1       0.871   4.332  19.850  0.00  0.00    +0.000 OA
ATOM      9  N   UNL     1       2.358   5.858  20.786  0.00  0.00    +0.000 N 
ATOM     10  H   UNL     1       3.183   5.877  21.369  0.00  0.00    +0.000 HD
BRANCH   7  11
ATOM     11  C   UNL     1       1.983   3.656  21.835  0.00  0.00    +0.000 C 
BRANCH  11  12
ATOM     12  C   UNL     1       2.977   2.606  21.301  0.00  0.00    +0.000 C 
BRANCH  12  16
ATOM     13  C   UNL     1       3.655   2.261  17.578  0.00  0.00    +0.000 C 
ATOM     14  C   UNL     1       3.932   2.511  19.026  0.00  0.00    +0.000 C 
ATOM     15  O   UNL     1       5.071   2.818  19.427  0.00  0.00    +0.000 OA
ATOM     16  N   UNL     1       2.861   2.359  19.867  0.00  0.00    +0.000 N 
ATOM     17  H   UNL     1       1.933   2.265  19.458  0.00  0.00    +0.000 HD
ENDBRANCH  12  16
ENDBRANCH  11  12
ENDBRANCH   7  11
ENDBRANCH   1   9
BRANCH   3  18
ATOM     18  S   UNL     1       0.543  10.627  19.872  0.00  0.00    +0.000 S 
ATOM     19  O   UNL     1      -0.545  10.870  18.940  0.00  0.00    +0.000 OA
ATOM     20  O   UNL     1       0.282  10.450  21.282  0.00  0.00    +0.000 OA
BRANCH  18  21
ATOM     21  N   UNL     1       1.681  11.902  19.698  0.00  0.00    +0.000 NA
ATOM     22  C   UNL     1       1.809  12.479  18.334  0.00  0.00    +0.000 C 
ATOM     23  C   UNL     1       2.929  13.508  18.231  0.00  0.00    +0.000 C 
ATOM     24  C   UNL     1       2.844  14.547  19.337  0.00  0.00    +0.000 C 
ATOM     25  C   UNL     1       2.925  13.851  20.685  0.00  0.00    +0.000 C 
ATOM     26  C   UNL     1       1.813  12.817  20.862  0.00  0.00    +0.000 C 
ENDBRANCH  18  21
ENDBRANCH   3  18
BRANCH   6  27
ATOM     27  O   UNL     1       3.268   5.741  17.824  0.00  0.00    +0.000 OA
BRANCH  27  28
ATOM     28  C   UNL     1       4.587   5.813  17.459  0.00  0.00    +0.000 A 
ATOM     29  C   UNL     1       5.555   6.104  18.412  0.00  0.00    +0.000 A 
ATOM     30  C   UNL     1       6.879   6.142  18.090  0.00  0.00    +0.000 A 
ATOM     31  C   UNL     1       7.276   5.750  16.802  0.00  0.00    +0.000 A 
ATOM     32  C   UNL     1       6.332   5.408  15.842  0.00  0.00    +0.000 A 
ATOM     33  C   UNL     1       6.782   4.814  14.531  0.00  0.00    +0.000 C 
ATOM     34  C   UNL     1       4.971   5.507  16.139  0.00  0.00    +0.000 A 
ENDBRANCH  27  28
ENDBRANCH   6  27
TORSDOF 8
ENDMDL
MODEL 6
REMARK VINA RESULT:      -8.3      2.811      8.423
REMARK  Name = 
REMARK  10 active torsions:
REMARK  status: ('A' for Active; 'I' for Inactive)
REMARK    1  A    between atoms: C_1  and  C_2
REMARK    2  A    between atoms: N_4  and  C_5
REMARK    3  A    between atoms: C_5  and  C_6
REMARK    4  A    between atoms: C_6  and  C_7
REMARK    5  A    between atoms: N_9  and  C_10
REMARK    6  A    between atoms: C_12  and  S_13
REMARK    7  A    between atoms: S_13  and  N_16
REMARK    8  A    between atoms: C_24  and  O_25
REMARK    9  A    between atoms: O_25  and  C_26
REMARK   10  A    between atoms: C_30  and  C_31
REMARK                            x       y       z     vdW  Elec       q    Type
REMARK                         _______ _______ _______ _____ _____    ______ ____
ROOT
ATOM      1  C   UNL     1       1.176   8.606  19.958  0.00  0.00    +0.000 A 
ATOM      2  C   UNL     1       1.942   7.435  19.819  0.00  0.00    +0.000 A 
ATOM      3  C   UNL     1       2.752   7.206  18.715  0.00  0.00    +0.000 A 
ATOM      4  C   UNL     1       2.760   8.120  17.665  0.00  0.00    +0.000 A 
ATOM      5  C   UNL     1       2.057   9.315  17.798  0.00  0.00    +0.000 A 
ATOM      6  C   UNL     1       1.281   9.590  18.925  0.00  0.00    +0.000 A 
ENDROOT
BRANCH   1   9
ATOM      7  C   UNL     1       0.827   9.330  22.317  0.00  0.00    +0.000 C 
ATOM      8  O   UNL     1       1.943   9.770  22.495  0.00  0.00    +0.000 OA
ATOM      9  N   UNL     1       0.357   8.760  21.124  0.00  0.00    +0.000 N 
ATOM     10  H   UNL     1      -0.645   8.714  21.003  0.00  0.00    +0.000 HD
BRANCH   7  11
ATOM     11  C   UNL     1      -0.212   9.431  23.429  0.00  0.00    +0.000 C 
BRANCH  11  12
ATOM     12  C   UNL     1      -1.184  10.585  23.111  0.00  0.00    +0.000 C 
BRANCH  12  16
ATOM     13  C   UNL     1      -0.331  14.213  22.372  0.00  0.00    +0.000 C 
ATOM     14  C   UNL     1      -1.110  13.041  22.880  0.00  0.00    +0.000 C 
ATOM     15  O   UNL     1      -2.210  13.188  23.447  0.00  0.00    +0.000 OA
ATOM     16  N   UNL     1      -0.522  11.817  22.697  0.00  0.00    +0.000 N 
ATOM     17  H   UNL     1       0.294  11.757  22.090  0.00  0.00    +0.000 HD
ENDBRANCH  12  16
ENDBRANCH  11  12
ENDBRANCH   7  11
ENDBRANCH   1   9
BRANCH   3  18
ATOM     18  S   UNL     1       3.693   5.690  18.610  0.00  0.00    +0.000 S 
ATOM     19  O   UNL     1       3.992   5.481  17.203  0.00  0.00    +0.000 OA
ATOM     20  O   UNL     1       4.755   5.793  19.583  0.00  0.00    +0.000 OA
BRANCH  18  21
ATOM     21  N   UNL     1       2.627   4.441  19.113  0.00  0.00    +0.000 NA
ATOM     22  C   UNL     1       1.919   3.712  18.028  0.00  0.00    +0.000 C 
ATOM     23  C   UNL     1       0.895   2.715  18.558  0.00  0.00    +0.000 C 
ATOM     24  C   UNL     1       1.490   1.810  19.624  0.00  0.00    +0.000 C 
ATOM     25  C   UNL     1       2.002   2.660  20.775  0.00  0.00    +0.000 C 
ATOM     26  C   UNL     1       3.050   3.672  20.313  0.00  0.00    +0.000 C 
ENDBRANCH  18  21
ENDBRANCH   3  18
BRANCH   6  27
ATOM     27  O   UNL     1       0.691  10.832  18.841  0.00  0.00    +0.000 OA
BRANCH  27  28
ATOM     28  C   UNL     1      -0.658  10.947  18.621  0.00  0.00    +0.000 A 
ATOM     29  C   UNL     1      -1.405  11.855  19.358  0.00  0.00    +0.000 A 
ATOM     30  C   UNL     1      -2.739  12.025  19.134  0.00  0.00    +0.000 A 
ATOM     31  C   UNL     1      -3.335  11.363  18.049  0.00  0.00    +0.000 A 
ATOM     32  C   UNL     1      -2.599  10.483  17.264  0.00  0.00    +0.000 A 
ATOM     33  C   UNL     1      -3.203   9.928  15.999  0.00  0.00    +0.000 C 
ATOM     34  C   UNL     1      -1.269  10.209  17.587  0.00  0.00    +0.000 A 
ENDBRANCH  27  28
ENDBRANCH   6  27
TORSDOF 8
ENDMDL
MODEL 7
REMARK VINA RESULT:      -8.2      1.000      1.177
REMARK  Name = 
REMARK  10 active torsions:
REMARK  status: ('A' for Active; 'I' for Inactive)
REMARK    1  A    between atoms: C_1  and  C_2
REMARK    2  A    between atoms: N_4  and  C_5
REMARK    3  A    between atoms: C_5  and  C_6
REMARK    4  A    between atoms: C_6  and  C_7
REMARK    5  A    between atoms: N_9  and  C_10
REMARK    6  A    between atoms: C_12  and  S_13
REMARK    7  A    between atoms: S_13  and  N_16
REMARK    8  A    between atoms: C_24  and  O_25
REMARK    9  A    between atoms: O_25  and  C_26
REMARK   10  A    between atoms: C_30  and  C_31
REMARK                            x       y       z     vdW  Elec       q    Type
REMARK                         _______ _______ _______ _____ _____    ______ ____
ROOT
ATOM      1  C   UNL     1       2.195   7.302  19.742  0.00  0.00    +0.000 A 
ATOM      2  C   UNL     1       1.483   8.414  20.225  0.00  0.00    +0.000 A 
ATOM      3  C   UNL     1       1.208   9.520  19.432  0.00  0.00    +0.000 A 
ATOM      4  C   UNL     1       1.712   9.579  18.135  0.00  0.00    +0.000 A 
ATOM      5  C   UNL     1       2.371   8.471  17.610  0.00  0.00    +0.000 A 
ATOM      6  C   UNL     1       2.609   7.327  18.373  0.00  0.00    +0.000 A 
ENDROOT
BRANCH   1   9
ATOM      7  C   UNL     1       1.765   4.983  20.545  0.00  0.00    +0.000 C 
ATOM      8  O   UNL     1       0.921   4.703  19.721  0.00  0.00    +0.000 OA
ATOM      9  N   UNL     1       2.447   6.206  20.630  0.00  0.00    +0.000 N 
ATOM     10  H   UNL     1       3.316   6.210  21.146  0.00  0.00    +0.000 HD
BRANCH   7  11
ATOM     11  C   UNL     1       2.204   3.935  21.564  0.00  0.00    +0.000 C 
BRANCH  11  12
ATOM     12  C   UNL     1       1.643   2.560  21.149  0.00  0.00    +0.000 C 
BRANCH  12  16
ATOM     13  C   UNL     1       3.588   1.599  18.030  0.00  0.00    +0.000 C 
ATOM     14  C   UNL     1       3.343   1.986  19.453  0.00  0.00    +0.000 C 
ATOM     15  O   UNL     1       4.283   2.130  20.259  0.00  0.00    +0.000 OA
ATOM     16  N   UNL     1       2.028   2.148  19.803  0.00  0.00    +0.000 N 
ATOM     17  H   UNL     1       1.329   2.171  19.063  0.00  0.00    +0.000 HD
ENDBRANCH  12  16
ENDBRANCH  11  12
ENDBRANCH   7  11
ENDBRANCH   1   9
BRANCH   3  18
ATOM     18  S   UNL     1       0.300  10.896  20.119  0.00  0.00    +0.000 S 
ATOM     19  O   UNL     1       0.150  10.629  21.540  0.00  0.00    +0.000 OA
ATOM     20  O   UNL     1       0.956  12.098  19.659  0.00  0.00    +0.000 OA
BRANCH  18  21
ATOM     21  N   UNL     1      -1.260  10.833  19.404  0.00  0.00    +0.000 NA
ATOM     22  C   UNL     1      -2.105  12.044  19.575  0.00  0.00    +0.000 C 
ATOM     23  C   UNL     1      -3.517  11.861  19.031  0.00  0.00    +0.000 C 
ATOM     24  C   UNL     1      -3.508  11.308  17.615  0.00  0.00    +0.000 C 
ATOM     25  C   UNL     1      -2.789   9.970  17.604  0.00  0.00    +0.000 C 
ATOM     26  C   UNL     1      -1.356  10.088  18.121  0.00  0.00    +0.000 C 
ENDBRANCH  18  21
ENDBRANCH   3  18
BRANCH   6  27
ATOM     27  O   UNL     1       3.263   6.359  17.643  0.00  0.00    +0.000 OA
BRANCH  27  28
ATOM     28  C   UNL     1       4.601   6.130  17.833  0.00  0.00    +0.000 A 
ATOM     29  C   UNL     1       5.064   4.833  18.009  0.00  0.00    +0.000 A 
ATOM     30  C   UNL     1       6.393   4.567  18.158  0.00  0.00    +0.000 A 
ATOM     31  C   UNL     1       7.317   5.612  17.997  0.00  0.00    +0.000 A 
ATOM     32  C   UNL     1       6.883   6.913  17.772  0.00  0.00    +0.000 A 
ATOM     33  C   UNL     1       7.885   7.983  17.418  0.00  0.00    +0.000 C 
ATOM     34  C   UNL     1       5.517   7.199  17.761  0.00  0.00    +0.000 A 
ENDBRANCH  27  28
ENDBRANCH   6  27
TORSDOF 8
ENDMDL
MODEL 8
REMARK VINA RESULT:      -8.1      1.097      1.817
REMARK  Name = 
REMARK  10 active torsions:
REMARK  status: ('A' for Active; 'I' for Inactive)
REMARK    1  A    between atoms: C_1  and  C_2
REMARK    2  A    between atoms: N_4  and  C_5
REMARK    3  A    between atoms: C_5  and  C_6
REMARK    4  A    between atoms: C_6  and  C_7
REMARK    5  A    between atoms: N_9  and  C_10
REMARK    6  A    between atoms: C_12  and  S_13
REMARK    7  A    between atoms: S_13  and  N_16
REMARK    8  A    between atoms: C_24  and  O_25
REMARK    9  A    between atoms: O_25  and  C_26
REMARK   10  A    between atoms: C_30  and  C_31
REMARK                            x       y       z     vdW  Elec       q    Type
REMARK                         _______ _______ _______ _____ _____    ______ ____
ROOT
ATOM      1  C   UNL     1       2.158   6.752  20.140  0.00  0.00    +0.000 A 
ATOM      2  C   UNL     1       1.496   7.802  20.801  0.00  0.00    +0.000 A 
ATOM      3  C   UNL     1       1.184   8.997  20.167  0.00  0.00    +0.000 A 
ATOM      4  C   UNL     1       1.600   9.210  18.855  0.00  0.00    +0.000 A 
ATOM      5  C   UNL     1       2.206   8.169  18.156  0.00  0.00    +0.000 A 
ATOM      6  C   UNL     1       2.478   6.940  18.758  0.00  0.00    +0.000 A 
ENDROOT
BRANCH   1   9
ATOM      7  C   UNL     1       1.630   4.420  20.840  0.00  0.00    +0.000 C 
ATOM      8  O   UNL     1       0.610   4.306  20.193  0.00  0.00    +0.000 OA
ATOM      9  N   UNL     1       2.453   5.555  20.870  0.00  0.00    +0.000 N 
ATOM     10  H   UNL     1       3.402   5.423  21.191  0.00  0.00    +0.000 HD
BRANCH   7  11
ATOM     11  C   UNL     1       2.138   3.239  21.662  0.00  0.00    +0.000 C 
BRANCH  11  12
ATOM     12  C   UNL     1       3.261   2.525  20.883  0.00  0.00    +0.000 C 
BRANCH  12  16
ATOM     13  C   UNL     1       3.752   2.600  17.116  0.00  0.00    +0.000 C 
ATOM     14  C   UNL     1       3.641   2.031  18.494  0.00  0.00    +0.000 C 
ATOM     15  O   UNL     1       3.779   0.811  18.707  0.00  0.00    +0.000 OA
ATOM     16  N   UNL     1       3.361   2.935  19.485  0.00  0.00    +0.000 N 
ATOM     17  H   UNL     1       3.420   3.928  19.267  0.00  0.00    +0.000 HD
ENDBRANCH  12  16
ENDBRANCH  11  12
ENDBRANCH   7  11
ENDBRANCH   1   9
BRANCH   3  18
ATOM     18  S   UNL     1       0.346  10.287  21.076  0.00  0.00    +0.000 S 
ATOM     19  O   UNL     1      -0.412   9.630  22.128  0.00  0.00    +0.000 OA
ATOM     20  O   UNL     1       1.341  11.284  21.396  0.00  0.00    +0.000 OA
BRANCH  18  21
ATOM     21  N   UNL     1      -0.774  10.984  19.976  0.00  0.00    +0.000 NA
ATOM     22  C   UNL     1      -1.287  10.083  18.911  0.00  0.00    +0.000 C 
ATOM     23  C   UNL     1      -2.168  10.808  17.899  0.00  0.00    +0.000 C 
ATOM     24  C   UNL     1      -3.244  11.636  18.580  0.00  0.00    +0.000 C 
ATOM     25  C   UNL     1      -2.588  12.657  19.494  0.00  0.00    +0.000 C 
ATOM     26  C   UNL     1      -1.704  11.992  20.549  0.00  0.00    +0.000 C 
ENDBRANCH  18  21
ENDBRANCH   3  18
BRANCH   6  27
ATOM     27  O   UNL     1       3.066   6.063  17.874  0.00  0.00    +0.000 OA
BRANCH  27  28
ATOM     28  C   UNL     1       4.418   6.105  17.647  0.00  0.00    +0.000 A 
ATOM     29  C   UNL     1       4.908   6.681  16.483  0.00  0.00    +0.000 A 
ATOM     30  C   UNL     1       6.247   6.777  16.247  0.00  0.00    +0.000 A 
ATOM     31  C   UNL     1       7.143   6.404  17.262  0.00  0.00    +0.000 A 
ATOM     32  C   UNL     1       6.679   5.868  18.457  0.00  0.00    +0.000 A 
ATOM     33  C   UNL     1       7.638   5.649  19.600  0.00  0.00    +0.000 C 
ATOM     34  C   UNL     1       5.312   5.644  18.634  0.00  0.00    +0.000 A 
ENDBRANCH  27  28
ENDBRANCH   6  27
TORSDOF 8
ENDMDL
MODEL 9
REMARK VINA RESULT:      -8.0      2.002      4.201
REMARK  Name = 
REMARK  10 active torsions:
REMARK  status: ('A' for Active; 'I' for Inactive)
REMARK    1  A    between atoms: C_1  and  C_2
REMARK    2  A    between atoms: N_4  and  C_5
REMARK    3  A    between atoms: C_5  and  C_6
REMARK    4  A    between atoms: C_6  and  C_7
REMARK    5  A    between atoms: N_9  and  C_10
REMARK    6  A    between atoms: C_12  and  S_13
REMARK    7  A    between atoms: S_13  and  N_16
REMARK    8  A    between atoms: C_24  and  O_25
REMARK    9  A    between atoms: O_25  and  C_26
REMARK   10  A    between atoms: C_30  and  C_31
REMARK                            x       y       z     vdW  Elec       q    Type
REMARK                         _______ _______ _______ _____ _____    ______ ____
ROOT
ATOM      1  C   UNL     1       2.481   6.872  19.079  0.00  0.00    +0.000 A 
ATOM      2  C   UNL     1       2.148   8.200  18.757  0.00  0.00    +0.000 A 
ATOM      3  C   UNL     1       1.440   9.018  19.628  0.00  0.00    +0.000 A 
ATOM      4  C   UNL     1       0.973   8.501  20.833  0.00  0.00    +0.000 A 
ATOM      5  C   UNL     1       1.335   7.209  21.205  0.00  0.00    +0.000 A 
ATOM      6  C   UNL     1       2.092   6.388  20.368  0.00  0.00    +0.000 A 
ENDROOT
BRANCH   1   9
ATOM      7  C   UNL     1       4.533   5.689  18.307  0.00  0.00    +0.000 C 
ATOM      8  O   UNL     1       5.209   5.927  19.286  0.00  0.00    +0.000 OA
ATOM      9  N   UNL     1       3.203   6.091  18.119  0.00  0.00    +0.000 N 
ATOM     10  H   UNL     1       2.667   5.587  17.426  0.00  0.00    +0.000 HD
BRANCH   7  11
ATOM     11  C   UNL     1       5.109   4.836  17.181  0.00  0.00    +0.000 C 
BRANCH  11  12
ATOM     12  C   UNL     1       5.255   5.701  15.914  0.00  0.00    +0.000 C 
BRANCH  12  16
ATOM     13  C   UNL     1       6.745   4.006  12.857  0.00  0.00    +0.000 C 
ATOM     14  C   UNL     1       6.698   4.792  14.128  0.00  0.00    +0.000 C 
ATOM     15  O   UNL     1       7.731   5.269  14.637  0.00  0.00    +0.000 OA
ATOM     16  N   UNL     1       5.456   4.929  14.692  0.00  0.00    +0.000 N 
ATOM     17  H   UNL     1       4.642   4.653  14.145  0.00  0.00    +0.000 HD
ENDBRANCH  12  16
ENDBRANCH  11  12
ENDBRANCH   7  11
ENDBRANCH   1   9
BRANCH   3  18
ATOM     18  S   UNL     1       1.051  10.694  19.145  0.00  0.00    +0.000 S 
ATOM     19  O   UNL     1       1.251  11.525  20.320  0.00  0.00    +0.000 OA
ATOM     20  O   UNL     1       1.780  10.954  17.925  0.00  0.00    +0.000 OA
BRANCH  18  21
ATOM     21  N   UNL     1      -0.626  10.698  18.775  0.00  0.00    +0.000 NA
ATOM     22  C   UNL     1      -1.357  11.956  19.080  0.00  0.00    +0.000 C 
ATOM     23  C   UNL     1      -2.859  11.835  18.851  0.00  0.00    +0.000 C 
ATOM     24  C   UNL     1      -3.176  11.252  17.484  0.00  0.00    +0.000 C 
ATOM     25  C   UNL     1      -2.540   9.877  17.367  0.00  0.00    +0.000 C 
ATOM     26  C   UNL     1      -1.026   9.930  17.567  0.00  0.00    +0.000 C 
ENDBRANCH  18  21
ENDBRANCH   3  18
BRANCH   6  27
ATOM     27  O   UNL     1       2.339   5.163  20.949  0.00  0.00    +0.000 OA
BRANCH  27  28
ATOM     28  C   UNL     1       2.054   4.004  20.275  0.00  0.00    +0.000 A 
ATOM     29  C   UNL     1       0.761   3.757  19.835  0.00  0.00    +0.000 A 
ATOM     30  C   UNL     1       0.454   2.634  19.125  0.00  0.00    +0.000 A 
ATOM     31  C   UNL     1       1.493   1.781  18.722  0.00  0.00    +0.000 A 
ATOM     32  C   UNL     1       2.805   2.029  19.108  0.00  0.00    +0.000 A 
ATOM     33  C   UNL     1       3.925   1.213  18.515  0.00  0.00    +0.000 C 
ATOM     34  C   UNL     1       3.090   3.104  19.952  0.00  0.00    +0.000 A 
ENDBRANCH  27  28
ENDBRANCH   6  27
TORSDOF 8
ENDMDL
