MODEL 1
REMARK VINA RESULT:      -7.5      0.000      0.000
REMARK  Name = 
REMARK  9 active torsions:
REMARK  status: ('A' for Active; 'I' for Inactive)
REMARK    1  A    between atoms: C_1  and  C_2
REMARK    2  A    between atoms: C_2  and  C_3
REMARK    3  A    between atoms: C_2  and  C_4
REMARK    4  A    between atoms: C_4  and  C_5
REMARK    5  A    between atoms: C_5  and  N_6
REMARK    6  A    between atoms: C_17  and  C_18
REMARK    7  A    between atoms: C_18  and  C_19
REMARK    8  A    between atoms: C_18  and  C_20
REMARK    9  A    between atoms: C_18  and  O_21
REMARK                            x       y       z     vdW  Elec       q    Type
REMARK                         _______ _______ _______ _____ _____    ______ ____
ROOT
ATOM      1  N   UNL     1       6.671   4.512  14.101  0.00  0.00    +0.000 N 
ATOM      2  C   UNL     1       7.257   5.327  15.025  0.00  0.00    +0.000 A 
ATOM      3  C   UNL     1       6.606   5.072  16.208  0.00  0.00    +0.000 A 
ATOM      4  C   UNL     1       5.687   4.042  15.907  0.00  0.00    +0.000 A 
ATOM      5  N   UNL     1       4.759   3.452  16.741  0.00  0.00    +0.000 N 
ATOM      6  C   UNL     1       3.993   4.211  17.590  0.00  0.00    +0.000 C 
ATOM      7  O   UNL     1       4.016   5.442  17.603  0.00  0.00    +0.000 OA
ATOM      8  N   UNL     1       3.130   3.502  18.408  0.00  0.00    +0.000 N 
ATOM      9  C   UNL     1       2.998   2.057  18.505  0.00  0.00    +0.000 C 
ATOM     10  C   UNL     1       1.499   1.846  18.507  0.00  0.00    +0.000 C 
ATOM     11  C   UNL     1       0.971   3.040  19.292  0.00  0.00    +0.000 C 
ATOM     12  C   UNL     1       2.009   4.176  19.097  0.00  0.00    +0.000 C 
ATOM     13  N   UNL     1       5.808   3.628  14.642  0.00  0.00    +0.000 NA
ATOM     14  H   UNL     1       4.284   2.697  16.275  0.00  0.00    +0.000 HD
ENDROOT
BRANCH  12  15
ATOM     15  C   UNL     1       2.384   4.859  20.459  0.00  0.00    +0.000 C 
ATOM     16  C   UNL     1       1.550   6.099  20.795  0.00  0.00    +0.000 C 
ATOM     17  C   UNL     1       2.241   3.873  21.630  0.00  0.00    +0.000 C 
BRANCH  15  18
ATOM     18  O   UNL     1       3.760   5.270  20.418  0.00  0.00    +0.000 OA
ATOM     19  H   UNL     1       3.885   5.859  21.184  0.00  0.00    +0.000 HD
ENDBRANCH  15  18
ENDBRANCH  12  15
BRANCH   1  20
ATOM     20  C   UNL     1       6.867   4.554  12.664  0.00  0.00    +0.000 C 
BRANCH  20  21
ATOM     21  C   UNL     1       6.996   3.170  12.013  0.00  0.00    +0.000 C 
BRANCH  21  23
ATOM     22  C   UNL     1       4.540   3.194  11.311  0.00  0.00    +0.000 C 
ATOM     23  C   UNL     1       5.685   2.365  11.893  0.00  0.00    +0.000 C 
ATOM     24  C   UNL     1       5.910   1.124  11.021  0.00  0.00    +0.000 C 
ENDBRANCH  21  23
ENDBRANCH  20  21
ENDBRANCH   1  20
TORSDOF 5
ENDMDL
MODEL 2
REMARK VINA RESULT:      -7.3      3.944      5.944
REMARK  Name = 
REMARK  9 active torsions:
REMARK  status: ('A' for Active; 'I' for Inactive)
REMARK    1  A    between atoms: C_1  and  C_2
REMARK    2  A    between atoms: C_2  and  C_3
REMARK    3  A    between atoms: C_2  and  C_4
REMARK    4  A    between atoms: C_4  and  C_5
REMARK    5  A    between atoms: C_5  and  N_6
REMARK    6  A    between atoms: C_17  and  C_18
REMARK    7  A    between atoms: C_18  and  C_19
REMARK    8  A    between atoms: C_18  and  C_20
REMARK    9  A    between atoms: C_18  and  O_21
REMARK                            x       y       z     vdW  Elec       q    Type
REMARK                         _______ _______ _______ _____ _____    ______ ____
ROOT
ATOM      1  N   UNL     1       7.732   7.959  17.810  0.00  0.00    +0.000 N 
ATOM      2  C   UNL     1       8.357   7.066  18.631  0.00  0.00    +0.000 A 
ATOM      3  C   UNL     1       7.486   6.010  18.757  0.00  0.00    +0.000 A 
ATOM      4  C   UNL     1       6.393   6.334  17.923  0.00  0.00    +0.000 A 
ATOM      5  N   UNL     1       5.228   5.622  17.726  0.00  0.00    +0.000 N 
ATOM      6  C   UNL     1       4.559   5.059  18.784  0.00  0.00    +0.000 C 
ATOM      7  O   UNL     1       4.894   5.220  19.958  0.00  0.00    +0.000 OA
ATOM      8  N   UNL     1       3.427   4.333  18.456  0.00  0.00    +0.000 N 
ATOM      9  C   UNL     1       2.916   4.056  17.123  0.00  0.00    +0.000 C 
ATOM     10  C   UNL     1       1.432   4.317  17.259  0.00  0.00    +0.000 C 
ATOM     11  C   UNL     1       1.112   3.834  18.668  0.00  0.00    +0.000 C 
ATOM     12  C   UNL     1       2.423   3.982  19.483  0.00  0.00    +0.000 C 
ATOM     13  N   UNL     1       6.599   7.476  17.262  0.00  0.00    +0.000 NA
ATOM     14  H   UNL     1       4.653   6.058  17.024  0.00  0.00    +0.000 HD
ENDROOT
BRANCH  12  15
ATOM     15  C   UNL     1       2.744   2.687  20.308  0.00  0.00    +0.000 C 
ATOM     16  C   UNL     1       2.297   2.742  21.771  0.00  0.00    +0.000 C 
ATOM     17  C   UNL     1       2.091   1.449  19.670  0.00  0.00    +0.000 C 
BRANCH  15  18
ATOM     18  O   UNL     1       4.164   2.465  20.304  0.00  0.00    +0.000 OA
ATOM     19  H   UNL     1       4.509   2.963  19.543  0.00  0.00    +0.000 HD
ENDBRANCH  15  18
ENDBRANCH  12  15
BRANCH   1  20
ATOM     20  C   UNL     1       8.153   9.321  17.536  0.00  0.00    +0.000 C 
BRANCH  20  21
ATOM     21  C   UNL     1       8.979   9.955  18.664  0.00  0.00    +0.000 C 
BRANCH  21  23
ATOM     22  C   UNL     1       9.037  12.376  17.848  0.00  0.00    +0.000 C 
ATOM     23  C   UNL     1       9.861  11.153  18.252  0.00  0.00    +0.000 C 
ATOM     24  C   UNL     1      10.803  11.530  19.401  0.00  0.00    +0.000 C 
ENDBRANCH  21  23
ENDBRANCH  20  21
ENDBRANCH   1  20
TORSDOF 5
ENDMDL
MODEL 3
REMARK VINA RESULT:      -7.1      4.312      7.194
REMARK  Name = 
REMARK  9 active torsions:
REMARK  status: ('A' for Active; 'I' for Inactive)
REMARK    1  A    between atoms: C_1  and  C_2
REMARK    2  A    between atoms: C_2  and  C_3
REMARK    3  A    between atoms: C_2  and  C_4
REMARK    4  A    between atoms: C_4  and  C_5
REMARK    5  A    between atoms: C_5  and  N_6
REMARK    6  A    between atoms: C_17  and  C_18
REMARK    7  A    between atoms: C_18  and  C_19
REMARK    8  A    between atoms: C_18  and  C_20
REMARK    9  A    between atoms: C_18  and  O_21
REMARK                            x       y       z     vdW  Elec       q    Type
REMARK                         _______ _______ _______ _____ _____    ______ ____
ROOT
ATOM      1  N   UNL     1       3.188   4.895  17.995  0.00  0.00    +0.000 N 
ATOM      2  C   UNL     1       4.006   5.737  17.300  0.00  0.00    +0.000 A 
ATOM      3  C   UNL     1       3.730   6.996  17.777  0.00  0.00    +0.000 A 
ATOM      4  C   UNL     1       2.777   6.800  18.802  0.00  0.00    +0.000 A 
ATOM      5  N   UNL     1       2.140   7.752  19.571  0.00  0.00    +0.000 N 
ATOM      6  C   UNL     1       1.643   8.899  19.002  0.00  0.00    +0.000 C 
ATOM      7  O   UNL     1       1.652   9.110  17.789  0.00  0.00    +0.000 OA
ATOM      8  N   UNL     1       1.065   9.797  19.882  0.00  0.00    +0.000 N 
ATOM      9  C   UNL     1       0.986   9.684  21.329  0.00  0.00    +0.000 C 
ATOM     10  C   UNL     1      -0.444  10.076  21.631  0.00  0.00    +0.000 C 
ATOM     11  C   UNL     1      -0.739  11.167  20.609  0.00  0.00    +0.000 C 
ATOM     12  C   UNL     1       0.183  10.879  19.394  0.00  0.00    +0.000 C 
ATOM     13  N   UNL     1       2.532   5.503  19.005  0.00  0.00    +0.000 NA
ATOM     14  H   UNL     1       1.560   7.322  20.271  0.00  0.00    +0.000 HD
ENDROOT
BRANCH  12  15
ATOM     15  C   UNL     1       0.927  12.173  18.911  0.00  0.00    +0.000 C 
ATOM     16  C   UNL     1       0.001  13.285  18.410  0.00  0.00    +0.000 C 
ATOM     17  C   UNL     1       1.796  12.764  20.034  0.00  0.00    +0.000 C 
BRANCH  15  18
ATOM     18  O   UNL     1       1.809  11.834  17.829  0.00  0.00    +0.000 OA
ATOM     19  H   UNL     1       2.125  10.931  18.016  0.00  0.00    +0.000 HD
ENDBRANCH  15  18
ENDBRANCH  12  15
BRANCH   1  20
ATOM     20  C   UNL     1       2.958   3.490  17.717  0.00  0.00    +0.000 C 
BRANCH  20  21
ATOM     21  C   UNL     1       3.148   2.575  18.935  0.00  0.00    +0.000 C 
BRANCH  21  23
ATOM     22  C   UNL     1       1.663   2.655  21.013  0.00  0.00    +0.000 C 
ATOM     23  C   UNL     1       1.849   2.082  19.608  0.00  0.00    +0.000 C 
ATOM     24  C   UNL     1       0.638   2.452  18.743  0.00  0.00    +0.000 C 
ENDBRANCH  21  23
ENDBRANCH  20  21
ENDBRANCH   1  20
TORSDOF 5
ENDMDL
MODEL 4
REMARK VINA RESULT:      -7.1      4.424      7.375
REMARK  Name = 
REMARK  9 active torsions:
REMARK  status: ('A' for Active; 'I' for Inactive)
REMARK    1  A    between atoms: C_1  and  C_2
REMARK    2  A    between atoms: C_2  and  C_3
REMARK    3  A    between atoms: C_2  and  C_4
REMARK    4  A    between atoms: C_4  and  C_5
REMARK    5  A    between atoms: C_5  and  N_6
REMARK    6  A    between atoms: C_17  and  C_18
REMARK    7  A    between atoms: C_18  and  C_19
REMARK    8  A    between atoms: C_18  and  C_20
REMARK    9  A    between atoms: C_18  and  O_21
REMARK                            x       y       z     vdW  Elec       q    Type
REMARK                         _______ _______ _______ _____ _____    ______ ____
ROOT
ATOM      1  N   UNL     1       3.068   5.122  18.413  0.00  0.00    +0.000 N 
ATOM      2  C   UNL     1       3.519   6.108  17.586  0.00  0.00    +0.000 A 
ATOM      3  C   UNL     1       3.204   7.290  18.213  0.00  0.00    +0.000 A 
ATOM      4  C   UNL     1       2.621   6.908  19.442  0.00  0.00    +0.000 A 
ATOM      5  N   UNL     1       2.093   7.718  20.426  0.00  0.00    +0.000 N 
ATOM      6  C   UNL     1       1.289   8.784  20.104  0.00  0.00    +0.000 C 
ATOM      7  O   UNL     1       0.922   9.030  18.955  0.00  0.00    +0.000 OA
ATOM      8  N   UNL     1       0.855   9.548  21.174  0.00  0.00    +0.000 N 
ATOM      9  C   UNL     1       1.208   9.380  22.575  0.00  0.00    +0.000 C 
ATOM     10  C   UNL     1      -0.120   9.521  23.286  0.00  0.00    +0.000 C 
ATOM     11  C   UNL     1      -0.853  10.578  22.469  0.00  0.00    +0.000 C 
ATOM     12  C   UNL     1      -0.280  10.483  21.030  0.00  0.00    +0.000 C 
ATOM     13  N   UNL     1       2.641   5.583  19.607  0.00  0.00    +0.000 NA
ATOM     14  H   UNL     1       1.807   7.177  21.224  0.00  0.00    +0.000 HD
ENDROOT
BRANCH  12  15
ATOM     15  C   UNL     1       0.094  11.896  20.460  0.00  0.00    +0.000 C 
ATOM     16  C   UNL     1      -0.786  12.360  19.296  0.00  0.00    +0.000 C 
ATOM     17  C   UNL     1       0.019  12.972  21.555  0.00  0.00    +0.000 C 
BRANCH  15  18
ATOM     18  O   UNL     1       1.449  11.869  19.984  0.00  0.00    +0.000 OA
ATOM     19  H   UNL     1       1.893  12.630  20.401  0.00  0.00    +0.000 HD
ENDBRANCH  15  18
ENDBRANCH  12  15
BRANCH   1  20
ATOM     20  C   UNL     1       2.982   3.707  18.104  0.00  0.00    +0.000 C 
BRANCH  20  21
ATOM     21  C   UNL     1       3.067   2.795  19.336  0.00  0.00    +0.000 C 
BRANCH  21  23
ATOM     22  C   UNL     1       1.312   2.773  21.192  0.00  0.00    +0.000 C 
ATOM     23  C   UNL     1       1.725   2.215  19.830  0.00  0.00    +0.000 C 
ATOM     24  C   UNL     1       0.621   2.502  18.806  0.00  0.00    +0.000 C 
ENDBRANCH  21  23
ENDBRANCH  20  21
ENDBRANCH   1  20
TORSDOF 5
ENDMDL
MODEL 5
REMARK VINA RESULT:      -7.1      4.842      7.940
REMARK  Name = 
REMARK  9 active torsions:
REMARK  status: ('A' for Active; 'I' for Inactive)
REMARK    1  A    between atoms: C_1  and  C_2
REMARK    2  A    between atoms: C_2  and  C_3
REMARK    3  A    between atoms: C_2  and  C_4
REMARK    4  A    between atoms: C_4  and  C_5
REMARK    5  A    between atoms: C_5  and  N_6
REMARK    6  A    between atoms: C_17  and  C_18
REMARK    7  A    between atoms: C_18  and  C_19
REMARK    8  A    between atoms: C_18  and  C_20
REMARK    9  A    between atoms: C_18  and  O_21
REMARK                            x       y       z     vdW  Elec       q    Type
REMARK                         _______ _______ _______ _____ _____    ______ ____
ROOT
ATOM      1  N   UNL     1      -0.078  10.177  18.634  0.00  0.00    +0.000 N 
ATOM      2  C   UNL     1       0.158   9.780  19.918  0.00  0.00    +0.000 A 
ATOM      3  C   UNL     1       1.264   8.966  19.855  0.00  0.00    +0.000 A 
ATOM      4  C   UNL     1       1.658   8.986  18.499  0.00  0.00    +0.000 A 
ATOM      5  N   UNL     1       2.691   8.297  17.898  0.00  0.00    +0.000 N 
ATOM      6  C   UNL     1       2.920   6.975  18.191  0.00  0.00    +0.000 C 
ATOM      7  O   UNL     1       2.186   6.308  18.921  0.00  0.00    +0.000 OA
ATOM      8  N   UNL     1       4.011   6.405  17.559  0.00  0.00    +0.000 N 
ATOM      9  C   UNL     1       4.963   7.065  16.680  0.00  0.00    +0.000 C 
ATOM     10  C   UNL     1       5.113   6.089  15.534  0.00  0.00    +0.000 C 
ATOM     11  C   UNL     1       5.023   4.727  16.211  0.00  0.00    +0.000 C 
ATOM     12  C   UNL     1       4.168   4.936  17.489  0.00  0.00    +0.000 C 
ATOM     13  N   UNL     1       0.899   9.816  17.777  0.00  0.00    +0.000 NA
ATOM     14  H   UNL     1       2.783   8.555  16.930  0.00  0.00    +0.000 HD
ENDROOT
BRANCH  12  15
ATOM     15  C   UNL     1       4.836   4.280  18.748  0.00  0.00    +0.000 C 
ATOM     16  C   UNL     1       5.759   5.216  19.533  0.00  0.00    +0.000 C 
ATOM     17  C   UNL     1       3.773   3.751  19.724  0.00  0.00    +0.000 C 
BRANCH  15  18
ATOM     18  O   UNL     1       5.625   3.154  18.331  0.00  0.00    +0.000 OA
ATOM     19  H   UNL     1       5.211   2.373  18.740  0.00  0.00    +0.000 HD
ENDBRANCH  15  18
ENDBRANCH  12  15
BRANCH   1  20
ATOM     20  C   UNL     1      -1.251  10.879  18.149  0.00  0.00    +0.000 C 
BRANCH  20  21
ATOM     21  C   UNL     1      -2.119  10.052  17.190  0.00  0.00    +0.000 C 
BRANCH  21  23
ATOM     22  C   UNL     1      -2.927  10.111  14.767  0.00  0.00    +0.000 C 
ATOM     23  C   UNL     1      -2.861  10.855  16.101  0.00  0.00    +0.000 C 
ATOM     24  C   UNL     1      -4.282  11.187  16.571  0.00  0.00    +0.000 C 
ENDBRANCH  21  23
ENDBRANCH  20  21
ENDBRANCH   1  20
TORSDOF 5
ENDMDL
MODEL 6
REMARK VINA RESULT:      -7.1      4.558      7.510
REMARK  Name = 
REMARK  9 active torsions:
REMARK  status: ('A' for Active; 'I' for Inactive)
REMARK    1  A    between atoms: C_1  and  C_2
REMARK    2  A    between atoms: C_2  and  C_3
REMARK    3  A    between atoms: C_2  and  C_4
REMARK    4  A    between atoms: C_4  and  C_5
REMARK    5  A    between atoms: C_5  and  N_6
REMARK    6  A    between atoms: C_17  and  C_18
REMARK    7  A    between atoms: C_18  and  C_19
REMARK    8  A    between atoms: C_18  and  C_20
REMARK    9  A    between atoms: C_18  and  O_21
REMARK                            x       y       z     vdW  Elec       q    Type
REMARK                         _______ _______ _______ _____ _____    ______ ____
ROOT
ATOM      1  N   UNL     1       2.651   5.491  18.209  0.00  0.00    +0.000 N 
ATOM      2  C   UNL     1       3.281   6.511  17.558  0.00  0.00    +0.000 A 
ATOM      3  C   UNL     1       3.047   7.633  18.316  0.00  0.00    +0.000 A 
ATOM      4  C   UNL     1       2.320   7.173  19.437  0.00  0.00    +0.000 A 
ATOM      5  N   UNL     1       1.803   7.911  20.482  0.00  0.00    +0.000 N 
ATOM      6  C   UNL     1       1.155   9.100  20.252  0.00  0.00    +0.000 C 
ATOM      7  O   UNL     1       0.920   9.533  19.124  0.00  0.00    +0.000 OA
ATOM      8  N   UNL     1       0.719   9.769  21.383  0.00  0.00    +0.000 N 
ATOM      9  C   UNL     1       0.927   9.382  22.769  0.00  0.00    +0.000 C 
ATOM     10  C   UNL     1      -0.434   9.594  23.396  0.00  0.00    +0.000 C 
ATOM     11  C   UNL     1      -0.968  10.829  22.681  0.00  0.00    +0.000 C 
ATOM     12  C   UNL     1      -0.287  10.848  21.287  0.00  0.00    +0.000 C 
ATOM     13  N   UNL     1       2.176   5.845  19.420  0.00  0.00    +0.000 NA
ATOM     14  H   UNL     1       1.389   7.312  21.177  0.00  0.00    +0.000 HD
ENDROOT
BRANCH  12  15
ATOM     15  C   UNL     1       0.292  12.265  20.943  0.00  0.00    +0.000 C 
ATOM     16  C   UNL     1      -0.098  12.787  19.558  0.00  0.00    +0.000 C 
ATOM     17  C   UNL     1      -0.157  13.311  21.977  0.00  0.00    +0.000 C 
BRANCH  15  18
ATOM     18  O   UNL     1       1.727  12.212  20.990  0.00  0.00    +0.000 OA
ATOM     19  H   UNL     1       1.971  11.318  20.690  0.00  0.00    +0.000 HD
ENDBRANCH  15  18
ENDBRANCH  12  15
BRANCH   1  20
ATOM     20  C   UNL     1       2.433   4.149  17.703  0.00  0.00    +0.000 C 
BRANCH  20  21
ATOM     21  C   UNL     1       1.337   3.374  18.449  0.00  0.00    +0.000 C 
BRANCH  21  23
ATOM     22  C   UNL     1       3.303   1.888  19.123  0.00  0.00    +0.000 C 
ATOM     23  C   UNL     1       1.831   2.229  19.358  0.00  0.00    +0.000 C 
ATOM     24  C   UNL     1       1.623   2.600  20.830  0.00  0.00    +0.000 C 
ENDBRANCH  21  23
ENDBRANCH  20  21
ENDBRANCH   1  20
TORSDOF 5
ENDMDL
MODEL 7
REMARK VINA RESULT:      -6.9      4.837      8.125
REMARK  Name = 
REMARK  9 active torsions:
REMARK  status: ('A' for Active; 'I' for Inactive)
REMARK    1  A    between atoms: C_1  and  C_2
REMARK    2  A    between atoms: C_2  and  C_3
REMARK    3  A    between atoms: C_2  and  C_4
REMARK    4  A    between atoms: C_4  and  C_5
REMARK    5  A    between atoms: C_5  and  N_6
REMARK    6  A    between atoms: C_17  and  C_18
REMARK    7  A    between atoms: C_18  and  C_19
REMARK    8  A    between atoms: C_18  and  C_20
REMARK    9  A    between atoms: C_18  and  O_21
REMARK                            x       y       z     vdW  Elec       q    Type
REMARK                         _______ _______ _______ _____ _____    ______ ____
ROOT
ATOM      1  N   UNL     1      -0.250  10.272  18.548  0.00  0.00    +0.000 N 
ATOM      2  C   UNL     1      -0.014   9.935  19.849  0.00  0.00    +0.000 A 
ATOM      3  C   UNL     1       1.116   9.153  19.829  0.00  0.00    +0.000 A 
ATOM      4  C   UNL     1       1.522   9.130  18.476  0.00  0.00    +0.000 A 
ATOM      5  N   UNL     1       2.581   8.448  17.913  0.00  0.00    +0.000 N 
ATOM      6  C   UNL     1       2.847   7.147  18.262  0.00  0.00    +0.000 C 
ATOM      7  O   UNL     1       2.126   6.489  19.013  0.00  0.00    +0.000 OA
ATOM      8  N   UNL     1       3.961   6.585  17.663  0.00  0.00    +0.000 N 
ATOM      9  C   UNL     1       4.900   7.238  16.766  0.00  0.00    +0.000 C 
ATOM     10  C   UNL     1       5.091   6.220  15.662  0.00  0.00    +0.000 C 
ATOM     11  C   UNL     1       5.035   4.885  16.394  0.00  0.00    +0.000 C 
ATOM     12  C   UNL     1       4.163   5.121  17.655  0.00  0.00    +0.000 C 
ATOM     13  N   UNL     1       0.746   9.906  17.715  0.00  0.00    +0.000 NA
ATOM     14  H   UNL     1       2.674   8.669  16.936  0.00  0.00    +0.000 HD
ENDROOT
BRANCH  12  15
ATOM     15  C   UNL     1       4.838   4.537  18.945  0.00  0.00    +0.000 C 
ATOM     16  C   UNL     1       4.444   3.093  19.266  0.00  0.00    +0.000 C 
ATOM     17  C   UNL     1       6.371   4.588  18.839  0.00  0.00    +0.000 C 
BRANCH  15  18
ATOM     18  O   UNL     1       4.465   5.341  20.077  0.00  0.00    +0.000 OA
ATOM     19  H   UNL     1       4.085   6.159  19.709  0.00  0.00    +0.000 HD
ENDBRANCH  15  18
ENDBRANCH  12  15
BRANCH   1  20
ATOM     20  C   UNL     1      -1.439  10.918  18.025  0.00  0.00    +0.000 C 
BRANCH  20  21
ATOM     21  C   UNL     1      -2.651   9.983  17.901  0.00  0.00    +0.000 C 
BRANCH  21  23
ATOM     22  C   UNL     1      -4.585  11.337  16.926  0.00  0.00    +0.000 C 
ATOM     23  C   UNL     1      -3.560  10.229  16.679  0.00  0.00    +0.000 C 
ATOM     24  C   UNL     1      -2.709  10.586  15.455  0.00  0.00    +0.000 C 
ENDBRANCH  21  23
ENDBRANCH  20  21
ENDBRANCH   1  20
TORSDOF 5
ENDMDL
MODEL 8
REMARK VINA RESULT:      -6.9      3.945      7.993
REMARK  Name = 
REMARK  9 active torsions:
REMARK  status: ('A' for Active; 'I' for Inactive)
REMARK    1  A    between atoms: C_1  and  C_2
REMARK    2  A    between atoms: C_2  and  C_3
REMARK    3  A    between atoms: C_2  and  C_4
REMARK    4  A    between atoms: C_4  and  C_5
REMARK    5  A    between atoms: C_5  and  N_6
REMARK    6  A    between atoms: C_17  and  C_18
REMARK    7  A    between atoms: C_18  and  C_19
REMARK    8  A    between atoms: C_18  and  C_20
REMARK    9  A    between atoms: C_18  and  O_21
REMARK                            x       y       z     vdW  Elec       q    Type
REMARK                         _______ _______ _______ _____ _____    ______ ____
ROOT
ATOM      1  N   UNL     1       0.500   9.376  20.358  0.00  0.00    +0.000 N 
ATOM      2  C   UNL     1       0.347   8.509  21.400  0.00  0.00    +0.000 A 
ATOM      3  C   UNL     1       1.185   7.453  21.129  0.00  0.00    +0.000 A 
ATOM      4  C   UNL     1       1.846   7.809  19.932  0.00  0.00    +0.000 A 
ATOM      5  N   UNL     1       2.763   7.072  19.211  0.00  0.00    +0.000 N 
ATOM      6  C   UNL     1       2.566   5.732  18.983  0.00  0.00    +0.000 C 
ATOM      7  O   UNL     1       1.545   5.133  19.321  0.00  0.00    +0.000 OA
ATOM      8  N   UNL     1       3.575   5.092  18.284  0.00  0.00    +0.000 N 
ATOM      9  C   UNL     1       4.830   5.667  17.829  0.00  0.00    +0.000 C 
ATOM     10  C   UNL     1       4.954   5.151  16.411  0.00  0.00    +0.000 C 
ATOM     11  C   UNL     1       4.366   3.747  16.490  0.00  0.00    +0.000 C 
ATOM     12  C   UNL     1       3.348   3.771  17.660  0.00  0.00    +0.000 C 
ATOM     13  N   UNL     1       1.504   9.034  19.525  0.00  0.00    +0.000 NA
ATOM     14  H   UNL     1       3.121   7.602  18.434  0.00  0.00    +0.000 HD
ENDROOT
BRANCH  12  15
ATOM     15  C   UNL     1       3.538   2.544  18.620  0.00  0.00    +0.000 C 
ATOM     16  C   UNL     1       4.376   2.840  19.866  0.00  0.00    +0.000 C 
ATOM     17  C   UNL     1       2.181   1.997  19.092  0.00  0.00    +0.000 C 
BRANCH  15  18
ATOM     18  O   UNL     1       4.196   1.485  17.906  0.00  0.00    +0.000 OA
ATOM     19  H   UNL     1       3.564   0.744  17.886  0.00  0.00    +0.000 HD
ENDBRANCH  15  18
ENDBRANCH  12  15
BRANCH   1  20
ATOM     20  C   UNL     1      -0.316  10.542  20.078  0.00  0.00    +0.000 C 
BRANCH  20  21
ATOM     21  C   UNL     1      -0.382  10.912  18.590  0.00  0.00    +0.000 C 
BRANCH  21  23
ATOM     22  C   UNL     1      -2.521   9.881  17.647  0.00  0.00    +0.000 C 
ATOM     23  C   UNL     1      -1.796  11.172  18.030  0.00  0.00    +0.000 C 
ATOM     24  C   UNL     1      -2.634  11.942  19.057  0.00  0.00    +0.000 C 
ENDBRANCH  21  23
ENDBRANCH  20  21
ENDBRANCH   1  20
TORSDOF 5
ENDMDL
MODEL 9
REMARK VINA RESULT:      -6.8      4.015      7.978
REMARK  Name = 
REMARK  9 active torsions:
REMARK  status: ('A' for Active; 'I' for Inactive)
REMARK    1  A    between atoms: C_1  and  C_2
REMARK    2  A    between atoms: C_2  and  C_3
REMARK    3  A    between atoms: C_2  and  C_4
REMARK    4  A    between atoms: C_4  and  C_5
REMARK    5  A    between atoms: C_5  and  N_6
REMARK    6  A    between atoms: C_17  and  C_18
REMARK    7  A    between atoms: C_18  and  C_19
REMARK    8  A    between atoms: C_18  and  C_20
REMARK    9  A    between atoms: C_18  and  O_21
REMARK                            x       y       z     vdW  Elec       q    Type
REMARK                         _______ _______ _______ _____ _____    ______ ____
ROOT
ATOM      1  N   UNL     1       0.349   9.563  20.474  0.00  0.00    +0.000 N 
ATOM      2  C   UNL     1       0.217   8.720  21.539  0.00  0.00    +0.000 A 
ATOM      3  C   UNL     1       1.062   7.666  21.282  0.00  0.00    +0.000 A 
ATOM      4  C   UNL     1       1.705   7.998  20.069  0.00  0.00    +0.000 A 
ATOM      5  N   UNL     1       2.618   7.252  19.353  0.00  0.00    +0.000 N 
ATOM      6  C   UNL     1       2.431   5.905  19.161  0.00  0.00    +0.000 C 
ATOM      7  O   UNL     1       1.420   5.305  19.526  0.00  0.00    +0.000 OA
ATOM      8  N   UNL     1       3.437   5.258  18.465  0.00  0.00    +0.000 N 
ATOM      9  C   UNL     1       4.681   5.833  17.979  0.00  0.00    +0.000 C 
ATOM     10  C   UNL     1       4.792   5.284  16.573  0.00  0.00    +0.000 C 
ATOM     11  C   UNL     1       4.218   3.877  16.693  0.00  0.00    +0.000 C 
ATOM     12  C   UNL     1       3.215   3.920  17.876  0.00  0.00    +0.000 C 
ATOM     13  N   UNL     1       1.345   9.210  19.636  0.00  0.00    +0.000 NA
ATOM     14  H   UNL     1       2.961   7.766  18.559  0.00  0.00    +0.000 HD
ENDROOT
BRANCH  12  15
ATOM     15  C   UNL     1       3.429   2.719  18.862  0.00  0.00    +0.000 C 
ATOM     16  C   UNL     1       3.704   1.378  18.174  0.00  0.00    +0.000 C 
ATOM     17  C   UNL     1       4.595   2.994  19.825  0.00  0.00    +0.000 C 
BRANCH  15  18
ATOM     18  O   UNL     1       2.248   2.551  19.664  0.00  0.00    +0.000 OA
ATOM     19  H   UNL     1       2.563   2.304  20.552  0.00  0.00    +0.000 HD
ENDBRANCH  15  18
ENDBRANCH  12  15
BRANCH   1  20
ATOM     20  C   UNL     1      -0.481  10.714  20.177  0.00  0.00    +0.000 C 
BRANCH  20  21
ATOM     21  C   UNL     1      -0.765  10.906  18.680  0.00  0.00    +0.000 C 
BRANCH  21  23
ATOM     22  C   UNL     1      -3.195  11.544  18.215  0.00  0.00    +0.000 C 
ATOM     23  C   UNL     1      -2.150  10.427  18.197  0.00  0.00    +0.000 C 
ATOM     24  C   UNL     1      -2.042   9.853  16.780  0.00  0.00    +0.000 C 
ENDBRANCH  21  23
ENDBRANCH  20  21
ENDBRANCH   1  20
TORSDOF 5
ENDMDL
