MODEL 1
REMARK VINA RESULT:      -7.1      0.000      0.000
REMARK  Name = 
REMARK  11 active torsions:
REMARK  status: ('A' for Active; 'I' for Inactive)
REMARK    1  A    between atoms: C_1  and  O_2
REMARK    2  A    between atoms: O_2  and  C_3
REMARK    3  A    between atoms: C_8  and  C_9
REMARK    4  A    between atoms: C_10  and  C_11
REMARK    5  A    between atoms: C_11  and  C_13
REMARK    6  A    between atoms: C_15  and  O_16
REMARK    7  A    between atoms: O_16  and  C_17
REMARK    8  A    between atoms: C_18  and  O_19
REMARK    9  A    between atoms: O_19  and  C_20
REMARK   10  A    between atoms: C_21  and  O_22
REMARK   11  A    between atoms: O_22  and  C_23
REMARK                            x       y       z     vdW  Elec       q    Type
REMARK                         _______ _______ _______ _____ _____    ______ ____
ROOT
ATOM      1  C   UNL     1       2.477   7.861  18.254  0.00  0.00    +0.000 C 
ATOM      2  O   UNL     1       2.601   8.661  17.330  0.00  0.00    +0.000 OA
ENDROOT
BRANCH   1   3
ATOM      3  C   UNL     1       2.959   6.463  18.080  0.00  0.00    +0.000 A 
ATOM      4  C   UNL     1       1.979   5.467  18.005  0.00  0.00    +0.000 A 
ATOM      5  C   UNL     1       2.335   4.124  17.870  0.00  0.00    +0.000 A 
ATOM      6  C   UNL     1       3.696   3.755  17.842  0.00  0.00    +0.000 A 
ATOM      7  C   UNL     1       4.688   4.755  17.902  0.00  0.00    +0.000 A 
ATOM      8  C   UNL     1       4.309   6.104  17.995  0.00  0.00    +0.000 A 
BRANCH   5   9
ATOM      9  O   UNL     1       1.404   3.116  17.781  0.00  0.00    +0.000 OA
ATOM     10  C   UNL     1       0.691   2.809  18.976  0.00  0.00    +0.000 C 
ENDBRANCH   5   9
BRANCH   6  11
ATOM     11  O   UNL     1       3.927   2.400  17.840  0.00  0.00    +0.000 OA
ATOM     12  C   UNL     1       4.119   1.766  19.097  0.00  0.00    +0.000 C 
ENDBRANCH   6  11
BRANCH   7  13
ATOM     13  O   UNL     1       6.003   4.357  17.899  0.00  0.00    +0.000 OA
ATOM     14  C   UNL     1       6.776   4.562  16.725  0.00  0.00    +0.000 C 
ENDBRANCH   7  13
ENDBRANCH   1   3
BRANCH   1  16
ATOM     15  C   UNL     1       0.951   9.264  19.532  0.00  0.00    +0.000 C 
ATOM     16  C   UNL     1       1.832   8.252  19.533  0.00  0.00    +0.000 C 
BRANCH  15  22
ATOM     17  C   UNL     1      -0.327  11.084  20.760  0.00  0.00    +0.000 A 
ATOM     18  C   UNL     1      -0.968  11.507  21.930  0.00  0.00    +0.000 A 
ATOM     19  C   UNL     1      -0.960  10.706  23.073  0.00  0.00    +0.000 A 
ATOM     20  C   UNL     1      -0.294   9.484  23.064  0.00  0.00    +0.000 A 
ATOM     21  C   UNL     1       0.359   9.056  21.909  0.00  0.00    +0.000 A 
ATOM     22  C   UNL     1       0.355   9.846  20.747  0.00  0.00    +0.000 A 
BRANCH  17  24
ATOM     23  C   UNL     1      -1.464  12.598  19.320  0.00  0.00    +0.000 C 
ATOM     24  O   UNL     1      -0.306  11.825  19.603  0.00  0.00    +0.000 OA
ENDBRANCH  17  24
ENDBRANCH  15  22
ENDBRANCH   1  16
TORSDOF 7
ENDMDL
MODEL 2
REMARK VINA RESULT:      -6.9      1.167      2.956
REMARK  Name = 
REMARK  11 active torsions:
REMARK  status: ('A' for Active; 'I' for Inactive)
REMARK    1  A    between atoms: C_1  and  O_2
REMARK    2  A    between atoms: O_2  and  C_3
REMARK    3  A    between atoms: C_8  and  C_9
REMARK    4  A    between atoms: C_10  and  C_11
REMARK    5  A    between atoms: C_11  and  C_13
REMARK    6  A    between atoms: C_15  and  O_16
REMARK    7  A    between atoms: O_16  and  C_17
REMARK    8  A    between atoms: C_18  and  O_19
REMARK    9  A    between atoms: O_19  and  C_20
REMARK   10  A    between atoms: C_21  and  O_22
REMARK   11  A    between atoms: O_22  and  C_23
REMARK                            x       y       z     vdW  Elec       q    Type
REMARK                         _______ _______ _______ _____ _____    ______ ____
ROOT
ATOM      1  C   UNL     1       2.303   8.393  18.035  0.00  0.00    +0.000 C 
ATOM      2  O   UNL     1       2.065   9.135  17.085  0.00  0.00    +0.000 OA
ENDROOT
BRANCH   1   3
ATOM      3  C   UNL     1       3.221   7.237  17.847  0.00  0.00    +0.000 A 
ATOM      4  C   UNL     1       4.494   7.522  17.342  0.00  0.00    +0.000 A 
ATOM      5  C   UNL     1       5.415   6.500  17.106  0.00  0.00    +0.000 A 
ATOM      6  C   UNL     1       5.054   5.158  17.344  0.00  0.00    +0.000 A 
ATOM      7  C   UNL     1       3.778   4.864  17.867  0.00  0.00    +0.000 A 
ATOM      8  C   UNL     1       2.881   5.911  18.137  0.00  0.00    +0.000 A 
BRANCH   5   9
ATOM      9  O   UNL     1       6.680   6.739  16.623  0.00  0.00    +0.000 OA
ATOM     10  C   UNL     1       7.578   7.402  17.509  0.00  0.00    +0.000 C 
ENDBRANCH   5   9
BRANCH   6  11
ATOM     11  O   UNL     1       5.989   4.230  16.952  0.00  0.00    +0.000 OA
ATOM     12  C   UNL     1       5.922   3.756  15.614  0.00  0.00    +0.000 C 
ENDBRANCH   6  11
BRANCH   7  13
ATOM     13  O   UNL     1       3.451   3.544  18.060  0.00  0.00    +0.000 OA
ATOM     14  C   UNL     1       2.113   3.130  17.822  0.00  0.00    +0.000 C 
ENDBRANCH   7  13
ENDBRANCH   1   3
BRANCH   1  16
ATOM     15  C   UNL     1       0.806   9.626  19.509  0.00  0.00    +0.000 C 
ATOM     16  C   UNL     1       1.673   8.611  19.362  0.00  0.00    +0.000 C 
BRANCH  15  22
ATOM     17  C   UNL     1      -0.569  11.197  20.954  0.00  0.00    +0.000 A 
ATOM     18  C   UNL     1      -1.181  11.454  22.187  0.00  0.00    +0.000 A 
ATOM     19  C   UNL     1      -1.030  10.566  23.253  0.00  0.00    +0.000 A 
ATOM     20  C   UNL     1      -0.250   9.422  23.103  0.00  0.00    +0.000 A 
ATOM     21  C   UNL     1       0.374   9.161  21.885  0.00  0.00    +0.000 A 
ATOM     22  C   UNL     1       0.227  10.041  20.799  0.00  0.00    +0.000 A 
BRANCH  17  24
ATOM     23  C   UNL     1      -1.986  12.175  19.313  0.00  0.00    +0.000 C 
ATOM     24  O   UNL     1      -0.687  12.031  19.869  0.00  0.00    +0.000 OA
ENDBRANCH  17  24
ENDBRANCH  15  22
ENDBRANCH   1  16
TORSDOF 7
ENDMDL
MODEL 3
REMARK VINA RESULT:      -6.9      1.406      2.607
REMARK  Name = 
REMARK  11 active torsions:
REMARK  status: ('A' for Active; 'I' for Inactive)
REMARK    1  A    between atoms: C_1  and  O_2
REMARK    2  A    between atoms: O_2  and  C_3
REMARK    3  A    between atoms: C_8  and  C_9
REMARK    4  A    between atoms: C_10  and  C_11
REMARK    5  A    between atoms: C_11  and  C_13
REMARK    6  A    between atoms: C_15  and  O_16
REMARK    7  A    between atoms: O_16  and  C_17
REMARK    8  A    between atoms: C_18  and  O_19
REMARK    9  A    between atoms: O_19  and  C_20
REMARK   10  A    between atoms: C_21  and  O_22
REMARK   11  A    between atoms: O_22  and  C_23
REMARK                            x       y       z     vdW  Elec       q    Type
REMARK                         _______ _______ _______ _____ _____    ______ ____
ROOT
ATOM      1  C   UNL     1       2.285   7.705  19.057  0.00  0.00    +0.000 C 
ATOM      2  O   UNL     1       2.485   8.309  18.006  0.00  0.00    +0.000 OA
ENDROOT
BRANCH   1   3
ATOM      3  C   UNL     1       2.831   6.330  19.225  0.00  0.00    +0.000 A 
ATOM      4  C   UNL     1       3.771   5.908  18.278  0.00  0.00    +0.000 A 
ATOM      5  C   UNL     1       4.319   4.626  18.336  0.00  0.00    +0.000 A 
ATOM      6  C   UNL     1       3.900   3.726  19.338  0.00  0.00    +0.000 A 
ATOM      7  C   UNL     1       2.964   4.149  20.304  0.00  0.00    +0.000 A 
ATOM      8  C   UNL     1       2.457   5.458  20.253  0.00  0.00    +0.000 A 
BRANCH   5   9
ATOM      9  O   UNL     1       5.254   4.177  17.434  0.00  0.00    +0.000 OA
ATOM     10  C   UNL     1       4.993   4.463  16.062  0.00  0.00    +0.000 C 
ENDBRANCH   5   9
BRANCH   6  11
ATOM     11  O   UNL     1       4.405   2.453  19.219  0.00  0.00    +0.000 OA
ATOM     12  C   UNL     1       3.613   1.495  18.531  0.00  0.00    +0.000 C 
ENDBRANCH   6  11
BRANCH   7  13
ATOM     13  O   UNL     1       2.558   3.237  21.248  0.00  0.00    +0.000 OA
ATOM     14  C   UNL     1       1.214   2.779  21.221  0.00  0.00    +0.000 C 
ENDBRANCH   7  13
ENDBRANCH   1   3
BRANCH   1  16
ATOM     15  C   UNL     1       0.834   9.457  19.925  0.00  0.00    +0.000 C 
ATOM     16  C   UNL     1       1.486   8.306  20.154  0.00  0.00    +0.000 C 
BRANCH  15  22
ATOM     17  C   UNL     1      -0.464  11.490  20.719  0.00  0.00    +0.000 A 
ATOM     18  C   UNL     1      -1.216  12.105  21.728  0.00  0.00    +0.000 A 
ATOM     19  C   UNL     1      -1.402  11.474  22.959  0.00  0.00    +0.000 A 
ATOM     20  C   UNL     1      -0.822  10.232  23.201  0.00  0.00    +0.000 A 
ATOM     21  C   UNL     1      -0.061   9.615  22.210  0.00  0.00    +0.000 A 
ATOM     22  C   UNL     1       0.131  10.232  20.963  0.00  0.00    +0.000 A 
BRANCH  17  24
ATOM     23  C   UNL     1      -0.792  13.357  19.282  0.00  0.00    +0.000 C 
ATOM     24  O   UNL     1      -0.252  12.059  19.487  0.00  0.00    +0.000 OA
ENDBRANCH  17  24
ENDBRANCH  15  22
ENDBRANCH   1  16
TORSDOF 7
ENDMDL
MODEL 4
REMARK VINA RESULT:      -6.8      1.707      7.990
REMARK  Name = 
REMARK  11 active torsions:
REMARK  status: ('A' for Active; 'I' for Inactive)
REMARK    1  A    between atoms: C_1  and  O_2
REMARK    2  A    between atoms: O_2  and  C_3
REMARK    3  A    between atoms: C_8  and  C_9
REMARK    4  A    between atoms: C_10  and  C_11
REMARK    5  A    between atoms: C_11  and  C_13
REMARK    6  A    between atoms: C_15  and  O_16
REMARK    7  A    between atoms: O_16  and  C_17
REMARK    8  A    between atoms: C_18  and  O_19
REMARK    9  A    between atoms: O_19  and  C_20
REMARK   10  A    between atoms: C_21  and  O_22
REMARK   11  A    between atoms: O_22  and  C_23
REMARK                            x       y       z     vdW  Elec       q    Type
REMARK                         _______ _______ _______ _____ _____    ______ ____
ROOT
ATOM      1  C   UNL     1       1.981   8.455  18.466  0.00  0.00    +0.000 C 
ATOM      2  O   UNL     1       2.461   8.649  17.352  0.00  0.00    +0.000 OA
ENDROOT
BRANCH   1   3
ATOM      3  C   UNL     1       1.037   9.455  19.040  0.00  0.00    +0.000 A 
ATOM      4  C   UNL     1       1.054   9.607  20.431  0.00  0.00    +0.000 A 
ATOM      5  C   UNL     1       0.187  10.499  21.062  0.00  0.00    +0.000 A 
ATOM      6  C   UNL     1      -0.744  11.235  20.300  0.00  0.00    +0.000 A 
ATOM      7  C   UNL     1      -0.757  11.097  18.897  0.00  0.00    +0.000 A 
ATOM      8  C   UNL     1       0.153  10.225  18.277  0.00  0.00    +0.000 A 
BRANCH   5   9
ATOM      9  O   UNL     1       0.180  10.688  22.424  0.00  0.00    +0.000 OA
ATOM     10  C   UNL     1      -0.153   9.550  23.216  0.00  0.00    +0.000 C 
ENDBRANCH   5   9
BRANCH   6  11
ATOM     11  O   UNL     1      -1.634  11.980  21.038  0.00  0.00    +0.000 OA
ATOM     12  C   UNL     1      -1.395  13.377  21.137  0.00  0.00    +0.000 C 
ENDBRANCH   6  11
BRANCH   7  13
ATOM     13  O   UNL     1      -1.696  11.808  18.190  0.00  0.00    +0.000 OA
ATOM     14  C   UNL     1      -2.575  11.105  17.324  0.00  0.00    +0.000 C 
ENDBRANCH   7  13
ENDBRANCH   1   3
BRANCH   1  16
ATOM     15  C   UNL     1       2.100   6.040  18.751  0.00  0.00    +0.000 C 
ATOM     16  C   UNL     1       2.341   7.257  19.265  0.00  0.00    +0.000 C 
BRANCH  15  22
ATOM     17  C   UNL     1       3.429   3.975  19.399  0.00  0.00    +0.000 A 
ATOM     18  C   UNL     1       3.563   2.855  20.230  0.00  0.00    +0.000 A 
ATOM     19  C   UNL     1       2.575   2.544  21.165  0.00  0.00    +0.000 A 
ATOM     20  C   UNL     1       1.434   3.336  21.265  0.00  0.00    +0.000 A 
ATOM     21  C   UNL     1       1.283   4.446  20.436  0.00  0.00    +0.000 A 
ATOM     22  C   UNL     1       2.271   4.778  19.494  0.00  0.00    +0.000 A 
BRANCH  17  24
ATOM     23  C   UNL     1       4.388   3.590  17.257  0.00  0.00    +0.000 C 
ATOM     24  O   UNL     1       4.370   4.335  18.466  0.00  0.00    +0.000 OA
ENDBRANCH  17  24
ENDBRANCH  15  22
ENDBRANCH   1  16
TORSDOF 7
ENDMDL
MODEL 5
REMARK VINA RESULT:      -6.8      1.280      1.284
REMARK  Name = 
REMARK  11 active torsions:
REMARK  status: ('A' for Active; 'I' for Inactive)
REMARK    1  A    between atoms: C_1  and  O_2
REMARK    2  A    between atoms: O_2  and  C_3
REMARK    3  A    between atoms: C_8  and  C_9
REMARK    4  A    between atoms: C_10  and  C_11
REMARK    5  A    between atoms: C_11  and  C_13
REMARK    6  A    between atoms: C_15  and  O_16
REMARK    7  A    between atoms: O_16  and  C_17
REMARK    8  A    between atoms: C_18  and  O_19
REMARK    9  A    between atoms: O_19  and  C_20
REMARK   10  A    between atoms: C_21  and  O_22
REMARK   11  A    between atoms: O_22  and  C_23
REMARK                            x       y       z     vdW  Elec       q    Type
REMARK                         _______ _______ _______ _____ _____    ______ ____
ROOT
ATOM      1  C   UNL     1       2.272   8.088  18.540  0.00  0.00    +0.000 C 
ATOM      2  O   UNL     1       2.323   8.750  17.506  0.00  0.00    +0.000 OA
ENDROOT
BRANCH   1   3
ATOM      3  C   UNL     1       2.770   6.685  18.535  0.00  0.00    +0.000 A 
ATOM      4  C   UNL     1       2.463   5.906  19.656  0.00  0.00    +0.000 A 
ATOM      5  C   UNL     1       2.910   4.588  19.755  0.00  0.00    +0.000 A 
ATOM      6  C   UNL     1       3.710   4.037  18.733  0.00  0.00    +0.000 A 
ATOM      7  C   UNL     1       4.011   4.811  17.593  0.00  0.00    +0.000 A 
ATOM      8  C   UNL     1       3.516   6.121  17.494  0.00  0.00    +0.000 A 
BRANCH   5   9
ATOM      9  O   UNL     1       2.621   3.786  20.834  0.00  0.00    +0.000 OA
ATOM     10  C   UNL     1       1.265   3.363  20.958  0.00  0.00    +0.000 C 
ENDBRANCH   5   9
BRANCH   6  11
ATOM     11  O   UNL     1       4.202   2.781  18.997  0.00  0.00    +0.000 OA
ATOM     12  C   UNL     1       3.526   1.675  18.413  0.00  0.00    +0.000 C 
ENDBRANCH   6  11
BRANCH   7  13
ATOM     13  O   UNL     1       4.815   4.251  16.630  0.00  0.00    +0.000 OA
ATOM     14  C   UNL     1       5.742   5.083  15.947  0.00  0.00    +0.000 C 
ENDBRANCH   7  13
ENDBRANCH   1   3
BRANCH   1  16
ATOM     15  C   UNL     1       0.579   9.386  19.715  0.00  0.00    +0.000 C 
ATOM     16  C   UNL     1       1.700   8.650  19.789  0.00  0.00    +0.000 C 
BRANCH  15  22
ATOM     17  C   UNL     1      -0.600  11.396  20.723  0.00  0.00    +0.000 A 
ATOM     18  C   UNL     1      -1.241  11.972  21.827  0.00  0.00    +0.000 A 
ATOM     19  C   UNL     1      -1.320  11.286  23.039  0.00  0.00    +0.000 A 
ATOM     20  C   UNL     1      -0.742  10.026  23.167  0.00  0.00    +0.000 A 
ATOM     21  C   UNL     1      -0.090   9.447  22.080  0.00  0.00    +0.000 A 
ATOM     22  C   UNL     1      -0.006  10.120  20.850  0.00  0.00    +0.000 A 
BRANCH  17  24
ATOM     23  C   UNL     1       0.368  13.145  19.434  0.00  0.00    +0.000 C 
ATOM     24  O   UNL     1      -0.496  12.020  19.504  0.00  0.00    +0.000 OA
ENDBRANCH  17  24
ENDBRANCH  15  22
ENDBRANCH   1  16
TORSDOF 7
ENDMDL
MODEL 6
REMARK VINA RESULT:      -6.7      1.688      3.309
REMARK  Name = 
REMARK  11 active torsions:
REMARK  status: ('A' for Active; 'I' for Inactive)
REMARK    1  A    between atoms: C_1  and  O_2
REMARK    2  A    between atoms: O_2  and  C_3
REMARK    3  A    between atoms: C_8  and  C_9
REMARK    4  A    between atoms: C_10  and  C_11
REMARK    5  A    between atoms: C_11  and  C_13
REMARK    6  A    between atoms: C_15  and  O_16
REMARK    7  A    between atoms: O_16  and  C_17
REMARK    8  A    between atoms: C_18  and  O_19
REMARK    9  A    between atoms: O_19  and  C_20
REMARK   10  A    between atoms: C_21  and  O_22
REMARK   11  A    between atoms: O_22  and  C_23
REMARK                            x       y       z     vdW  Elec       q    Type
REMARK                         _______ _______ _______ _____ _____    ______ ____
ROOT
ATOM      1  C   UNL     1       2.875   7.756  17.827  0.00  0.00    +0.000 C 
ATOM      2  O   UNL     1       3.431   8.223  16.837  0.00  0.00    +0.000 OA
ENDROOT
BRANCH   1   3
ATOM      3  C   UNL     1       3.181   6.360  18.247  0.00  0.00    +0.000 A 
ATOM      4  C   UNL     1       4.533   6.029  18.387  0.00  0.00    +0.000 A 
ATOM      5  C   UNL     1       4.919   4.738  18.750  0.00  0.00    +0.000 A 
ATOM      6  C   UNL     1       3.942   3.740  18.946  0.00  0.00    +0.000 A 
ATOM      7  C   UNL     1       2.576   4.070  18.822  0.00  0.00    +0.000 A 
ATOM      8  C   UNL     1       2.208   5.386  18.497  0.00  0.00    +0.000 A 
BRANCH   5   9
ATOM      9  O   UNL     1       6.235   4.375  18.910  0.00  0.00    +0.000 OA
ATOM     10  C   UNL     1       7.192   5.430  18.845  0.00  0.00    +0.000 C 
ENDBRANCH   5   9
BRANCH   6  11
ATOM     11  O   UNL     1       4.441   2.479  19.169  0.00  0.00    +0.000 OA
ATOM     12  C   UNL     1       4.504   2.027  20.515  0.00  0.00    +0.000 C 
ENDBRANCH   6  11
BRANCH   7  13
ATOM     13  O   UNL     1       1.654   3.067  18.993  0.00  0.00    +0.000 OA
ATOM     14  C   UNL     1       0.916   3.018  20.206  0.00  0.00    +0.000 C 
ENDBRANCH   7  13
ENDBRANCH   1   3
BRANCH   1  16
ATOM     15  C   UNL     1       1.059   9.374  17.942  0.00  0.00    +0.000 C 
ATOM     16  C   UNL     1       1.884   8.545  18.601  0.00  0.00    +0.000 C 
BRANCH  15  22
ATOM     17  C   UNL     1      -1.197  10.518  18.174  0.00  0.00    +0.000 A 
ATOM     18  C   UNL     1      -2.044  11.343  18.924  0.00  0.00    +0.000 A 
ATOM     19  C   UNL     1      -1.589  11.947  20.097  0.00  0.00    +0.000 A 
ATOM     20  C   UNL     1      -0.278  11.749  20.521  0.00  0.00    +0.000 A 
ATOM     21  C   UNL     1       0.579  10.940  19.776  0.00  0.00    +0.000 A 
ATOM     22  C   UNL     1       0.136  10.319  18.597  0.00  0.00    +0.000 A 
BRANCH  17  24
ATOM     23  C   UNL     1      -2.589  10.544  16.245  0.00  0.00    +0.000 C 
ATOM     24  O   UNL     1      -1.590   9.892  17.016  0.00  0.00    +0.000 OA
ENDBRANCH  17  24
ENDBRANCH  15  22
ENDBRANCH   1  16
TORSDOF 7
ENDMDL
MODEL 7
REMARK VINA RESULT:      -6.7      0.602      2.596
REMARK  Name = 
REMARK  11 active torsions:
REMARK  status: ('A' for Active; 'I' for Inactive)
REMARK    1  A    between atoms: C_1  and  O_2
REMARK    2  A    between atoms: O_2  and  C_3
REMARK    3  A    between atoms: C_8  and  C_9
REMARK    4  A    between atoms: C_10  and  C_11
REMARK    5  A    between atoms: C_11  and  C_13
REMARK    6  A    between atoms: C_15  and  O_16
REMARK    7  A    between atoms: O_16  and  C_17
REMARK    8  A    between atoms: C_18  and  O_19
REMARK    9  A    between atoms: O_19  and  C_20
REMARK   10  A    between atoms: C_21  and  O_22
REMARK   11  A    between atoms: O_22  and  C_23
REMARK                            x       y       z     vdW  Elec       q    Type
REMARK                         _______ _______ _______ _____ _____    ______ ____
ROOT
ATOM      1  C   UNL     1       2.281   7.990  18.325  0.00  0.00    +0.000 C 
ATOM      2  O   UNL     1       2.487   8.766  17.396  0.00  0.00    +0.000 OA
ENDROOT
BRANCH   1   3
ATOM      3  C   UNL     1       2.640   6.553  18.171  0.00  0.00    +0.000 A 
ATOM      4  C   UNL     1       4.003   6.256  18.056  0.00  0.00    +0.000 A 
ATOM      5  C   UNL     1       4.435   4.941  17.880  0.00  0.00    +0.000 A 
ATOM      6  C   UNL     1       3.492   3.897  17.781  0.00  0.00    +0.000 A 
ATOM      7  C   UNL     1       2.118   4.186  17.911  0.00  0.00    +0.000 A 
ATOM      8  C   UNL     1       1.707   5.511  18.130  0.00  0.00    +0.000 A 
BRANCH   5   9
ATOM      9  O   UNL     1       5.764   4.605  17.776  0.00  0.00    +0.000 OA
ATOM     10  C   UNL     1       6.656   5.279  18.660  0.00  0.00    +0.000 C 
ENDBRANCH   5   9
BRANCH   6  11
ATOM     11  O   UNL     1       4.023   2.666  17.477  0.00  0.00    +0.000 OA
ATOM     12  C   UNL     1       3.941   1.652  18.470  0.00  0.00    +0.000 C 
ENDBRANCH   6  11
BRANCH   7  13
ATOM     13  O   UNL     1       1.228   3.149  17.782  0.00  0.00    +0.000 OA
ATOM     14  C   UNL     1       0.604   2.636  18.951  0.00  0.00    +0.000 C 
ENDBRANCH   7  13
ENDBRANCH   1   3
BRANCH   1  16
ATOM     15  C   UNL     1       0.728   9.418  19.541  0.00  0.00    +0.000 C 
ATOM     16  C   UNL     1       1.655   8.449  19.591  0.00  0.00    +0.000 C 
BRANCH  15  22
ATOM     17  C   UNL     1      -0.604  11.264  20.667  0.00  0.00    +0.000 A 
ATOM     18  C   UNL     1      -1.230  11.747  21.823  0.00  0.00    +0.000 A 
ATOM     19  C   UNL     1      -1.145  11.041  23.024  0.00  0.00    +0.000 A 
ATOM     20  C   UNL     1      -0.417   9.857  23.087  0.00  0.00    +0.000 A 
ATOM     21  C   UNL     1       0.221   9.371  21.947  0.00  0.00    +0.000 A 
ATOM     22  C   UNL     1       0.141  10.065  20.728  0.00  0.00    +0.000 A 
BRANCH  17  24
ATOM     23  C   UNL     1      -0.284  13.281  19.448  0.00  0.00    +0.000 C 
ATOM     24  O   UNL     1      -0.658  11.911  19.457  0.00  0.00    +0.000 OA
ENDBRANCH  17  24
ENDBRANCH  15  22
ENDBRANCH   1  16
TORSDOF 7
ENDMDL
MODEL 8
REMARK VINA RESULT:      -6.7      1.718      8.135
REMARK  Name = 
REMARK  11 active torsions:
REMARK  status: ('A' for Active; 'I' for Inactive)
REMARK    1  A    between atoms: C_1  and  O_2
REMARK    2  A    between atoms: O_2  and  C_3
REMARK    3  A    between atoms: C_8  and  C_9
REMARK    4  A    between atoms: C_10  and  C_11
REMARK    5  A    between atoms: C_11  and  C_13
REMARK    6  A    between atoms: C_15  and  O_16
REMARK    7  A    between atoms: O_16  and  C_17
REMARK    8  A    between atoms: C_18  and  O_19
REMARK    9  A    between atoms: O_19  and  C_20
REMARK   10  A    between atoms: C_21  and  O_22
REMARK   11  A    between atoms: O_22  and  C_23
REMARK                            x       y       z     vdW  Elec       q    Type
REMARK                         _______ _______ _______ _____ _____    ______ ____
ROOT
ATOM      1  C   UNL     1       1.896   8.538  18.743  0.00  0.00    +0.000 C 
ATOM      2  O   UNL     1       2.449   8.721  17.662  0.00  0.00    +0.000 OA
ENDROOT
BRANCH   1   3
ATOM      3  C   UNL     1       0.947   9.563  19.261  0.00  0.00    +0.000 A 
ATOM      4  C   UNL     1       0.165  10.230  18.313  0.00  0.00    +0.000 A 
ATOM      5  C   UNL     1      -0.733  11.226  18.700  0.00  0.00    +0.000 A 
ATOM      6  C   UNL     1      -0.833  11.594  20.057  0.00  0.00    +0.000 A 
ATOM      7  C   UNL     1      -0.059  10.916  21.021  0.00  0.00    +0.000 A 
ATOM      8  C   UNL     1       0.807   9.887  20.615  0.00  0.00    +0.000 A 
BRANCH   5   9
ATOM      9  O   UNL     1      -1.528  11.897  17.802  0.00  0.00    +0.000 OA
ATOM     10  C   UNL     1      -2.582  11.143  17.208  0.00  0.00    +0.000 C 
ENDBRANCH   5   9
BRANCH   6  11
ATOM     11  O   UNL     1      -1.649  12.673  20.305  0.00  0.00    +0.000 OA
ATOM     12  C   UNL     1      -1.030  13.945  20.441  0.00  0.00    +0.000 C 
ENDBRANCH   6  11
BRANCH   7  13
ATOM     13  O   UNL     1      -0.163  11.319  22.329  0.00  0.00    +0.000 OA
ATOM     14  C   UNL     1      -1.091  10.656  23.177  0.00  0.00    +0.000 C 
ENDBRANCH   7  13
ENDBRANCH   1   3
BRANCH   1  16
ATOM     15  C   UNL     1       2.373   6.158  18.932  0.00  0.00    +0.000 C 
ATOM     16  C   UNL     1       2.173   7.328  19.558  0.00  0.00    +0.000 C 
BRANCH  15  22
ATOM     17  C   UNL     1       3.557   3.952  19.359  0.00  0.00    +0.000 A 
ATOM     18  C   UNL     1       3.682   2.798  20.142  0.00  0.00    +0.000 A 
ATOM     19  C   UNL     1       2.797   2.556  21.194  0.00  0.00    +0.000 A 
ATOM     20  C   UNL     1       1.766   3.452  21.460  0.00  0.00    +0.000 A 
ATOM     21  C   UNL     1       1.623   4.599  20.679  0.00  0.00    +0.000 A 
ATOM     22  C   UNL     1       2.509   4.862  19.621  0.00  0.00    +0.000 A 
BRANCH  17  24
ATOM     23  C   UNL     1       5.729   4.618  18.655  0.00  0.00    +0.000 C 
ATOM     24  O   UNL     1       4.401   4.247  18.316  0.00  0.00    +0.000 OA
ENDBRANCH  17  24
ENDBRANCH  15  22
ENDBRANCH   1  16
TORSDOF 7
ENDMDL
MODEL 9
REMARK VINA RESULT:      -6.7      2.184      3.016
REMARK  Name = 
REMARK  11 active torsions:
REMARK  status: ('A' for Active; 'I' for Inactive)
REMARK    1  A    between atoms: C_1  and  O_2
REMARK    2  A    between atoms: O_2  and  C_3
REMARK    3  A    between atoms: C_8  and  C_9
REMARK    4  A    between atoms: C_10  and  C_11
REMARK    5  A    between atoms: C_11  and  C_13
REMARK    6  A    between atoms: C_15  and  O_16
REMARK    7  A    between atoms: O_16  and  C_17
REMARK    8  A    between atoms: C_18  and  O_19
REMARK    9  A    between atoms: O_19  and  C_20
REMARK   10  A    between atoms: C_21  and  O_22
REMARK   11  A    between atoms: O_22  and  C_23
REMARK                            x       y       z     vdW  Elec       q    Type
REMARK                         _______ _______ _______ _____ _____    ______ ____
ROOT
ATOM      1  C   UNL     1       2.300   7.443  18.959  0.00  0.00    +0.000 C 
ATOM      2  O   UNL     1       1.845   6.995  20.009  0.00  0.00    +0.000 OA
ENDROOT
BRANCH   1   3
ATOM      3  C   UNL     1       3.301   6.647  18.198  0.00  0.00    +0.000 A 
ATOM      4  C   UNL     1       3.053   5.275  18.078  0.00  0.00    +0.000 A 
ATOM      5  C   UNL     1       3.949   4.442  17.406  0.00  0.00    +0.000 A 
ATOM      6  C   UNL     1       5.138   4.976  16.868  0.00  0.00    +0.000 A 
ATOM      7  C   UNL     1       5.388   6.360  16.972  0.00  0.00    +0.000 A 
ATOM      8  C   UNL     1       4.453   7.187  17.615  0.00  0.00    +0.000 A 
BRANCH   5   9
ATOM      9  O   UNL     1       3.736   3.093  17.255  0.00  0.00    +0.000 OA
ATOM     10  C   UNL     1       2.418   2.627  17.536  0.00  0.00    +0.000 C 
ENDBRANCH   5   9
BRANCH   6  11
ATOM     11  O   UNL     1       6.005   4.045  16.348  0.00  0.00    +0.000 OA
ATOM     12  C   UNL     1       6.075   3.933  14.933  0.00  0.00    +0.000 C 
ENDBRANCH   6  11
BRANCH   7  13
ATOM     13  O   UNL     1       6.569   6.840  16.461  0.00  0.00    +0.000 OA
ATOM     14  C   UNL     1       7.596   7.229  17.363  0.00  0.00    +0.000 C 
ENDBRANCH   7  13
ENDBRANCH   1   3
BRANCH   1  16
ATOM     15  C   UNL     1       1.199   9.596  19.253  0.00  0.00    +0.000 C 
ATOM     16  C   UNL     1       1.890   8.774  18.446  0.00  0.00    +0.000 C 
BRANCH  15  22
ATOM     17  C   UNL     1      -0.765  11.033  18.529  0.00  0.00    +0.000 A 
ATOM     18  C   UNL     1      -1.268  12.308  18.245  0.00  0.00    +0.000 A 
ATOM     19  C   UNL     1      -0.431  13.424  18.277  0.00  0.00    +0.000 A 
ATOM     20  C   UNL     1       0.921  13.275  18.572  0.00  0.00    +0.000 A 
ATOM     21  C   UNL     1       1.437  12.009  18.844  0.00  0.00    +0.000 A 
ATOM     22  C   UNL     1       0.608  10.875  18.823  0.00  0.00    +0.000 A 
BRANCH  17  24
ATOM     23  C   UNL     1      -2.580   9.845  17.552  0.00  0.00    +0.000 C 
ATOM     24  O   UNL     1      -1.541   9.899  18.520  0.00  0.00    +0.000 OA
ENDBRANCH  17  24
ENDBRANCH  15  22
ENDBRANCH   1  16
TORSDOF 7
ENDMDL
