MODEL 1
REMARK VINA RESULT:      -6.7      0.000      0.000
REMARK  Name = 
REMARK  5 active torsions:
REMARK  status: ('A' for Active; 'I' for Inactive)
REMARK    1  A    between atoms: C_1  and  C_2
REMARK    2  A    between atoms: C_2  and  N_3
REMARK    3  A    between atoms: C_11  and  C_12
REMARK    4  A    between atoms: C_15  and  C_16
REMARK    5  A    between atoms: N_21  and  C_22
REMARK                            x       y       z     vdW  Elec       q    Type
REMARK                         _______ _______ _______ _____ _____    ______ ____
ROOT
ATOM      1  N   UNL     1       2.582   5.353  19.624  0.00  0.00    +0.000 N 
ATOM      2  C   UNL     1       2.338   6.714  19.684  0.00  0.00    +0.000 C 
ATOM      3  O   UNL     1       2.957   7.495  18.970  0.00  0.00    +0.000 OA
ATOM      4  N   UNL     1       1.393   7.037  20.634  0.00  0.00    +0.000 N 
ATOM      5  C   UNL     1       1.058   8.356  20.803  0.00  0.00    +0.000 A 
ATOM      6  N   UNL     1       1.321   9.330  19.975  0.00  0.00    +0.000 NA
ATOM      7  C   UNL     1       0.942  10.514  20.535  0.00  0.00    +0.000 A 
ATOM      8  C   UNL     1       1.124  11.776  19.982  0.00  0.00    +0.000 A 
ATOM      9  C   UNL     1       0.601  12.908  20.630  0.00  0.00    +0.000 A 
ATOM     10  C   UNL     1      -0.033  12.684  21.897  0.00  0.00    +0.000 A 
ATOM     11  N   UNL     1      -0.609  13.765  22.565  0.00  0.00    +0.000 N 
ATOM     12  N   UNL     1      -0.176  11.462  22.481  0.00  0.00    +0.000 NA
ATOM     13  C   UNL     1       0.309  10.431  21.761  0.00  0.00    +0.000 A 
ATOM     14  S   UNL     1       0.233   8.784  22.242  0.00  0.00    +0.000 S 
ATOM     15  H   UNL     1       1.761   4.773  19.721  0.00  0.00    +0.000 HD
ATOM     16  H   UNL     1       1.180   6.387  21.370  0.00  0.00    +0.000 HD
ATOM     17  H   UNL     1       0.064  14.502  22.725  0.00  0.00    +0.000 HD
ENDROOT
BRANCH   9  18
ATOM     18  C   UNL     1       0.655  14.194  19.867  0.00  0.00    +0.000 A 
ATOM     19  C   UNL     1      -0.455  14.891  19.363  0.00  0.00    +0.000 A 
ATOM     20  C   UNL     1      -0.290  16.065  18.617  0.00  0.00    +0.000 A 
ATOM     21  C   UNL     1       0.990  16.552  18.410  0.00  0.00    +0.000 A 
ATOM     22  N   UNL     1       2.088  15.966  18.925  0.00  0.00    +0.000 NA
ATOM     23  C   UNL     1       1.892  14.820  19.622  0.00  0.00    +0.000 A 
BRANCH  21  24
ATOM     24  C   UNL     1       1.222  17.709  17.595  0.00  0.00    +0.000 C 
ATOM     25  N   UNL     1       1.416  18.630  16.906  0.00  0.00    +0.000 NA
ENDBRANCH  21  24
ENDBRANCH   9  18
BRANCH  11  26
ATOM     26  C   UNL     1      -1.525  13.601  23.704  0.00  0.00    +0.000 C 
ATOM     27  C   UNL     1      -2.887  13.265  23.074  0.00  0.00    +0.000 C 
ATOM     28  C   UNL     1      -4.070  13.550  23.976  0.00  0.00    +0.000 C 
ATOM     29  O   UNL     1      -3.985  14.869  24.502  0.00  0.00    +0.000 OA
ATOM     30  C   UNL     1      -2.857  15.008  25.361  0.00  0.00    +0.000 C 
ATOM     31  C   UNL     1      -1.562  14.870  24.571  0.00  0.00    +0.000 C 
ENDBRANCH  11  26
BRANCH   1  33
ATOM     32  C   UNL     1       2.975   4.282  17.432  0.00  0.00    +0.000 C 
ATOM     33  C   UNL     1       3.581   4.920  18.662  0.00  0.00    +0.000 C 
ENDBRANCH   1  33
TORSDOF 4
ENDMDL
MODEL 2
REMARK VINA RESULT:      -6.4      3.111      8.461
REMARK  Name = 
REMARK  5 active torsions:
REMARK  status: ('A' for Active; 'I' for Inactive)
REMARK    1  A    between atoms: C_1  and  C_2
REMARK    2  A    between atoms: C_2  and  N_3
REMARK    3  A    between atoms: C_11  and  C_12
REMARK    4  A    between atoms: C_15  and  C_16
REMARK    5  A    between atoms: N_21  and  C_22
REMARK                            x       y       z     vdW  Elec       q    Type
REMARK                         _______ _______ _______ _____ _____    ______ ____
ROOT
ATOM      1  N   UNL     1      -6.221  14.016  23.474  0.00  0.00    +0.000 N 
ATOM      2  C   UNL     1      -5.086  13.428  22.942  0.00  0.00    +0.000 C 
ATOM      3  O   UNL     1      -4.931  12.212  22.984  0.00  0.00    +0.000 OA
ATOM      4  N   UNL     1      -4.201  14.355  22.437  0.00  0.00    +0.000 N 
ATOM      5  C   UNL     1      -3.029  13.909  21.882  0.00  0.00    +0.000 A 
ATOM      6  N   UNL     1      -2.768  12.684  21.516  0.00  0.00    +0.000 NA
ATOM      7  C   UNL     1      -1.466  12.598  21.122  0.00  0.00    +0.000 A 
ATOM      8  C   UNL     1      -0.805  11.440  20.728  0.00  0.00    +0.000 A 
ATOM      9  C   UNL     1       0.519  11.513  20.259  0.00  0.00    +0.000 A 
ATOM     10  C   UNL     1       1.140  12.805  20.295  0.00  0.00    +0.000 A 
ATOM     11  N   UNL     1       2.437  12.945  19.801  0.00  0.00    +0.000 N 
ATOM     12  N   UNL     1       0.527  13.943  20.726  0.00  0.00    +0.000 NA
ATOM     13  C   UNL     1      -0.757  13.784  21.107  0.00  0.00    +0.000 A 
ATOM     14  S   UNL     1      -1.773  15.053  21.660  0.00  0.00    +0.000 S 
ATOM     15  H   UNL     1      -6.575  14.801  22.946  0.00  0.00    +0.000 HD
ATOM     16  H   UNL     1      -4.263  15.316  22.725  0.00  0.00    +0.000 HD
ATOM     17  H   UNL     1       3.080  12.321  20.268  0.00  0.00    +0.000 HD
ENDROOT
BRANCH   9  18
ATOM     18  C   UNL     1       1.079  10.262  19.659  0.00  0.00    +0.000 A 
ATOM     19  C   UNL     1       1.449  10.096  18.315  0.00  0.00    +0.000 A 
ATOM     20  C   UNL     1       1.919   8.863  17.844  0.00  0.00    +0.000 A 
ATOM     21  C   UNL     1       2.050   7.812  18.736  0.00  0.00    +0.000 A 
ATOM     22  N   UNL     1       1.776   7.928  20.050  0.00  0.00    +0.000 NA
ATOM     23  C   UNL     1       1.301   9.129  20.464  0.00  0.00    +0.000 A 
BRANCH  21  24
ATOM     24  C   UNL     1       2.458   6.510  18.296  0.00  0.00    +0.000 C 
ATOM     25  N   UNL     1       2.785   5.439  17.967  0.00  0.00    +0.000 NA
ENDBRANCH  21  24
ENDBRANCH   9  18
BRANCH  11  26
ATOM     26  C   UNL     1       3.047  14.254  19.523  0.00  0.00    +0.000 C 
ATOM     27  C   UNL     1       3.713  14.098  18.146  0.00  0.00    +0.000 C 
ATOM     28  C   UNL     1       4.810  15.106  17.874  0.00  0.00    +0.000 C 
ATOM     29  O   UNL     1       5.728  15.143  18.960  0.00  0.00    +0.000 OA
ATOM     30  C   UNL     1       5.102  15.627  20.145  0.00  0.00    +0.000 C 
ATOM     31  C   UNL     1       4.039  14.649  20.629  0.00  0.00    +0.000 C 
ENDBRANCH  11  26
BRANCH   1  33
ATOM     32  C   UNL     1      -7.911  12.274  23.010  0.00  0.00    +0.000 C 
ATOM     33  C   UNL     1      -7.203  13.114  24.050  0.00  0.00    +0.000 C 
ENDBRANCH   1  33
TORSDOF 4
ENDMDL
MODEL 3
REMARK VINA RESULT:      -6.3      4.448      7.948
REMARK  Name = 
REMARK  5 active torsions:
REMARK  status: ('A' for Active; 'I' for Inactive)
REMARK    1  A    between atoms: C_1  and  C_2
REMARK    2  A    between atoms: C_2  and  N_3
REMARK    3  A    between atoms: C_11  and  C_12
REMARK    4  A    between atoms: C_15  and  C_16
REMARK    5  A    between atoms: N_21  and  C_22
REMARK                            x       y       z     vdW  Elec       q    Type
REMARK                         _______ _______ _______ _____ _____    ______ ____
ROOT
ATOM      1  N   UNL     1       5.778  16.006  22.372  0.00  0.00    +0.000 N 
ATOM      2  C   UNL     1       4.485  15.513  22.396  0.00  0.00    +0.000 C 
ATOM      3  O   UNL     1       3.881  15.387  23.457  0.00  0.00    +0.000 OA
ATOM      4  N   UNL     1       4.030  15.169  21.143  0.00  0.00    +0.000 N 
ATOM      5  C   UNL     1       2.761  14.661  21.021  0.00  0.00    +0.000 A 
ATOM      6  N   UNL     1       1.818  14.724  21.921  0.00  0.00    +0.000 NA
ATOM      7  C   UNL     1       0.740  14.007  21.496  0.00  0.00    +0.000 A 
ATOM      8  C   UNL     1      -0.432  13.787  22.212  0.00  0.00    +0.000 A 
ATOM      9  C   UNL     1      -1.503  13.102  21.612  0.00  0.00    +0.000 A 
ATOM     10  C   UNL     1      -1.277  12.592  20.291  0.00  0.00    +0.000 A 
ATOM     11  N   UNL     1      -2.319  11.942  19.630  0.00  0.00    +0.000 N 
ATOM     12  N   UNL     1      -0.119  12.752  19.592  0.00  0.00    +0.000 NA
ATOM     13  C   UNL     1       0.832  13.467  20.227  0.00  0.00    +0.000 A 
ATOM     14  S   UNL     1       2.371  13.847  19.566  0.00  0.00    +0.000 S 
ATOM     15  H   UNL     1       5.984  16.609  21.589  0.00  0.00    +0.000 HD
ATOM     16  H   UNL     1       4.685  15.011  20.398  0.00  0.00    +0.000 HD
ATOM     17  H   UNL     1      -2.666  11.159  20.167  0.00  0.00    +0.000 HD
ENDROOT
BRANCH   9  18
ATOM     18  C   UNL     1      -2.793  13.094  22.370  0.00  0.00    +0.000 A 
ATOM     19  C   UNL     1      -3.059  12.338  23.523  0.00  0.00    +0.000 A 
ATOM     20  C   UNL     1      -4.321  12.367  24.128  0.00  0.00    +0.000 A 
ATOM     21  C   UNL     1      -5.302  13.185  23.592  0.00  0.00    +0.000 A 
ATOM     22  N   UNL     1      -5.088  13.984  22.530  0.00  0.00    +0.000 NA
ATOM     23  C   UNL     1      -3.861  13.912  21.956  0.00  0.00    +0.000 A 
BRANCH  21  24
ATOM     24  C   UNL     1      -6.631  13.200  24.128  0.00  0.00    +0.000 C 
ATOM     25  N   UNL     1      -7.716  13.244  24.557  0.00  0.00    +0.000 NA
ENDBRANCH  21  24
ENDBRANCH   9  18
BRANCH  11  26
ATOM     26  C   UNL     1      -2.288  11.648  18.189  0.00  0.00    +0.000 C 
ATOM     27  C   UNL     1      -3.756  11.722  17.737  0.00  0.00    +0.000 C 
ATOM     28  C   UNL     1      -4.043  10.977  16.450  0.00  0.00    +0.000 C 
ATOM     29  O   UNL     1      -3.525   9.654  16.518  0.00  0.00    +0.000 OA
ATOM     30  C   UNL     1      -2.102   9.663  16.601  0.00  0.00    +0.000 C 
ATOM     31  C   UNL     1      -1.645  10.279  17.917  0.00  0.00    +0.000 C 
ENDBRANCH  11  26
BRANCH   1  33
ATOM     32  C   UNL     1       7.268  15.315  24.218  0.00  0.00    +0.000 C 
ATOM     33  C   UNL     1       6.350  16.377  23.655  0.00  0.00    +0.000 C 
ENDBRANCH   1  33
TORSDOF 4
ENDMDL
MODEL 4
REMARK VINA RESULT:      -5.9      3.761      8.782
REMARK  Name = 
REMARK  5 active torsions:
REMARK  status: ('A' for Active; 'I' for Inactive)
REMARK    1  A    between atoms: C_1  and  C_2
REMARK    2  A    between atoms: C_2  and  N_3
REMARK    3  A    between atoms: C_11  and  C_12
REMARK    4  A    between atoms: C_15  and  C_16
REMARK    5  A    between atoms: N_21  and  C_22
REMARK                            x       y       z     vdW  Elec       q    Type
REMARK                         _______ _______ _______ _____ _____    ______ ____
ROOT
ATOM      1  N   UNL     1      -2.255  15.989  25.217  0.00  0.00    +0.000 N 
ATOM      2  C   UNL     1      -1.777  15.016  24.357  0.00  0.00    +0.000 C 
ATOM      3  O   UNL     1      -0.613  14.635  24.424  0.00  0.00    +0.000 OA
ATOM      4  N   UNL     1      -2.727  14.603  23.449  0.00  0.00    +0.000 N 
ATOM      5  C   UNL     1      -2.386  13.643  22.531  0.00  0.00    +0.000 A 
ATOM      6  N   UNL     1      -1.344  12.859  22.589  0.00  0.00    +0.000 NA
ATOM      7  C   UNL     1      -1.269  12.122  21.445  0.00  0.00    +0.000 A 
ATOM      8  C   UNL     1      -0.259  11.225  21.113  0.00  0.00    +0.000 A 
ATOM      9  C   UNL     1      -0.356  10.463  19.936  0.00  0.00    +0.000 A 
ATOM     10  C   UNL     1      -1.486  10.729  19.093  0.00  0.00    +0.000 A 
ATOM     11  N   UNL     1      -1.657   9.972  17.935  0.00  0.00    +0.000 N 
ATOM     12  N   UNL     1      -2.459  11.639  19.374  0.00  0.00    +0.000 NA
ATOM     13  C   UNL     1      -2.308  12.284  20.549  0.00  0.00    +0.000 A 
ATOM     14  S   UNL     1      -3.402  13.456  21.165  0.00  0.00    +0.000 S 
ATOM     15  H   UNL     1      -3.205  15.846  25.527  0.00  0.00    +0.000 HD
ATOM     16  H   UNL     1      -3.529  15.181  23.266  0.00  0.00    +0.000 HD
ATOM     17  H   UNL     1      -0.848  10.031  17.331  0.00  0.00    +0.000 HD
ENDROOT
BRANCH   9  18
ATOM     18  C   UNL     1       0.659   9.377  19.764  0.00  0.00    +0.000 A 
ATOM     19  C   UNL     1       1.459   9.181  18.627  0.00  0.00    +0.000 A 
ATOM     20  C   UNL     1       2.346   8.100  18.548  0.00  0.00    +0.000 A 
ATOM     21  C   UNL     1       2.450   7.240  19.628  0.00  0.00    +0.000 A 
ATOM     22  N   UNL     1       1.759   7.414  20.771  0.00  0.00    +0.000 NA
ATOM     23  C   UNL     1       0.894   8.457  20.802  0.00  0.00    +0.000 A 
BRANCH  21  24
ATOM     24  C   UNL     1       3.288   6.078  19.574  0.00  0.00    +0.000 C 
ATOM     25  N   UNL     1       3.979   5.137  19.562  0.00  0.00    +0.000 NA
ENDBRANCH  21  24
ENDBRANCH   9  18
BRANCH  11  26
ATOM     26  C   UNL     1      -2.913   9.959  17.169  0.00  0.00    +0.000 C 
ATOM     27  C   UNL     1      -2.495   9.632  15.726  0.00  0.00    +0.000 C 
ATOM     28  C   UNL     1      -3.506  10.055  14.681  0.00  0.00    +0.000 C 
ATOM     29  O   UNL     1      -3.885  11.412  14.879  0.00  0.00    +0.000 OA
ATOM     30  C   UNL     1      -4.577  11.576  16.114  0.00  0.00    +0.000 C 
ATOM     31  C   UNL     1      -3.649  11.304  17.290  0.00  0.00    +0.000 C 
ENDBRANCH  11  26
BRANCH   1  33
ATOM     32  C   UNL     1      -0.713  17.830  25.799  0.00  0.00    +0.000 C 
ATOM     33  C   UNL     1      -1.313  16.500  26.198  0.00  0.00    +0.000 C 
ENDBRANCH   1  33
TORSDOF 4
ENDMDL
MODEL 5
REMARK VINA RESULT:      -5.8      2.949      5.699
REMARK  Name = 
REMARK  5 active torsions:
REMARK  status: ('A' for Active; 'I' for Inactive)
REMARK    1  A    between atoms: C_1  and  C_2
REMARK    2  A    between atoms: C_2  and  N_3
REMARK    3  A    between atoms: C_11  and  C_12
REMARK    4  A    between atoms: C_15  and  C_16
REMARK    5  A    between atoms: N_21  and  C_22
REMARK                            x       y       z     vdW  Elec       q    Type
REMARK                         _______ _______ _______ _____ _____    ______ ____
ROOT
ATOM      1  N   UNL     1       3.260   3.806  17.540  0.00  0.00    +0.000 N 
ATOM      2  C   UNL     1       2.615   4.919  18.049  0.00  0.00    +0.000 C 
ATOM      3  O   UNL     1       1.555   4.808  18.656  0.00  0.00    +0.000 OA
ATOM      4  N   UNL     1       3.276   6.091  17.752  0.00  0.00    +0.000 N 
ATOM      5  C   UNL     1       2.744   7.275  18.194  0.00  0.00    +0.000 A 
ATOM      6  N   UNL     1       1.825   7.411  19.110  0.00  0.00    +0.000 NA
ATOM      7  C   UNL     1       1.462   8.723  19.195  0.00  0.00    +0.000 A 
ATOM      8  C   UNL     1       0.466   9.246  20.011  0.00  0.00    +0.000 A 
ATOM      9  C   UNL     1       0.258  10.635  20.064  0.00  0.00    +0.000 A 
ATOM     10  C   UNL     1       1.061  11.435  19.185  0.00  0.00    +0.000 A 
ATOM     11  N   UNL     1       0.929  12.823  19.226  0.00  0.00    +0.000 N 
ATOM     12  N   UNL     1       2.007  10.939  18.340  0.00  0.00    +0.000 NA
ATOM     13  C   UNL     1       2.171   9.601  18.398  0.00  0.00    +0.000 A 
ATOM     14  S   UNL     1       3.314   8.718  17.469  0.00  0.00    +0.000 S 
ATOM     15  H   UNL     1       4.267   3.835  17.606  0.00  0.00    +0.000 HD
ATOM     16  H   UNL     1       3.944   6.113  17.001  0.00  0.00    +0.000 HD
ATOM     17  H   UNL     1      -0.025  13.110  19.058  0.00  0.00    +0.000 HD
ENDROOT
BRANCH   9  18
ATOM     18  C   UNL     1      -0.683  11.126  21.118  0.00  0.00    +0.000 A 
ATOM     19  C   UNL     1      -0.596  10.835  22.490  0.00  0.00    +0.000 A 
ATOM     20  C   UNL     1      -1.561  11.307  23.388  0.00  0.00    +0.000 A 
ATOM     21  C   UNL     1      -2.591  12.100  22.909  0.00  0.00    +0.000 A 
ATOM     22  N   UNL     1      -2.691  12.469  21.618  0.00  0.00    +0.000 NA
ATOM     23  C   UNL     1      -1.752  11.974  20.773  0.00  0.00    +0.000 A 
BRANCH  21  24
ATOM     24  C   UNL     1      -3.644  12.551  23.772  0.00  0.00    +0.000 C 
ATOM     25  N   UNL     1      -4.482  12.943  24.483  0.00  0.00    +0.000 NA
ENDBRANCH  21  24
ENDBRANCH   9  18
BRANCH  11  26
ATOM     26  C   UNL     1       1.895  13.734  18.593  0.00  0.00    +0.000 C 
ATOM     27  C   UNL     1       3.103  13.758  19.545  0.00  0.00    +0.000 C 
ATOM     28  C   UNL     1       3.987  14.977  19.388  0.00  0.00    +0.000 C 
ATOM     29  O   UNL     1       3.204  16.164  19.418  0.00  0.00    +0.000 OA
ATOM     30  C   UNL     1       2.327  16.229  18.297  0.00  0.00    +0.000 C 
ATOM     31  C   UNL     1       1.280  15.125  18.370  0.00  0.00    +0.000 C 
ENDBRANCH  11  26
BRANCH   1  33
ATOM     32  C   UNL     1       3.344   1.701  18.832  0.00  0.00    +0.000 C 
ATOM     33  C   UNL     1       2.622   2.523  17.788  0.00  0.00    +0.000 C 
ENDBRANCH   1  33
TORSDOF 4
ENDMDL
MODEL 6
REMARK VINA RESULT:      -5.7      2.712      5.382
REMARK  Name = 
REMARK  5 active torsions:
REMARK  status: ('A' for Active; 'I' for Inactive)
REMARK    1  A    between atoms: C_1  and  C_2
REMARK    2  A    between atoms: C_2  and  N_3
REMARK    3  A    between atoms: C_11  and  C_12
REMARK    4  A    between atoms: C_15  and  C_16
REMARK    5  A    between atoms: N_21  and  C_22
REMARK                            x       y       z     vdW  Elec       q    Type
REMARK                         _______ _______ _______ _____ _____    ______ ____
ROOT
ATOM      1  N   UNL     1       2.644   4.073  19.285  0.00  0.00    +0.000 N 
ATOM      2  C   UNL     1       2.082   5.284  19.649  0.00  0.00    +0.000 C 
ATOM      3  O   UNL     1       1.154   5.330  20.450  0.00  0.00    +0.000 OA
ATOM      4  N   UNL     1       2.654   6.349  18.989  0.00  0.00    +0.000 N 
ATOM      5  C   UNL     1       2.188   7.612  19.252  0.00  0.00    +0.000 A 
ATOM      6  N   UNL     1       1.450   7.963  20.270  0.00  0.00    +0.000 NA
ATOM      7  C   UNL     1       1.083   9.269  20.133  0.00  0.00    +0.000 A 
ATOM      8  C   UNL     1       0.244   9.977  20.985  0.00  0.00    +0.000 A 
ATOM      9  C   UNL     1       0.022  11.349  20.772  0.00  0.00    +0.000 A 
ATOM     10  C   UNL     1       0.634  11.922  19.608  0.00  0.00    +0.000 A 
ATOM     11  N   UNL     1       0.484  13.288  19.371  0.00  0.00    +0.000 N 
ATOM     12  N   UNL     1       1.419  11.234  18.733  0.00  0.00    +0.000 NA
ATOM     13  C   UNL     1       1.616   9.938  19.048  0.00  0.00    +0.000 A 
ATOM     14  S   UNL     1       2.587   8.851  18.139  0.00  0.00    +0.000 S 
ATOM     15  H   UNL     1       3.645   4.095  19.157  0.00  0.00    +0.000 HD
ATOM     16  H   UNL     1       3.171   6.194  18.141  0.00  0.00    +0.000 HD
ATOM     17  H   UNL     1      -0.490  13.551  19.322  0.00  0.00    +0.000 HD
ENDROOT
BRANCH   9  18
ATOM     18  C   UNL     1      -0.719  12.076  21.849  0.00  0.00    +0.000 A 
ATOM     19  C   UNL     1      -1.887  11.625  22.485  0.00  0.00    +0.000 A 
ATOM     20  C   UNL     1      -2.531  12.410  23.450  0.00  0.00    +0.000 A 
ATOM     21  C   UNL     1      -1.977  13.631  23.797  0.00  0.00    +0.000 A 
ATOM     22  N   UNL     1      -0.824  14.088  23.273  0.00  0.00    +0.000 NA
ATOM     23  C   UNL     1      -0.241  13.312  22.325  0.00  0.00    +0.000 A 
BRANCH  21  24
ATOM     24  C   UNL     1      -2.631  14.506  24.726  0.00  0.00    +0.000 C 
ATOM     25  N   UNL     1      -3.147  15.204  25.506  0.00  0.00    +0.000 NA
ENDBRANCH  21  24
ENDBRANCH   9  18
BRANCH  11  26
ATOM     26  C   UNL     1       1.299  14.020  18.389  0.00  0.00    +0.000 C 
ATOM     27  C   UNL     1       2.753  13.639  18.715  0.00  0.00    +0.000 C 
ATOM     28  C   UNL     1       3.779  14.626  18.200  0.00  0.00    +0.000 C 
ATOM     29  O   UNL     1       3.428  15.950  18.584  0.00  0.00    +0.000 OA
ATOM     30  C   UNL     1       2.214  16.361  17.962  0.00  0.00    +0.000 C 
ATOM     31  C   UNL     1       1.042  15.533  18.474  0.00  0.00    +0.000 C 
ENDBRANCH  11  26
BRANCH   1  33
ATOM     32  C   UNL     1       1.141   2.131  19.014  0.00  0.00    +0.000 C 
ATOM     33  C   UNL     1       2.088   2.889  19.917  0.00  0.00    +0.000 C 
ENDBRANCH   1  33
TORSDOF 4
ENDMDL
MODEL 7
REMARK VINA RESULT:      -5.7      3.845      8.474
REMARK  Name = 
REMARK  5 active torsions:
REMARK  status: ('A' for Active; 'I' for Inactive)
REMARK    1  A    between atoms: C_1  and  C_2
REMARK    2  A    between atoms: C_2  and  N_3
REMARK    3  A    between atoms: C_11  and  C_12
REMARK    4  A    between atoms: C_15  and  C_16
REMARK    5  A    between atoms: N_21  and  C_22
REMARK                            x       y       z     vdW  Elec       q    Type
REMARK                         _______ _______ _______ _____ _____    ______ ____
ROOT
ATOM      1  N   UNL     1       0.181  17.112  23.496  0.00  0.00    +0.000 N 
ATOM      2  C   UNL     1       0.373  15.942  22.784  0.00  0.00    +0.000 C 
ATOM      3  O   UNL     1       1.485  15.429  22.707  0.00  0.00    +0.000 OA
ATOM      4  N   UNL     1      -0.783  15.497  22.182  0.00  0.00    +0.000 N 
ATOM      5  C   UNL     1      -0.735  14.345  21.439  0.00  0.00    +0.000 A 
ATOM      6  N   UNL     1       0.220  13.455  21.459  0.00  0.00    +0.000 NA
ATOM      7  C   UNL     1      -0.019  12.514  20.502  0.00  0.00    +0.000 A 
ATOM      8  C   UNL     1       0.809  11.446  20.180  0.00  0.00    +0.000 A 
ATOM      9  C   UNL     1       0.394  10.497  19.229  0.00  0.00    +0.000 A 
ATOM     10  C   UNL     1      -0.861  10.748  18.581  0.00  0.00    +0.000 A 
ATOM     11  N   UNL     1      -1.344   9.817  17.662  0.00  0.00    +0.000 N 
ATOM     12  N   UNL     1      -1.664  11.815  18.846  0.00  0.00    +0.000 NA
ATOM     13  C   UNL     1      -1.207  12.642  19.808  0.00  0.00    +0.000 A 
ATOM     14  S   UNL     1      -2.033  14.043  20.363  0.00  0.00    +0.000 S 
ATOM     15  H   UNL     1      -0.690  17.158  24.005  0.00  0.00    +0.000 HD
ATOM     16  H   UNL     1      -1.549  16.131  22.039  0.00  0.00    +0.000 HD
ATOM     17  H   UNL     1      -0.682   9.655  16.916  0.00  0.00    +0.000 HD
ENDROOT
BRANCH   9  18
ATOM     18  C   UNL     1       1.245   9.273  19.097  0.00  0.00    +0.000 A 
ATOM     19  C   UNL     1       1.424   8.293  20.087  0.00  0.00    +0.000 A 
ATOM     20  C   UNL     1       2.285   7.208  19.878  0.00  0.00    +0.000 A 
ATOM     21  C   UNL     1       2.935   7.094  18.660  0.00  0.00    +0.000 A 
ATOM     22  N   UNL     1       2.752   7.965  17.649  0.00  0.00    +0.000 NA
ATOM     23  C   UNL     1       1.930   9.015  17.896  0.00  0.00    +0.000 A 
BRANCH  21  24
ATOM     24  C   UNL     1       3.881   6.044  18.418  0.00  0.00    +0.000 C 
ATOM     25  N   UNL     1       4.670   5.202  18.245  0.00  0.00    +0.000 NA
ENDBRANCH  21  24
ENDBRANCH   9  18
BRANCH  11  26
ATOM     26  C   UNL     1      -2.730   9.829  17.171  0.00  0.00    +0.000 C 
ATOM     27  C   UNL     1      -2.682  10.632  15.861  0.00  0.00    +0.000 C 
ATOM     28  C   UNL     1      -4.018  11.209  15.441  0.00  0.00    +0.000 C 
ATOM     29  O   UNL     1      -4.618  11.907  16.526  0.00  0.00    +0.000 OA
ATOM     30  C   UNL     1      -4.946  11.018  17.590  0.00  0.00    +0.000 C 
ATOM     31  C   UNL     1      -3.683  10.438  18.213  0.00  0.00    +0.000 C 
ENDBRANCH  11  26
BRANCH   1  33
ATOM     32  C   UNL     1       1.336  17.475  25.650  0.00  0.00    +0.000 C 
ATOM     33  C   UNL     1       1.354  17.668  24.150  0.00  0.00    +0.000 C 
ENDBRANCH   1  33
TORSDOF 4
ENDMDL
MODEL 8
REMARK VINA RESULT:      -5.7      2.757      5.403
REMARK  Name = 
REMARK  5 active torsions:
REMARK  status: ('A' for Active; 'I' for Inactive)
REMARK    1  A    between atoms: C_1  and  C_2
REMARK    2  A    between atoms: C_2  and  N_3
REMARK    3  A    between atoms: C_11  and  C_12
REMARK    4  A    between atoms: C_15  and  C_16
REMARK    5  A    between atoms: N_21  and  C_22
REMARK                            x       y       z     vdW  Elec       q    Type
REMARK                         _______ _______ _______ _____ _____    ______ ____
ROOT
ATOM      1  N   UNL     1       2.177   6.161  20.120  0.00  0.00    +0.000 N 
ATOM      2  C   UNL     1       1.557   7.367  20.398  0.00  0.00    +0.000 C 
ATOM      3  O   UNL     1       0.698   7.445  21.270  0.00  0.00    +0.000 OA
ATOM      4  N   UNL     1       1.990   8.383  19.574  0.00  0.00    +0.000 N 
ATOM      5  C   UNL     1       1.454   9.635  19.738  0.00  0.00    +0.000 A 
ATOM      6  N   UNL     1       0.779  10.053  20.774  0.00  0.00    +0.000 NA
ATOM      7  C   UNL     1       0.304  11.307  20.527  0.00  0.00    +0.000 A 
ATOM      8  C   UNL     1      -0.513  12.053  21.368  0.00  0.00    +0.000 A 
ATOM      9  C   UNL     1      -0.855  13.373  21.025  0.00  0.00    +0.000 A 
ATOM     10  C   UNL     1      -0.387  13.846  19.754  0.00  0.00    +0.000 A 
ATOM     11  N   UNL     1      -0.658  15.162  19.381  0.00  0.00    +0.000 N 
ATOM     12  N   UNL     1       0.372  13.113  18.892  0.00  0.00    +0.000 NA
ATOM     13  C   UNL     1       0.693  11.879  19.330  0.00  0.00    +0.000 A 
ATOM     14  S   UNL     1       1.664  10.759  18.463  0.00  0.00    +0.000 S 
ATOM     15  H   UNL     1       3.159   6.234  19.900  0.00  0.00    +0.000 HD
ATOM     16  H   UNL     1       2.446   8.164  18.706  0.00  0.00    +0.000 HD
ATOM     17  H   UNL     1      -1.651  15.353  19.393  0.00  0.00    +0.000 HD
ENDROOT
BRANCH   9  18
ATOM     18  C   UNL     1      -1.557  14.172  22.078  0.00  0.00    +0.000 A 
ATOM     19  C   UNL     1      -1.205  14.219  23.437  0.00  0.00    +0.000 A 
ATOM     20  C   UNL     1      -1.962  14.962  24.351  0.00  0.00    +0.000 A 
ATOM     21  C   UNL     1      -3.049  15.686  23.888  0.00  0.00    +0.000 A 
ATOM     22  N   UNL     1      -3.395  15.735  22.588  0.00  0.00    +0.000 NA
ATOM     23  C   UNL     1      -2.654  14.983  21.736  0.00  0.00    +0.000 A 
BRANCH  21  24
ATOM     24  C   UNL     1      -3.899  16.406  24.790  0.00  0.00    +0.000 C 
ATOM     25  N   UNL     1      -4.565  17.001  25.542  0.00  0.00    +0.000 NA
ENDBRANCH  21  24
ENDBRANCH   9  18
BRANCH  11  26
ATOM     26  C   UNL     1       0.015  15.826  18.254  0.00  0.00    +0.000 C 
ATOM     27  C   UNL     1       1.466  16.027  18.720  0.00  0.00    +0.000 C 
ATOM     28  C   UNL     1       2.208  17.114  17.972  0.00  0.00    +0.000 C 
ATOM     29  O   UNL     1       1.439  18.310  17.945  0.00  0.00    +0.000 OA
ATOM     30  C   UNL     1       0.240  18.133  17.195  0.00  0.00    +0.000 C 
ATOM     31  C   UNL     1      -0.687  17.144  17.889  0.00  0.00    +0.000 C 
ENDBRANCH  11  26
BRANCH   1  33
ATOM     32  C   UNL     1       0.903   4.045  20.167  0.00  0.00    +0.000 C 
ATOM     33  C   UNL     1       1.767   5.025  20.928  0.00  0.00    +0.000 C 
ENDBRANCH   1  33
TORSDOF 4
ENDMDL
MODEL 9
REMARK VINA RESULT:      -5.6      4.144      8.375
REMARK  Name = 
REMARK  5 active torsions:
REMARK  status: ('A' for Active; 'I' for Inactive)
REMARK    1  A    between atoms: C_1  and  C_2
REMARK    2  A    between atoms: C_2  and  N_3
REMARK    3  A    between atoms: C_11  and  C_12
REMARK    4  A    between atoms: C_15  and  C_16
REMARK    5  A    between atoms: N_21  and  C_22
REMARK                            x       y       z     vdW  Elec       q    Type
REMARK                         _______ _______ _______ _____ _____    ______ ____
ROOT
ATOM      1  N   UNL     1       3.812  17.628  23.251  0.00  0.00    +0.000 N 
ATOM      2  C   UNL     1       3.505  16.462  22.573  0.00  0.00    +0.000 C 
ATOM      3  O   UNL     1       4.351  15.589  22.410  0.00  0.00    +0.000 OA
ATOM      4  N   UNL     1       2.210  16.453  22.103  0.00  0.00    +0.000 N 
ATOM      5  C   UNL     1       1.772  15.356  21.406  0.00  0.00    +0.000 A 
ATOM      6  N   UNL     1       2.349  14.185  21.372  0.00  0.00    +0.000 NA
ATOM      7  C   UNL     1       1.696  13.386  20.482  0.00  0.00    +0.000 A 
ATOM      8  C   UNL     1       2.057  12.092  20.125  0.00  0.00    +0.000 A 
ATOM      9  C   UNL     1       1.238  11.347  19.259  0.00  0.00    +0.000 A 
ATOM     10  C   UNL     1       0.092  12.023  18.724  0.00  0.00    +0.000 A 
ATOM     11  N   UNL     1      -0.781  11.320  17.895  0.00  0.00    +0.000 N 
ATOM     12  N   UNL     1      -0.252  13.308  19.021  0.00  0.00    +0.000 NA
ATOM     13  C   UNL     1       0.564  13.923  19.900  0.00  0.00    +0.000 A 
ATOM     14  S   UNL     1       0.347  15.528  20.473  0.00  0.00    +0.000 S 
ATOM     15  H   UNL     1       3.071  17.981  23.839  0.00  0.00    +0.000 HD
ATOM     16  H   UNL     1       1.705  17.317  22.008  0.00  0.00    +0.000 HD
ATOM     17  H   UNL     1      -0.299  10.930  17.096  0.00  0.00    +0.000 HD
ENDROOT
BRANCH   9  18
ATOM     18  C   UNL     1       1.585   9.901  19.096  0.00  0.00    +0.000 A 
ATOM     19  C   UNL     1       2.022   9.295  17.907  0.00  0.00    +0.000 A 
ATOM     20  C   UNL     1       2.274   7.918  17.851  0.00  0.00    +0.000 A 
ATOM     21  C   UNL     1       2.120   7.162  19.001  0.00  0.00    +0.000 A 
ATOM     22  N   UNL     1       1.769   7.696  20.187  0.00  0.00    +0.000 NA
ATOM     23  C   UNL     1       1.511   9.028  20.198  0.00  0.00    +0.000 A 
BRANCH  21  24
ATOM     24  C   UNL     1       2.295   5.739  18.984  0.00  0.00    +0.000 C 
ATOM     25  N   UNL     1       2.414   4.578  18.992  0.00  0.00    +0.000 NA
ENDBRANCH  21  24
ENDBRANCH   9  18
BRANCH  11  26
ATOM     26  C   UNL     1      -2.118  11.820  17.538  0.00  0.00    +0.000 C 
ATOM     27  C   UNL     1      -2.956  11.663  18.818  0.00  0.00    +0.000 C 
ATOM     28  C   UNL     1      -4.450  11.623  18.575  0.00  0.00    +0.000 C 
ATOM     29  O   UNL     1      -4.762  10.677  17.560  0.00  0.00    +0.000 OA
ATOM     30  C   UNL     1      -4.220  11.075  16.303  0.00  0.00    +0.000 C 
ATOM     31  C   UNL     1      -2.697  11.046  16.342  0.00  0.00    +0.000 C 
ENDBRANCH  11  26
BRANCH   1  33
ATOM     32  C   UNL     1       5.250  17.482  25.255  0.00  0.00    +0.000 C 
ATOM     33  C   UNL     1       5.167  17.736  23.766  0.00  0.00    +0.000 C 
ENDBRANCH   1  33
TORSDOF 4
ENDMDL
