MODEL 1
REMARK VINA RESULT:      -7.3      0.000      0.000
REMARK  Name = 
REMARK  7 active torsions:
REMARK  status: ('A' for Active; 'I' for Inactive)
REMARK    1  A    between atoms: C_2  and  C_3
REMARK    2  A    between atoms: C_3  and  O_4
REMARK    3  A    between atoms: O_4  and  C_5
REMARK    4  A    between atoms: C_5  and  C_7
REMARK    5  A    between atoms: C_7  and  O_8
REMARK    6  A    between atoms: O_8  and  C_9
REMARK    7  A    between atoms: N_17  and  C_18
REMARK                            x       y       z     vdW  Elec       q    Type
REMARK                         _______ _______ _______ _____ _____    ______ ____
ROOT
ATOM      1  C   UNL     1       6.830   6.038  17.166  0.00  0.00    +0.000 C 
ATOM      2  O   UNL     1       6.303   7.026  16.669  0.00  0.00    +0.000 OA
ENDROOT
BRANCH   1   3
ATOM      3  O   UNL     1       7.580   5.132  16.471  0.00  0.00    +0.000 OA
BRANCH   3   4
ATOM      4  C   UNL     1       6.789   4.121  15.847  0.00  0.00    +0.000 C 
BRANCH   4   6
ATOM      5  O   UNL     1       7.318   5.281  13.786  0.00  0.00    +0.000 OA
ATOM      6  C   UNL     1       6.777   4.316  14.328  0.00  0.00    +0.000 C 
ATOM      7  N   UNL     1       6.115   3.322  13.632  0.00  0.00    +0.000 N 
ATOM      8  H   UNL     1       5.811   2.496  14.137  0.00  0.00    +0.000 HD
BRANCH   7   9
ATOM      9  C   UNL     1       6.057   3.295  12.204  0.00  0.00    +0.000 C 
ATOM     10  C   UNL     1       5.633   2.048  11.477  0.00  0.00    +0.000 C 
ATOM     11  C   UNL     1       4.726   3.243  11.504  0.00  0.00    +0.000 C 
ENDBRANCH   7   9
ENDBRANCH   4   6
ENDBRANCH   3   4
ENDBRANCH   1   3
BRANCH   1  12
ATOM     12  C   UNL     1       6.675   5.607  18.609  0.00  0.00    +0.000 C 
BRANCH  12  13
ATOM     13  O   UNL     1       5.401   5.973  19.110  0.00  0.00    +0.000 OA
BRANCH  13  14
ATOM     14  C   UNL     1       4.393   5.051  18.991  0.00  0.00    +0.000 A 
ATOM     15  C   UNL     1       4.530   3.685  19.272  0.00  0.00    +0.000 A 
ATOM     16  C   UNL     1       3.437   2.821  19.141  0.00  0.00    +0.000 A 
ATOM     17  C   UNL     1       2.204   3.316  18.724  0.00  0.00    +0.000 A 
ATOM     18 CL   UNL     1       0.861   2.250  18.583  0.00  0.00    +0.000 Cl
ATOM     19  C   UNL     1       2.053   4.665  18.424  0.00  0.00    +0.000 A 
ATOM     20  C   UNL     1       3.145   5.527  18.555  0.00  0.00    +0.000 A 
ATOM     21 BR   UNL     1       2.878   7.361  18.132  0.00  0.00    +0.000 Br
ENDBRANCH  13  14
ENDBRANCH  12  13
ENDBRANCH   1  12
TORSDOF 7
ENDMDL
MODEL 2
REMARK VINA RESULT:      -7.2      1.166      1.172
REMARK  Name = 
REMARK  7 active torsions:
REMARK  status: ('A' for Active; 'I' for Inactive)
REMARK    1  A    between atoms: C_2  and  C_3
REMARK    2  A    between atoms: C_3  and  O_4
REMARK    3  A    between atoms: O_4  and  C_5
REMARK    4  A    between atoms: C_5  and  C_7
REMARK    5  A    between atoms: C_7  and  O_8
REMARK    6  A    between atoms: O_8  and  C_9
REMARK    7  A    between atoms: N_17  and  C_18
REMARK                            x       y       z     vdW  Elec       q    Type
REMARK                         _______ _______ _______ _____ _____    ______ ____
ROOT
ATOM      1  C   UNL     1       6.723   6.254  17.091  0.00  0.00    +0.000 C 
ATOM      2  O   UNL     1       6.475   7.347  16.594  0.00  0.00    +0.000 OA
ENDROOT
BRANCH   1   3
ATOM      3  O   UNL     1       7.532   5.313  16.522  0.00  0.00    +0.000 OA
BRANCH   3   4
ATOM      4  C   UNL     1       6.801   4.253  15.906  0.00  0.00    +0.000 C 
BRANCH   4   6
ATOM      5  O   UNL     1       7.396   5.342  13.824  0.00  0.00    +0.000 OA
ATOM      6  C   UNL     1       6.790   4.428  14.384  0.00  0.00    +0.000 C 
ATOM      7  N   UNL     1       6.049   3.477  13.708  0.00  0.00    +0.000 N 
ATOM      8  H   UNL     1       5.688   2.682  14.227  0.00  0.00    +0.000 HD
BRANCH   7   9
ATOM      9  C   UNL     1       5.975   3.434  12.282  0.00  0.00    +0.000 C 
ATOM     10  C   UNL     1       5.588   2.166  11.570  0.00  0.00    +0.000 C 
ATOM     11  C   UNL     1       4.639   3.328  11.598  0.00  0.00    +0.000 C 
ENDBRANCH   7   9
ENDBRANCH   4   6
ENDBRANCH   3   4
ENDBRANCH   1   3
BRANCH   1  12
ATOM     12  C   UNL     1       6.113   5.728  18.373  0.00  0.00    +0.000 C 
BRANCH  12  13
ATOM     13  O   UNL     1       4.701   5.837  18.341  0.00  0.00    +0.000 OA
BRANCH  13  14
ATOM     14  C   UNL     1       3.987   4.975  19.133  0.00  0.00    +0.000 A 
ATOM     15  C   UNL     1       4.323   3.631  19.347  0.00  0.00    +0.000 A 
ATOM     16  C   UNL     1       3.545   2.831  20.190  0.00  0.00    +0.000 A 
ATOM     17  C   UNL     1       2.425   3.367  20.821  0.00  0.00    +0.000 A 
ATOM     18 CL   UNL     1       1.484   2.381  21.870  0.00  0.00    +0.000 Cl
ATOM     19  C   UNL     1       2.066   4.693  20.608  0.00  0.00    +0.000 A 
ATOM     20  C   UNL     1       2.844   5.491  19.766  0.00  0.00    +0.000 A 
ATOM     21 BR   UNL     1       2.305   7.297  19.514  0.00  0.00    +0.000 Br
ENDBRANCH  13  14
ENDBRANCH  12  13
ENDBRANCH   1  12
TORSDOF 7
ENDMDL
MODEL 3
REMARK VINA RESULT:      -6.7      1.774      2.198
REMARK  Name = 
REMARK  7 active torsions:
REMARK  status: ('A' for Active; 'I' for Inactive)
REMARK    1  A    between atoms: C_2  and  C_3
REMARK    2  A    between atoms: C_3  and  O_4
REMARK    3  A    between atoms: O_4  and  C_5
REMARK    4  A    between atoms: C_5  and  C_7
REMARK    5  A    between atoms: C_7  and  O_8
REMARK    6  A    between atoms: O_8  and  C_9
REMARK    7  A    between atoms: N_17  and  C_18
REMARK                            x       y       z     vdW  Elec       q    Type
REMARK                         _______ _______ _______ _____ _____    ______ ____
ROOT
ATOM      1  C   UNL     1       7.609   4.694  17.716  0.00  0.00    +0.000 C 
ATOM      2  O   UNL     1       8.619   4.077  18.036  0.00  0.00    +0.000 OA
ENDROOT
BRANCH   1   3
ATOM      3  O   UNL     1       7.332   5.116  16.447  0.00  0.00    +0.000 OA
BRANCH   3   4
ATOM      4  C   UNL     1       6.358   4.303  15.793  0.00  0.00    +0.000 C 
BRANCH   4   6
ATOM      5  O   UNL     1       7.248   5.228  13.738  0.00  0.00    +0.000 OA
ATOM      6  C   UNL     1       6.531   4.382  14.273  0.00  0.00    +0.000 C 
ATOM      7  N   UNL     1       5.821   3.428  13.570  0.00  0.00    +0.000 N 
ATOM      8  H   UNL     1       5.359   2.687  14.087  0.00  0.00    +0.000 HD
BRANCH   7   9
ATOM      9  C   UNL     1       5.910   3.300  12.150  0.00  0.00    +0.000 C 
ATOM     10  C   UNL     1       5.639   1.980  11.480  0.00  0.00    +0.000 C 
ATOM     11  C   UNL     1       4.662   3.109  11.330  0.00  0.00    +0.000 C 
ENDBRANCH   7   9
ENDBRANCH   4   6
ENDBRANCH   3   4
ENDBRANCH   1   3
BRANCH   1  12
ATOM     12  C   UNL     1       6.541   5.164  18.680  0.00  0.00    +0.000 C 
BRANCH  12  13
ATOM     13  O   UNL     1       5.971   4.069  19.374  0.00  0.00    +0.000 OA
BRANCH  13  14
ATOM     14  C   UNL     1       4.636   3.828  19.178  0.00  0.00    +0.000 A 
ATOM     15  C   UNL     1       3.781   4.655  18.435  0.00  0.00    +0.000 A 
ATOM     16  C   UNL     1       2.433   4.317  18.271  0.00  0.00    +0.000 A 
ATOM     17  C   UNL     1       1.931   3.156  18.851  0.00  0.00    +0.000 A 
ATOM     18 CL   UNL     1       0.277   2.738  18.630  0.00  0.00    +0.000 Cl
ATOM     19  C   UNL     1       2.759   2.331  19.605  0.00  0.00    +0.000 A 
ATOM     20  C   UNL     1       4.104   2.670  19.768  0.00  0.00    +0.000 A 
ATOM     21 BR   UNL     1       5.188   1.504  20.809  0.00  0.00    +0.000 Br
ENDBRANCH  13  14
ENDBRANCH  12  13
ENDBRANCH   1  12
TORSDOF 7
ENDMDL
MODEL 4
REMARK VINA RESULT:      -6.5      1.491      1.981
REMARK  Name = 
REMARK  7 active torsions:
REMARK  status: ('A' for Active; 'I' for Inactive)
REMARK    1  A    between atoms: C_2  and  C_3
REMARK    2  A    between atoms: C_3  and  O_4
REMARK    3  A    between atoms: O_4  and  C_5
REMARK    4  A    between atoms: C_5  and  C_7
REMARK    5  A    between atoms: C_7  and  O_8
REMARK    6  A    between atoms: O_8  and  C_9
REMARK    7  A    between atoms: N_17  and  C_18
REMARK                            x       y       z     vdW  Elec       q    Type
REMARK                         _______ _______ _______ _____ _____    ______ ____
ROOT
ATOM      1  C   UNL     1       6.577   5.454  15.513  0.00  0.00    +0.000 C 
ATOM      2  O   UNL     1       7.538   5.313  16.260  0.00  0.00    +0.000 OA
ENDROOT
BRANCH   1   3
ATOM      3  O   UNL     1       6.558   5.079  14.200  0.00  0.00    +0.000 OA
BRANCH   3   4
ATOM      4  C   UNL     1       6.141   3.727  14.015  0.00  0.00    +0.000 C 
BRANCH   4   6
ATOM      5  O   UNL     1       6.864   3.051  11.803  0.00  0.00    +0.000 OA
ATOM      6  C   UNL     1       5.941   3.429  12.526  0.00  0.00    +0.000 C 
ATOM      7  N   UNL     1       4.648   3.618  12.077  0.00  0.00    +0.000 N 
ATOM      8  H   UNL     1       3.919   3.803  12.758  0.00  0.00    +0.000 HD
BRANCH   7   9
ATOM      9  C   UNL     1       4.253   3.326  10.735  0.00  0.00    +0.000 C 
ATOM     10  C   UNL     1       2.905   2.722  10.446  0.00  0.00    +0.000 C 
ATOM     11  C   UNL     1       3.182   4.147  10.068  0.00  0.00    +0.000 C 
ENDBRANCH   7   9
ENDBRANCH   4   6
ENDBRANCH   3   4
ENDBRANCH   1   3
BRANCH   1  12
ATOM     12  C   UNL     1       5.279   6.138  15.891  0.00  0.00    +0.000 C 
BRANCH  12  13
ATOM     13  O   UNL     1       4.980   5.927  17.260  0.00  0.00    +0.000 OA
BRANCH  13  14
ATOM     14  C   UNL     1       3.988   5.027  17.553  0.00  0.00    +0.000 A 
ATOM     15  C   UNL     1       4.101   3.640  17.385  0.00  0.00    +0.000 A 
ATOM     16  C   UNL     1       3.041   2.795  17.732  0.00  0.00    +0.000 A 
ATOM     17  C   UNL     1       1.862   3.331  18.243  0.00  0.00    +0.000 A 
ATOM     18 CL   UNL     1       0.570   2.283  18.683  0.00  0.00    +0.000 Cl
ATOM     19  C   UNL     1       1.724   4.705  18.401  0.00  0.00    +0.000 A 
ATOM     20  C   UNL     1       2.784   5.548  18.055  0.00  0.00    +0.000 A 
ATOM     21 BR   UNL     1       2.539   7.418  18.293  0.00  0.00    +0.000 Br
ENDBRANCH  13  14
ENDBRANCH  12  13
ENDBRANCH   1  12
TORSDOF 7
ENDMDL
MODEL 5
REMARK VINA RESULT:      -6.5      1.871      2.265
REMARK  Name = 
REMARK  7 active torsions:
REMARK  status: ('A' for Active; 'I' for Inactive)
REMARK    1  A    between atoms: C_2  and  C_3
REMARK    2  A    between atoms: C_3  and  O_4
REMARK    3  A    between atoms: O_4  and  C_5
REMARK    4  A    between atoms: C_5  and  C_7
REMARK    5  A    between atoms: C_7  and  O_8
REMARK    6  A    between atoms: O_8  and  C_9
REMARK    7  A    between atoms: N_17  and  C_18
REMARK                            x       y       z     vdW  Elec       q    Type
REMARK                         _______ _______ _______ _____ _____    ______ ____
ROOT
ATOM      1  C   UNL     1       5.808   5.668  18.154  0.00  0.00    +0.000 C 
ATOM      2  O   UNL     1       6.051   5.264  19.285  0.00  0.00    +0.000 OA
ENDROOT
BRANCH   1   3
ATOM      3  O   UNL     1       6.703   5.660  17.122  0.00  0.00    +0.000 OA
BRANCH   3   4
ATOM      4  C   UNL     1       6.754   4.405  16.443  0.00  0.00    +0.000 C 
BRANCH   4   6
ATOM      5  O   UNL     1       7.563   5.527  14.453  0.00  0.00    +0.000 OA
ATOM      6  C   UNL     1       6.878   4.623  14.931  0.00  0.00    +0.000 C 
ATOM      7  N   UNL     1       6.163   3.720  14.167  0.00  0.00    +0.000 N 
ATOM      8  H   UNL     1       5.730   2.927  14.630  0.00  0.00    +0.000 HD
BRANCH   7   9
ATOM      9  C   UNL     1       6.209   3.720  12.739  0.00  0.00    +0.000 C 
ATOM     10  C   UNL     1       6.136   2.429  11.969  0.00  0.00    +0.000 C 
ATOM     11  C   UNL     1       4.977   3.381  11.944  0.00  0.00    +0.000 C 
ENDBRANCH   7   9
ENDBRANCH   4   6
ENDBRANCH   3   4
ENDBRANCH   1   3
BRANCH   1  12
ATOM     12  C   UNL     1       4.509   6.319  17.727  0.00  0.00    +0.000 C 
BRANCH  12  13
ATOM     13  O   UNL     1       3.506   5.344  17.506  0.00  0.00    +0.000 OA
BRANCH  13  14
ATOM     14  C   UNL     1       2.943   4.762  18.612  0.00  0.00    +0.000 A 
ATOM     15  C   UNL     1       2.457   5.470  19.720  0.00  0.00    +0.000 A 
ATOM     16  C   UNL     1       1.878   4.790  20.798  0.00  0.00    +0.000 A 
ATOM     17  C   UNL     1       1.786   3.401  20.777  0.00  0.00    +0.000 A 
ATOM     18 CL   UNL     1       1.057   2.575  22.098  0.00  0.00    +0.000 Cl
ATOM     19  C   UNL     1       2.278   2.680  19.694  0.00  0.00    +0.000 A 
ATOM     20  C   UNL     1       2.855   3.360  18.619  0.00  0.00    +0.000 A 
ATOM     21 BR   UNL     1       3.509   2.322  17.167  0.00  0.00    +0.000 Br
ENDBRANCH  13  14
ENDBRANCH  12  13
ENDBRANCH   1  12
TORSDOF 7
ENDMDL
MODEL 6
REMARK VINA RESULT:      -6.5      1.171      1.402
REMARK  Name = 
REMARK  7 active torsions:
REMARK  status: ('A' for Active; 'I' for Inactive)
REMARK    1  A    between atoms: C_2  and  C_3
REMARK    2  A    between atoms: C_3  and  O_4
REMARK    3  A    between atoms: O_4  and  C_5
REMARK    4  A    between atoms: C_5  and  C_7
REMARK    5  A    between atoms: C_7  and  O_8
REMARK    6  A    between atoms: O_8  and  C_9
REMARK    7  A    between atoms: N_17  and  C_18
REMARK                            x       y       z     vdW  Elec       q    Type
REMARK                         _______ _______ _______ _____ _____    ______ ____
ROOT
ATOM      1  C   UNL     1       6.452   5.934  17.681  0.00  0.00    +0.000 C 
ATOM      2  O   UNL     1       6.523   5.842  18.901  0.00  0.00    +0.000 OA
ENDROOT
BRANCH   1   3
ATOM      3  O   UNL     1       7.447   5.567  16.820  0.00  0.00    +0.000 OA
BRANCH   3   4
ATOM      4  C   UNL     1       7.169   4.342  16.143  0.00  0.00    +0.000 C 
BRANCH   4   6
ATOM      5  O   UNL     1       7.749   5.444  14.064  0.00  0.00    +0.000 OA
ATOM      6  C   UNL     1       7.086   4.576  14.631  0.00  0.00    +0.000 C 
ATOM      7  N   UNL     1       6.212   3.731  13.973  0.00  0.00    +0.000 N 
ATOM      8  H   UNL     1       5.802   2.958  14.488  0.00  0.00    +0.000 HD
BRANCH   7   9
ATOM      9  C   UNL     1       6.051   3.751  12.553  0.00  0.00    +0.000 C 
ATOM     10  C   UNL     1       6.821   2.799  11.679  0.00  0.00    +0.000 C 
ATOM     11  C   UNL     1       5.342   2.620  11.858  0.00  0.00    +0.000 C 
ENDBRANCH   7   9
ENDBRANCH   4   6
ENDBRANCH   3   4
ENDBRANCH   1   3
BRANCH   1  12
ATOM     12  C   UNL     1       5.290   6.543  16.925  0.00  0.00    +0.000 C 
BRANCH  12  13
ATOM     13  O   UNL     1       4.157   6.676  17.765  0.00  0.00    +0.000 OA
BRANCH  13  14
ATOM     14  C   UNL     1       3.365   5.569  17.930  0.00  0.00    +0.000 A 
ATOM     15  C   UNL     1       3.480   4.393  17.177  0.00  0.00    +0.000 A 
ATOM     16  C   UNL     1       2.639   3.304  17.430  0.00  0.00    +0.000 A 
ATOM     17  C   UNL     1       1.676   3.386  18.432  0.00  0.00    +0.000 A 
ATOM     18 CL   UNL     1       0.657   2.036  18.749  0.00  0.00    +0.000 Cl
ATOM     19  C   UNL     1       1.535   4.551  19.178  0.00  0.00    +0.000 A 
ATOM     20  C   UNL     1       2.375   5.637  18.924  0.00  0.00    +0.000 A 
ATOM     21 BR   UNL     1       2.137   7.203  19.976  0.00  0.00    +0.000 Br
ENDBRANCH  13  14
ENDBRANCH  12  13
ENDBRANCH   1  12
TORSDOF 7
ENDMDL
MODEL 7
REMARK VINA RESULT:      -6.5      1.460      1.603
REMARK  Name = 
REMARK  7 active torsions:
REMARK  status: ('A' for Active; 'I' for Inactive)
REMARK    1  A    between atoms: C_2  and  C_3
REMARK    2  A    between atoms: C_3  and  O_4
REMARK    3  A    between atoms: O_4  and  C_5
REMARK    4  A    between atoms: C_5  and  C_7
REMARK    5  A    between atoms: C_7  and  O_8
REMARK    6  A    between atoms: O_8  and  C_9
REMARK    7  A    between atoms: N_17  and  C_18
REMARK                            x       y       z     vdW  Elec       q    Type
REMARK                         _______ _______ _______ _____ _____    ______ ____
ROOT
ATOM      1  C   UNL     1       5.787   6.043  16.784  0.00  0.00    +0.000 C 
ATOM      2  O   UNL     1       5.522   7.139  17.264  0.00  0.00    +0.000 OA
ENDROOT
BRANCH   1   3
ATOM      3  O   UNL     1       6.971   5.732  16.178  0.00  0.00    +0.000 OA
BRANCH   3   4
ATOM      4  C   UNL     1       6.981   4.417  15.624  0.00  0.00    +0.000 C 
BRANCH   4   6
ATOM      5  O   UNL     1       7.503   5.398  13.471  0.00  0.00    +0.000 OA
ATOM      6  C   UNL     1       6.964   4.483  14.093  0.00  0.00    +0.000 C 
ATOM      7  N   UNL     1       6.299   3.434  13.487  0.00  0.00    +0.000 N 
ATOM      8  H   UNL     1       5.996   2.654  14.061  0.00  0.00    +0.000 HD
BRANCH   7   9
ATOM      9  C   UNL     1       6.237   3.286  12.067  0.00  0.00    +0.000 C 
ATOM     10  C   UNL     1       7.071   2.248  11.366  0.00  0.00    +0.000 C 
ATOM     11  C   UNL     1       5.584   2.071  11.463  0.00  0.00    +0.000 C 
ENDBRANCH   7   9
ENDBRANCH   4   6
ENDBRANCH   3   4
ENDBRANCH   1   3
BRANCH   1  12
ATOM     12  C   UNL     1       4.825   4.876  16.706  0.00  0.00    +0.000 C 
BRANCH  12  13
ATOM     13  O   UNL     1       3.543   5.248  17.180  0.00  0.00    +0.000 OA
BRANCH  13  14
ATOM     14  C   UNL     1       3.036   4.540  18.239  0.00  0.00    +0.000 A 
ATOM     15  C   UNL     1       3.025   3.142  18.326  0.00  0.00    +0.000 A 
ATOM     16  C   UNL     1       2.504   2.505  19.458  0.00  0.00    +0.000 A 
ATOM     17  C   UNL     1       1.988   3.262  20.507  0.00  0.00    +0.000 A 
ATOM     18 CL   UNL     1       1.366   2.472  21.903  0.00  0.00    +0.000 Cl
ATOM     19  C   UNL     1       1.975   4.650  20.432  0.00  0.00    +0.000 A 
ATOM     20  C   UNL     1       2.496   5.284  19.301  0.00  0.00    +0.000 A 
ATOM     21 BR   UNL     1       2.452   7.185  19.256  0.00  0.00    +0.000 Br
ENDBRANCH  13  14
ENDBRANCH  12  13
ENDBRANCH   1  12
TORSDOF 7
ENDMDL
MODEL 8
REMARK VINA RESULT:      -6.4      4.638      6.542
REMARK  Name = 
REMARK  7 active torsions:
REMARK  status: ('A' for Active; 'I' for Inactive)
REMARK    1  A    between atoms: C_2  and  C_3
REMARK    2  A    between atoms: C_3  and  O_4
REMARK    3  A    between atoms: O_4  and  C_5
REMARK    4  A    between atoms: C_5  and  C_7
REMARK    5  A    between atoms: C_7  and  O_8
REMARK    6  A    between atoms: O_8  and  C_9
REMARK    7  A    between atoms: N_17  and  C_18
REMARK                            x       y       z     vdW  Elec       q    Type
REMARK                         _______ _______ _______ _____ _____    ______ ____
ROOT
ATOM      1  C   UNL     1       7.689   7.151  17.905  0.00  0.00    +0.000 C 
ATOM      2  O   UNL     1       7.140   7.315  16.822  0.00  0.00    +0.000 OA
ENDROOT
BRANCH   1   3
ATOM      3  O   UNL     1       8.482   8.080  18.518  0.00  0.00    +0.000 OA
BRANCH   3   4
ATOM      4  C   UNL     1       8.265   9.403  18.027  0.00  0.00    +0.000 C 
BRANCH   4   6
ATOM      5  O   UNL     1       9.249  10.442  19.983  0.00  0.00    +0.000 OA
ATOM      6  C   UNL     1       9.176  10.396  18.755  0.00  0.00    +0.000 C 
ATOM      7  N   UNL     1       9.901  11.222  17.916  0.00  0.00    +0.000 N 
ATOM      8  H   UNL     1       9.886  11.035  16.918  0.00  0.00    +0.000 HD
BRANCH   7   9
ATOM      9  C   UNL     1      10.855  12.165  18.407  0.00  0.00    +0.000 C 
ATOM     10  C   UNL     1      11.866  12.787  17.482  0.00  0.00    +0.000 C 
ATOM     11  C   UNL     1      10.743  13.618  18.028  0.00  0.00    +0.000 C 
ENDBRANCH   7   9
ENDBRANCH   4   6
ENDBRANCH   3   4
ENDBRANCH   1   3
BRANCH   1  12
ATOM     12  C   UNL     1       7.653   5.868  18.709  0.00  0.00    +0.000 C 
BRANCH  12  13
ATOM     13  O   UNL     1       7.172   4.794  17.921  0.00  0.00    +0.000 OA
BRANCH  13  14
ATOM     14  C   UNL     1       5.845   4.471  18.044  0.00  0.00    +0.000 A 
ATOM     15  C   UNL     1       5.138   4.469  19.254  0.00  0.00    +0.000 A 
ATOM     16  C   UNL     1       3.777   4.144  19.280  0.00  0.00    +0.000 A 
ATOM     17  C   UNL     1       3.117   3.815  18.099  0.00  0.00    +0.000 A 
ATOM     18 CL   UNL     1       1.440   3.435  18.136  0.00  0.00    +0.000 Cl
ATOM     19  C   UNL     1       3.805   3.795  16.890  0.00  0.00    +0.000 A 
ATOM     20  C   UNL     1       5.164   4.119  16.866  0.00  0.00    +0.000 A 
ATOM     21 BR   UNL     1       6.052   4.076  15.186  0.00  0.00    +0.000 Br
ENDBRANCH  13  14
ENDBRANCH  12  13
ENDBRANCH   1  12
TORSDOF 7
ENDMDL
MODEL 9
REMARK VINA RESULT:      -6.3      3.307      5.596
REMARK  Name = 
REMARK  7 active torsions:
REMARK  status: ('A' for Active; 'I' for Inactive)
REMARK    1  A    between atoms: C_2  and  C_3
REMARK    2  A    between atoms: C_3  and  O_4
REMARK    3  A    between atoms: O_4  and  C_5
REMARK    4  A    between atoms: C_5  and  C_7
REMARK    5  A    between atoms: C_7  and  O_8
REMARK    6  A    between atoms: O_8  and  C_9
REMARK    7  A    between atoms: N_17  and  C_18
REMARK                            x       y       z     vdW  Elec       q    Type
REMARK                         _______ _______ _______ _____ _____    ______ ____
ROOT
ATOM      1  C   UNL     1       7.147   5.216  16.771  0.00  0.00    +0.000 C 
ATOM      2  O   UNL     1       8.054   4.510  17.195  0.00  0.00    +0.000 OA
ENDROOT
BRANCH   1   3
ATOM      3  O   UNL     1       7.042   6.559  16.999  0.00  0.00    +0.000 OA
BRANCH   3   4
ATOM      4  C   UNL     1       7.870   7.004  18.074  0.00  0.00    +0.000 C 
BRANCH   4   6
ATOM      5  O   UNL     1       7.438   9.224  17.205  0.00  0.00    +0.000 OA
ATOM      6  C   UNL     1       8.037   8.526  18.023  0.00  0.00    +0.000 C 
ATOM      7  N   UNL     1       8.907   9.034  18.969  0.00  0.00    +0.000 N 
ATOM      8  H   UNL     1       9.259   8.412  19.690  0.00  0.00    +0.000 HD
BRANCH   7   9
ATOM      9  C   UNL     1       9.139  10.435  19.122  0.00  0.00    +0.000 C 
ATOM     10  C   UNL     1       9.454  11.019  20.473  0.00  0.00    +0.000 C 
ATOM     11  C   UNL     1      10.523  10.943  19.423  0.00  0.00    +0.000 C 
ENDBRANCH   7   9
ENDBRANCH   4   6
ENDBRANCH   3   4
ENDBRANCH   1   3
BRANCH   1  12
ATOM     12  C   UNL     1       5.948   4.713  15.994  0.00  0.00    +0.000 C 
BRANCH  12  13
ATOM     13  O   UNL     1       4.778   5.423  16.358  0.00  0.00    +0.000 OA
BRANCH  13  14
ATOM     14  C   UNL     1       3.889   4.785  17.185  0.00  0.00    +0.000 A 
ATOM     15  C   UNL     1       3.774   3.394  17.304  0.00  0.00    +0.000 A 
ATOM     16  C   UNL     1       2.850   2.831  18.191  0.00  0.00    +0.000 A 
ATOM     17  C   UNL     1       2.034   3.655  18.962  0.00  0.00    +0.000 A 
ATOM     18 CL   UNL     1       0.913   2.956  20.063  0.00  0.00    +0.000 Cl
ATOM     19  C   UNL     1       2.121   5.038  18.846  0.00  0.00    +0.000 A 
ATOM     20  C   UNL     1       3.044   5.598  17.959  0.00  0.00    +0.000 A 
ATOM     21 BR   UNL     1       3.120   7.495  17.845  0.00  0.00    +0.000 Br
ENDBRANCH  13  14
ENDBRANCH  12  13
ENDBRANCH   1  12
TORSDOF 7
ENDMDL
