MODEL 1
REMARK VINA RESULT:      -8.4      0.000      0.000
REMARK  Name = 
REMARK  5 active torsions:
REMARK  status: ('A' for Active; 'I' for Inactive)
REMARK    1  A    between atoms: C_1  and  C_2
REMARK    2  A    between atoms: C_4  and  C_5
REMARK    3  A    between atoms: C_11  and  N_12
REMARK    4  A    between atoms: N_15  and  C_16
REMARK    5  A    between atoms: C_16  and  C_17
REMARK                            x       y       z     vdW  Elec       q    Type
REMARK                         _______ _______ _______ _____ _____    ______ ____
ROOT
ATOM      1  N   UNL     1       3.456   4.243  17.715  0.00  0.00    +0.000 NA
ATOM      2  C   UNL     1       3.136   3.950  19.128  0.00  0.00    +0.000 C 
ATOM      3  C   UNL     1       3.427   5.087  20.148  0.00  0.00    +0.000 C 
ATOM      4  N   UNL     1       3.055   6.462  19.730  0.00  0.00    +0.000 NA
ATOM      5  C   UNL     1       3.398   6.682  18.309  0.00  0.00    +0.000 C 
ATOM      6  C   UNL     1       2.884   5.562  17.384  0.00  0.00    +0.000 C 
ENDROOT
BRANCH   1  13
ATOM      7  C   UNL     1       6.919   4.711  14.152  0.00  0.00    +0.000 C 
ATOM      8  O   UNL     1       7.860   5.417  13.792  0.00  0.00    +0.000 OA
ATOM      9  N   UNL     1       6.574   4.583  15.506  0.00  0.00    +0.000 N 
ATOM     10  C   UNL     1       7.399   5.307  16.462  0.00  0.00    +0.000 C 
ATOM     11  C   UNL     1       7.384   4.588  17.798  0.00  0.00    +0.000 C 
ATOM     12  C   UNL     1       5.968   4.433  18.336  0.00  0.00    +0.000 C 
ATOM     13  C   UNL     1       4.880   4.021  17.315  0.00  0.00    +0.000 C 
ATOM     14  C   UNL     1       5.169   4.548  15.886  0.00  0.00    +0.000 C 
BRANCH   7  18
ATOM     15  C   UNL     1       3.492   2.973  10.829  0.00  0.00    +0.000 C 
ATOM     16  C   UNL     1       4.659   3.200  11.712  0.00  0.00    +0.000 A 
ATOM     17  C   UNL     1       4.858   4.239  12.649  0.00  0.00    +0.000 A 
ATOM     18  C   UNL     1       6.115   4.018  13.182  0.00  0.00    +0.000 A 
ATOM     19  N   UNL     1       6.539   2.853  12.607  0.00  0.00    +0.000 N 
ATOM     20  N   UNL     1       5.703   2.363  11.676  0.00  0.00    +0.000 NA
ATOM     21  H   UNL     1       7.415   2.371  12.786  0.00  0.00    +0.000 HD
ENDBRANCH   7  18
ENDBRANCH   1  13
BRANCH   4  22
ATOM     22  C   UNL     1       1.620   6.715  19.933  0.00  0.00    +0.000 C 
BRANCH  22  23
ATOM     23  C   UNL     1       1.317   8.106  20.423  0.00  0.00    +0.000 A 
ATOM     24  C   UNL     1       1.156   8.342  21.808  0.00  0.00    +0.000 A 
ATOM     25  C   UNL     1       0.841   9.607  22.291  0.00  0.00    +0.000 A 
ATOM     26  C   UNL     1       0.707  10.621  21.375  0.00  0.00    +0.000 A 
ATOM     27  C   UNL     1       0.894  10.419  20.021  0.00  0.00    +0.000 A 
ATOM     28  C   UNL     1       1.197   9.173  19.517  0.00  0.00    +0.000 A 
ATOM     29  O   UNL     1       0.742  11.555  19.300  0.00  0.00    +0.000 OA
ATOM     30  C   UNL     1       0.447  12.504  20.345  0.00  0.00    +0.000 C 
ATOM     31  O   UNL     1       0.397  11.915  21.659  0.00  0.00    +0.000 OA
ENDBRANCH  22  23
ENDBRANCH   4  22
TORSDOF 4
ENDMDL
MODEL 2
REMARK VINA RESULT:      -8.2      2.980      5.102
REMARK  Name = 
REMARK  5 active torsions:
REMARK  status: ('A' for Active; 'I' for Inactive)
REMARK    1  A    between atoms: C_1  and  C_2
REMARK    2  A    between atoms: C_4  and  C_5
REMARK    3  A    between atoms: C_11  and  N_12
REMARK    4  A    between atoms: N_15  and  C_16
REMARK    5  A    between atoms: C_16  and  C_17
REMARK                            x       y       z     vdW  Elec       q    Type
REMARK                         _______ _______ _______ _____ _____    ______ ____
ROOT
ATOM      1  N   UNL     1       2.398   7.906  19.864  0.00  0.00    +0.000 NA
ATOM      2  C   UNL     1       2.210   8.768  18.678  0.00  0.00    +0.000 C 
ATOM      3  C   UNL     1       0.749   9.207  18.374  0.00  0.00    +0.000 C 
ATOM      4  N   UNL     1      -0.075   9.615  19.539  0.00  0.00    +0.000 NA
ATOM      5  C   UNL     1       0.168   8.716  20.686  0.00  0.00    +0.000 C 
ATOM      6  C   UNL     1       1.665   8.516  20.990  0.00  0.00    +0.000 C 
ENDROOT
BRANCH   1  13
ATOM      7  C   UNL     1       4.461   3.410  19.207  0.00  0.00    +0.000 C 
ATOM      8  O   UNL     1       4.744   2.369  19.799  0.00  0.00    +0.000 OA
ATOM      9  N   UNL     1       3.375   4.205  19.599  0.00  0.00    +0.000 N 
ATOM     10  C   UNL     1       2.585   3.726  20.725  0.00  0.00    +0.000 C 
ATOM     11  C   UNL     1       1.161   4.235  20.606  0.00  0.00    +0.000 C 
ATOM     12  C   UNL     1       1.113   5.755  20.538  0.00  0.00    +0.000 C 
ATOM     13  C   UNL     1       2.173   6.444  19.644  0.00  0.00    +0.000 C 
ATOM     14  C   UNL     1       3.505   5.655  19.579  0.00  0.00    +0.000 C 
BRANCH   7  18
ATOM     15  C   UNL     1       6.528   4.928  14.822  0.00  0.00    +0.000 C 
ATOM     16  C   UNL     1       6.236   4.540  16.221  0.00  0.00    +0.000 A 
ATOM     17  C   UNL     1       5.032   4.025  16.753  0.00  0.00    +0.000 A 
ATOM     18  C   UNL     1       5.267   3.863  18.105  0.00  0.00    +0.000 A 
ATOM     19  N   UNL     1       6.580   4.203  18.276  0.00  0.00    +0.000 N 
ATOM     20  N   UNL     1       7.177   4.665  17.164  0.00  0.00    +0.000 NA
ATOM     21  H   UNL     1       7.106   4.177  19.144  0.00  0.00    +0.000 HD
ENDBRANCH   7  18
ENDBRANCH   1  13
BRANCH   4  22
ATOM     22  C   UNL     1       0.207  11.004  19.937  0.00  0.00    +0.000 C 
BRANCH  22  23
ATOM     23  C   UNL     1      -0.884  11.626  20.766  0.00  0.00    +0.000 A 
ATOM     24  C   UNL     1      -0.745  11.690  22.173  0.00  0.00    +0.000 A 
ATOM     25  C   UNL     1      -1.749  12.226  22.972  0.00  0.00    +0.000 A 
ATOM     26  C   UNL     1      -2.873  12.704  22.343  0.00  0.00    +0.000 A 
ATOM     27  C   UNL     1      -3.013  12.681  20.969  0.00  0.00    +0.000 A 
ATOM     28  C   UNL     1      -2.037  12.147  20.157  0.00  0.00    +0.000 A 
ATOM     29  O   UNL     1      -4.182  13.226  20.557  0.00  0.00    +0.000 OA
ATOM     30  C   UNL     1      -4.767  13.606  21.820  0.00  0.00    +0.000 C 
ATOM     31  O   UNL     1      -3.955  13.254  22.957  0.00  0.00    +0.000 OA
ENDBRANCH  22  23
ENDBRANCH   4  22
TORSDOF 4
ENDMDL
MODEL 3
REMARK VINA RESULT:      -8.2      0.555      1.201
REMARK  Name = 
REMARK  5 active torsions:
REMARK  status: ('A' for Active; 'I' for Inactive)
REMARK    1  A    between atoms: C_1  and  C_2
REMARK    2  A    between atoms: C_4  and  C_5
REMARK    3  A    between atoms: C_11  and  N_12
REMARK    4  A    between atoms: N_15  and  C_16
REMARK    5  A    between atoms: C_16  and  C_17
REMARK                            x       y       z     vdW  Elec       q    Type
REMARK                         _______ _______ _______ _____ _____    ______ ____
ROOT
ATOM      1  N   UNL     1       3.637   4.136  17.691  0.00  0.00    +0.000 NA
ATOM      2  C   UNL     1       3.397   3.902  19.130  0.00  0.00    +0.000 C 
ATOM      3  C   UNL     1       3.706   5.094  20.081  0.00  0.00    +0.000 C 
ATOM      4  N   UNL     1       3.274   6.437  19.619  0.00  0.00    +0.000 NA
ATOM      5  C   UNL     1       3.538   6.598  18.174  0.00  0.00    +0.000 C 
ATOM      6  C   UNL     1       3.012   5.422  17.329  0.00  0.00    +0.000 C 
ENDROOT
BRANCH   1  13
ATOM      7  C   UNL     1       6.938   4.663  13.985  0.00  0.00    +0.000 C 
ATOM      8  O   UNL     1       7.854   5.382  13.588  0.00  0.00    +0.000 OA
ATOM      9  N   UNL     1       6.654   4.525  15.351  0.00  0.00    +0.000 N 
ATOM     10  C   UNL     1       7.510   5.254  16.275  0.00  0.00    +0.000 C 
ATOM     11  C   UNL     1       7.561   4.530  17.607  0.00  0.00    +0.000 C 
ATOM     12  C   UNL     1       6.171   4.354  18.204  0.00  0.00    +0.000 C 
ATOM     13  C   UNL     1       5.045   3.934  17.229  0.00  0.00    +0.000 C 
ATOM     14  C   UNL     1       5.267   4.470  15.792  0.00  0.00    +0.000 C 
BRANCH   7  18
ATOM     15  C   UNL     1       3.424   2.929  10.752  0.00  0.00    +0.000 C 
ATOM     16  C   UNL     1       4.606   3.146  11.618  0.00  0.00    +0.000 A 
ATOM     17  C   UNL     1       4.850   4.211  12.514  0.00  0.00    +0.000 A 
ATOM     18  C   UNL     1       6.102   3.964  13.047  0.00  0.00    +0.000 A 
ATOM     19  N   UNL     1       6.479   2.763  12.513  0.00  0.00    +0.000 N 
ATOM     20  N   UNL     1       5.618   2.271  11.607  0.00  0.00    +0.000 NA
ATOM     21  H   UNL     1       7.338   2.257  12.705  0.00  0.00    +0.000 HD
ENDBRANCH   7  18
ENDBRANCH   1  13
BRANCH   4  22
ATOM     22  C   UNL     1       1.844   6.661  19.883  0.00  0.00    +0.000 C 
BRANCH  22  23
ATOM     23  C   UNL     1       1.462   8.116  19.936  0.00  0.00    +0.000 A 
ATOM     24  C   UNL     1       1.507   8.896  18.757  0.00  0.00    +0.000 A 
ATOM     25  C   UNL     1       1.195  10.251  18.777  0.00  0.00    +0.000 A 
ATOM     26  C   UNL     1       0.827  10.799  19.981  0.00  0.00    +0.000 A 
ATOM     27  C   UNL     1       0.744  10.048  21.137  0.00  0.00    +0.000 A 
ATOM     28  C   UNL     1       1.057   8.707  21.145  0.00  0.00    +0.000 A 
ATOM     29  O   UNL     1       0.337  10.777  22.203  0.00  0.00    +0.000 OA
ATOM     30  C   UNL     1       0.161  12.074  21.596  0.00  0.00    +0.000 C 
ATOM     31  O   UNL     1       0.496  12.101  20.194  0.00  0.00    +0.000 OA
ENDBRANCH  22  23
ENDBRANCH   4  22
TORSDOF 4
ENDMDL
MODEL 4
REMARK VINA RESULT:      -8.1      2.915      5.176
REMARK  Name = 
REMARK  5 active torsions:
REMARK  status: ('A' for Active; 'I' for Inactive)
REMARK    1  A    between atoms: C_1  and  C_2
REMARK    2  A    between atoms: C_4  and  C_5
REMARK    3  A    between atoms: C_11  and  N_12
REMARK    4  A    between atoms: N_15  and  C_16
REMARK    5  A    between atoms: C_16  and  C_17
REMARK                            x       y       z     vdW  Elec       q    Type
REMARK                         _______ _______ _______ _____ _____    ______ ____
ROOT
ATOM      1  N   UNL     1       2.383   7.926  19.814  0.00  0.00    +0.000 NA
ATOM      2  C   UNL     1       2.262   8.754  18.596  0.00  0.00    +0.000 C 
ATOM      3  C   UNL     1       0.820   9.181  18.197  0.00  0.00    +0.000 C 
ATOM      4  N   UNL     1      -0.069   9.619  19.301  0.00  0.00    +0.000 NA
ATOM      5  C   UNL     1       0.110   8.753  20.486  0.00  0.00    +0.000 C 
ATOM      6  C   UNL     1       1.588   8.565  20.879  0.00  0.00    +0.000 C 
ENDROOT
BRANCH   1  13
ATOM      7  C   UNL     1       4.490   3.442  19.218  0.00  0.00    +0.000 C 
ATOM      8  O   UNL     1       4.791   2.415  19.826  0.00  0.00    +0.000 OA
ATOM      9  N   UNL     1       3.399   4.232  19.607  0.00  0.00    +0.000 N 
ATOM     10  C   UNL     1       2.627   3.765  20.749  0.00  0.00    +0.000 C 
ATOM     11  C   UNL     1       1.196   4.256  20.635  0.00  0.00    +0.000 C 
ATOM     12  C   UNL     1       1.129   5.774  20.540  0.00  0.00    +0.000 C 
ATOM     13  C   UNL     1       2.172   6.458  19.623  0.00  0.00    +0.000 C 
ATOM     14  C   UNL     1       3.513   5.683  19.559  0.00  0.00    +0.000 C 
BRANCH   7  18
ATOM     15  C   UNL     1       6.490   4.933  14.792  0.00  0.00    +0.000 C 
ATOM     16  C   UNL     1       6.221   4.548  16.197  0.00  0.00    +0.000 A 
ATOM     17  C   UNL     1       5.020   4.052  16.753  0.00  0.00    +0.000 A 
ATOM     18  C   UNL     1       5.281   3.884  18.101  0.00  0.00    +0.000 A 
ATOM     19  N   UNL     1       6.602   4.202  18.244  0.00  0.00    +0.000 N 
ATOM     20  N   UNL     1       7.183   4.656  17.120  0.00  0.00    +0.000 NA
ATOM     21  H   UNL     1       7.146   4.165  19.101  0.00  0.00    +0.000 HD
ENDBRANCH   7  18
ENDBRANCH   1  13
BRANCH   4  22
ATOM     22  C   UNL     1       0.189  11.019  19.676  0.00  0.00    +0.000 C 
BRANCH  22  23
ATOM     23  C   UNL     1      -0.985  11.692  20.336  0.00  0.00    +0.000 A 
ATOM     24  C   UNL     1      -2.131  12.011  19.571  0.00  0.00    +0.000 A 
ATOM     25  C   UNL     1      -3.218  12.665  20.141  0.00  0.00    +0.000 A 
ATOM     26  C   UNL     1      -3.143  12.974  21.477  0.00  0.00    +0.000 A 
ATOM     27  C   UNL     1      -2.047  12.640  22.249  0.00  0.00    +0.000 A 
ATOM     28  C   UNL     1      -0.954  12.002  21.706  0.00  0.00    +0.000 A 
ATOM     29  O   UNL     1      -2.190  13.012  23.544  0.00  0.00    +0.000 OA
ATOM     30  C   UNL     1      -3.502  13.612  23.512  0.00  0.00    +0.000 C 
ATOM     31  O   UNL     1      -4.100  13.615  22.201  0.00  0.00    +0.000 OA
ENDBRANCH  22  23
ENDBRANCH   4  22
TORSDOF 4
ENDMDL
MODEL 5
REMARK VINA RESULT:      -7.8      5.845     12.302
REMARK  Name = 
REMARK  5 active torsions:
REMARK  status: ('A' for Active; 'I' for Inactive)
REMARK    1  A    between atoms: C_1  and  C_2
REMARK    2  A    between atoms: C_4  and  C_5
REMARK    3  A    between atoms: C_11  and  N_12
REMARK    4  A    between atoms: N_15  and  C_16
REMARK    5  A    between atoms: C_16  and  C_17
REMARK                            x       y       z     vdW  Elec       q    Type
REMARK                         _______ _______ _______ _____ _____    ______ ____
ROOT
ATOM      1  N   UNL     1      -2.695  11.884  18.112  0.00  0.00    +0.000 NA
ATOM      2  C   UNL     1      -1.747  12.462  19.087  0.00  0.00    +0.000 C 
ATOM      3  C   UNL     1      -1.081  11.460  20.074  0.00  0.00    +0.000 C 
ATOM      4  N   UNL     1      -0.626  10.170  19.499  0.00  0.00    +0.000 NA
ATOM      5  C   UNL     1      -1.616   9.656  18.530  0.00  0.00    +0.000 C 
ATOM      6  C   UNL     1      -2.051  10.709  17.494  0.00  0.00    +0.000 C 
ENDROOT
BRANCH   1  13
ATOM      7  C   UNL     1      -6.340  13.514  21.106  0.00  0.00    +0.000 C 
ATOM      8  O   UNL     1      -7.380  14.170  21.110  0.00  0.00    +0.000 OA
ATOM      9  N   UNL     1      -5.923  12.805  19.969  0.00  0.00    +0.000 N 
ATOM     10  C   UNL     1      -6.795  12.866  18.805  0.00  0.00    +0.000 C 
ATOM     11  C   UNL     1      -6.627  11.607  17.974  0.00  0.00    +0.000 C 
ATOM     12  C   UNL     1      -5.181  11.410  17.540  0.00  0.00    +0.000 C 
ATOM     13  C   UNL     1      -4.093  11.687  18.606  0.00  0.00    +0.000 C 
ATOM     14  C   UNL     1      -4.511  12.785  19.616  0.00  0.00    +0.000 C 
BRANCH   7  18
ATOM     15  C   UNL     1      -3.206  14.303  25.026  0.00  0.00    +0.000 C 
ATOM     16  C   UNL     1      -4.133  13.759  24.007  0.00  0.00    +0.000 A 
ATOM     17  C   UNL     1      -4.656  14.407  22.866  0.00  0.00    +0.000 A 
ATOM     18  C   UNL     1      -5.494  13.483  22.269  0.00  0.00    +0.000 A 
ATOM     19  N   UNL     1      -5.358  12.351  23.022  0.00  0.00    +0.000 N 
ATOM     20  N   UNL     1      -4.583  12.503  24.108  0.00  0.00    +0.000 NA
ATOM     21  H   UNL     1      -5.810  11.455  22.859  0.00  0.00    +0.000 HD
ENDBRANCH   7  18
ENDBRANCH   1  13
BRANCH   4  22
ATOM     22  C   UNL     1       0.680  10.309  18.836  0.00  0.00    +0.000 C 
BRANCH  22  23
ATOM     23  C   UNL     1       1.513   9.055  18.877  0.00  0.00    +0.000 A 
ATOM     24  C   UNL     1       1.431   8.195  19.997  0.00  0.00    +0.000 A 
ATOM     25  C   UNL     1       2.213   7.048  20.083  0.00  0.00    +0.000 A 
ATOM     26  C   UNL     1       3.054   6.774  19.033  0.00  0.00    +0.000 A 
ATOM     27  C   UNL     1       3.123   7.582  17.915  0.00  0.00    +0.000 A 
ATOM     28  C   UNL     1       2.368   8.729  17.811  0.00  0.00    +0.000 A 
ATOM     29  O   UNL     1       3.995   7.115  16.989  0.00  0.00    +0.000 OA
ATOM     30  C   UNL     1       4.465   5.915  17.637  0.00  0.00    +0.000 C 
ATOM     31  O   UNL     1       3.894   5.707  18.943  0.00  0.00    +0.000 OA
ENDBRANCH  22  23
ENDBRANCH   4  22
TORSDOF 4
ENDMDL
MODEL 6
REMARK VINA RESULT:      -7.7      5.421     11.351
REMARK  Name = 
REMARK  5 active torsions:
REMARK  status: ('A' for Active; 'I' for Inactive)
REMARK    1  A    between atoms: C_1  and  C_2
REMARK    2  A    between atoms: C_4  and  C_5
REMARK    3  A    between atoms: C_11  and  N_12
REMARK    4  A    between atoms: N_15  and  C_16
REMARK    5  A    between atoms: C_16  and  C_17
REMARK                            x       y       z     vdW  Elec       q    Type
REMARK                         _______ _______ _______ _____ _____    ______ ____
ROOT
ATOM      1  N   UNL     1      -0.870  12.492  18.704  0.00  0.00    +0.000 NA
ATOM      2  C   UNL     1       0.584  12.584  18.954  0.00  0.00    +0.000 C 
ATOM      3  C   UNL     1       1.207  11.446  19.812  0.00  0.00    +0.000 C 
ATOM      4  N   UNL     1       0.742  10.067  19.519  0.00  0.00    +0.000 NA
ATOM      5  C   UNL     1      -0.715  10.052  19.275  0.00  0.00    +0.000 C 
ATOM      6  C   UNL     1      -1.169  11.118  18.259  0.00  0.00    +0.000 C 
ENDROOT
BRANCH   1  13
ATOM      7  C   UNL     1      -5.390  12.500  20.820  0.00  0.00    +0.000 C 
ATOM      8  O   UNL     1      -6.026  12.040  21.768  0.00  0.00    +0.000 OA
ATOM      9  N   UNL     1      -4.008  12.720  20.902  0.00  0.00    +0.000 N 
ATOM     10  C   UNL     1      -3.368  12.401  22.169  0.00  0.00    +0.000 C 
ATOM     11  C   UNL     1      -2.139  13.271  22.356  0.00  0.00    +0.000 C 
ATOM     12  C   UNL     1      -1.151  13.102  21.210  0.00  0.00    +0.000 C 
ATOM     13  C   UNL     1      -1.748  13.042  19.783  0.00  0.00    +0.000 C 
ATOM     14  C   UNL     1      -3.165  12.417  19.753  0.00  0.00    +0.000 C 
BRANCH   7  18
ATOM     15  C   UNL     1      -7.514  14.422  16.624  0.00  0.00    +0.000 C 
ATOM     16  C   UNL     1      -6.994  13.567  17.716  0.00  0.00    +0.000 A 
ATOM     17  C   UNL     1      -6.381  13.968  18.924  0.00  0.00    +0.000 A 
ATOM     18  C   UNL     1      -6.049  12.794  19.576  0.00  0.00    +0.000 A 
ATOM     19  N   UNL     1      -6.543  11.800  18.778  0.00  0.00    +0.000 N 
ATOM     20  N   UNL     1      -7.073  12.235  17.623  0.00  0.00    +0.000 NA
ATOM     21  H   UNL     1      -6.505  10.801  18.960  0.00  0.00    +0.000 HD
ENDBRANCH   7  18
ENDBRANCH   1  13
BRANCH   4  22
ATOM     22  C   UNL     1       1.439   9.502  18.353  0.00  0.00    +0.000 C 
BRANCH  22  23
ATOM     23  C   UNL     1       2.137   8.199  18.642  0.00  0.00    +0.000 A 
ATOM     24  C   UNL     1       1.883   7.522  19.857  0.00  0.00    +0.000 A 
ATOM     25  C   UNL     1       2.537   6.336  20.171  0.00  0.00    +0.000 A 
ATOM     26  C   UNL     1       3.426   5.839  19.250  0.00  0.00    +0.000 A 
ATOM     27  C   UNL     1       3.663   6.467  18.043  0.00  0.00    +0.000 A 
ATOM     28  C   UNL     1       3.035   7.648  17.713  0.00  0.00    +0.000 A 
ATOM     29  O   UNL     1       4.552   5.795  17.273  0.00  0.00    +0.000 OA
ATOM     30  C   UNL     1       4.849   4.666  18.121  0.00  0.00    +0.000 C 
ATOM     31  O   UNL     1       4.160   4.701  19.385  0.00  0.00    +0.000 OA
ENDBRANCH  22  23
ENDBRANCH   4  22
TORSDOF 4
ENDMDL
MODEL 7
REMARK VINA RESULT:      -7.6      5.718     12.332
REMARK  Name = 
REMARK  5 active torsions:
REMARK  status: ('A' for Active; 'I' for Inactive)
REMARK    1  A    between atoms: C_1  and  C_2
REMARK    2  A    between atoms: C_4  and  C_5
REMARK    3  A    between atoms: C_11  and  N_12
REMARK    4  A    between atoms: N_15  and  C_16
REMARK    5  A    between atoms: C_16  and  C_17
REMARK                            x       y       z     vdW  Elec       q    Type
REMARK                         _______ _______ _______ _____ _____    ______ ____
ROOT
ATOM      1  N   UNL     1      -2.219  12.008  18.508  0.00  0.00    +0.000 NA
ATOM      2  C   UNL     1      -1.277  12.407  19.575  0.00  0.00    +0.000 C 
ATOM      3  C   UNL     1      -0.700  11.255  20.447  0.00  0.00    +0.000 C 
ATOM      4  N   UNL     1      -0.294  10.022  19.729  0.00  0.00    +0.000 NA
ATOM      5  C   UNL     1      -1.275   9.687  18.676  0.00  0.00    +0.000 C 
ATOM      6  C   UNL     1      -1.617  10.883  17.767  0.00  0.00    +0.000 C 
ENDROOT
BRANCH   1  13
ATOM      7  C   UNL     1      -6.011  13.750  21.245  0.00  0.00    +0.000 C 
ATOM      8  O   UNL     1      -7.048  14.408  21.171  0.00  0.00    +0.000 OA
ATOM      9  N   UNL     1      -5.538  13.001  20.158  0.00  0.00    +0.000 N 
ATOM     10  C   UNL     1      -6.346  13.022  18.948  0.00  0.00    +0.000 C 
ATOM     11  C   UNL     1      -6.139  11.734  18.172  0.00  0.00    +0.000 C 
ATOM     12  C   UNL     1      -4.673  11.519  17.822  0.00  0.00    +0.000 C 
ATOM     13  C   UNL     1      -3.642  11.831  18.934  0.00  0.00    +0.000 C 
ATOM     14  C   UNL     1      -4.109  12.965  19.882  0.00  0.00    +0.000 C 
BRANCH   7  18
ATOM     15  C   UNL     1      -3.070  14.666  25.285  0.00  0.00    +0.000 C 
ATOM     16  C   UNL     1      -3.955  14.092  24.245  0.00  0.00    +0.000 A 
ATOM     17  C   UNL     1      -4.403  14.694  23.048  0.00  0.00    +0.000 A 
ATOM     18  C   UNL     1      -5.228  13.759  22.452  0.00  0.00    +0.000 A 
ATOM     19  N   UNL     1      -5.158  12.662  23.264  0.00  0.00    +0.000 N 
ATOM     20  N   UNL     1      -4.437  12.851  24.382  0.00  0.00    +0.000 NA
ATOM     21  H   UNL     1      -5.620  11.769  23.119  0.00  0.00    +0.000 HD
ENDBRANCH   7  18
ENDBRANCH   1  13
BRANCH   4  22
ATOM     22  C   UNL     1       1.041  10.167  19.126  0.00  0.00    +0.000 C 
BRANCH  22  23
ATOM     23  C   UNL     1       1.768   8.860  18.951  0.00  0.00    +0.000 A 
ATOM     24  C   UNL     1       2.519   8.627  17.775  0.00  0.00    +0.000 A 
ATOM     25  C   UNL     1       3.173   7.418  17.566  0.00  0.00    +0.000 A 
ATOM     26  C   UNL     1       3.075   6.465  18.550  0.00  0.00    +0.000 A 
ATOM     27  C   UNL     1       2.375   6.686  19.721  0.00  0.00    +0.000 A 
ATOM     28  C   UNL     1       1.711   7.871  19.947  0.00  0.00    +0.000 A 
ATOM     29  O   UNL     1       2.430   5.629  20.566  0.00  0.00    +0.000 OA
ATOM     30  C   UNL     1       3.249   4.715  19.807  0.00  0.00    +0.000 C 
ATOM     31  O   UNL     1       3.639   5.228  18.519  0.00  0.00    +0.000 OA
ENDBRANCH  22  23
ENDBRANCH   4  22
TORSDOF 4
ENDMDL
MODEL 8
REMARK VINA RESULT:      -7.6      5.074      9.531
REMARK  Name = 
REMARK  5 active torsions:
REMARK  status: ('A' for Active; 'I' for Inactive)
REMARK    1  A    between atoms: C_1  and  C_2
REMARK    2  A    between atoms: C_4  and  C_5
REMARK    3  A    between atoms: C_11  and  N_12
REMARK    4  A    between atoms: N_15  and  C_16
REMARK    5  A    between atoms: C_16  and  C_17
REMARK                            x       y       z     vdW  Elec       q    Type
REMARK                         _______ _______ _______ _____ _____    ______ ____
ROOT
ATOM      1  N   UNL     1       1.108  11.741  19.857  0.00  0.00    +0.000 NA
ATOM      2  C   UNL     1       1.048  10.716  20.920  0.00  0.00    +0.000 C 
ATOM      3  C   UNL     1       0.443   9.341  20.515  0.00  0.00    +0.000 C 
ATOM      4  N   UNL     1       0.854   8.802  19.195  0.00  0.00    +0.000 NA
ATOM      5  C   UNL     1       0.898   9.880  18.185  0.00  0.00    +0.000 C 
ATOM      6  C   UNL     1       1.690  11.116  18.655  0.00  0.00    +0.000 C 
ENDROOT
BRANCH   1  13
ATOM      7  C   UNL     1      -3.728  11.668  18.626  0.00  0.00    +0.000 C 
ATOM      8  O   UNL     1      -4.859  11.681  19.109  0.00  0.00    +0.000 OA
ATOM      9  N   UNL     1      -2.646  12.281  19.273  0.00  0.00    +0.000 N 
ATOM     10  C   UNL     1      -2.933  12.956  20.531  0.00  0.00    +0.000 C 
ATOM     11  C   UNL     1      -1.939  14.082  20.746  0.00  0.00    +0.000 C 
ATOM     12  C   UNL     1      -0.504  13.575  20.736  0.00  0.00    +0.000 C 
ATOM     13  C   UNL     1      -0.145  12.532  19.649  0.00  0.00    +0.000 C 
ATOM     14  C   UNL     1      -1.344  11.628  19.267  0.00  0.00    +0.000 C 
BRANCH   7  18
ATOM     15  C   UNL     1      -3.203  10.002  13.855  0.00  0.00    +0.000 C 
ATOM     16  C   UNL     1      -3.211  10.193  15.324  0.00  0.00    +0.000 A 
ATOM     17  C   UNL     1      -3.765  11.261  16.064  0.00  0.00    +0.000 A 
ATOM     18  C   UNL     1      -3.474  10.983  17.387  0.00  0.00    +0.000 A 
ATOM     19  N   UNL     1      -2.855   9.764  17.359  0.00  0.00    +0.000 N 
ATOM     20  N   UNL     1      -2.636   9.287  16.123  0.00  0.00    +0.000 NA
ATOM     21  H   UNL     1      -2.524   9.234  18.160  0.00  0.00    +0.000 HD
ENDBRANCH   7  18
ENDBRANCH   1  13
BRANCH   4  22
ATOM     22  C   UNL     1       2.170   8.146  19.268  0.00  0.00    +0.000 C 
BRANCH  22  23
ATOM     23  C   UNL     1       2.093   6.643  19.308  0.00  0.00    +0.000 A 
ATOM     24  C   UNL     1       1.783   5.989  20.522  0.00  0.00    +0.000 A 
ATOM     25  C   UNL     1       1.739   4.601  20.602  0.00  0.00    +0.000 A 
ATOM     26  C   UNL     1       1.992   3.891  19.454  0.00  0.00    +0.000 A 
ATOM     27  C   UNL     1       2.262   4.513  18.250  0.00  0.00    +0.000 A 
ATOM     28  C   UNL     1       2.322   5.885  18.148  0.00  0.00    +0.000 A 
ATOM     29  O   UNL     1       2.454   3.629  17.241  0.00  0.00    +0.000 OA
ATOM     30  C   UNL     1       2.266   2.378  17.934  0.00  0.00    +0.000 C 
ATOM     31  O   UNL     1       1.999   2.536  19.341  0.00  0.00    +0.000 OA
ENDBRANCH  22  23
ENDBRANCH   4  22
TORSDOF 4
ENDMDL
MODEL 9
REMARK VINA RESULT:      -7.5      5.385      9.935
REMARK  Name = 
REMARK  5 active torsions:
REMARK  status: ('A' for Active; 'I' for Inactive)
REMARK    1  A    between atoms: C_1  and  C_2
REMARK    2  A    between atoms: C_4  and  C_5
REMARK    3  A    between atoms: C_11  and  N_12
REMARK    4  A    between atoms: N_15  and  C_16
REMARK    5  A    between atoms: C_16  and  C_17
REMARK                            x       y       z     vdW  Elec       q    Type
REMARK                         _______ _______ _______ _____ _____    ______ ____
ROOT
ATOM      1  N   UNL     1       0.181  12.087  21.041  0.00  0.00    +0.000 NA
ATOM      2  C   UNL     1      -0.085  10.864  21.827  0.00  0.00    +0.000 C 
ATOM      3  C   UNL     1      -0.360   9.569  21.009  0.00  0.00    +0.000 C 
ATOM      4  N   UNL     1       0.506   9.337  19.827  0.00  0.00    +0.000 NA
ATOM      5  C   UNL     1       0.734  10.601  19.095  0.00  0.00    +0.000 C 
ATOM      6  C   UNL     1       1.182  11.757  20.009  0.00  0.00    +0.000 C 
ENDROOT
BRANCH   1  13
ATOM      7  C   UNL     1      -4.296  11.832  18.851  0.00  0.00    +0.000 C 
ATOM      8  O   UNL     1      -5.502  11.807  19.093  0.00  0.00    +0.000 OA
ATOM      9  N   UNL     1      -3.391  12.488  19.697  0.00  0.00    +0.000 N 
ATOM     10  C   UNL     1      -3.951  13.158  20.861  0.00  0.00    +0.000 C 
ATOM     11  C   UNL     1      -3.062  14.321  21.260  0.00  0.00    +0.000 C 
ATOM     12  C   UNL     1      -1.638  13.866  21.549  0.00  0.00    +0.000 C 
ATOM     13  C   UNL     1      -1.029  12.831  20.572  0.00  0.00    +0.000 C 
ATOM     14  C   UNL     1      -2.094  11.882  19.965  0.00  0.00    +0.000 C 
BRANCH   7  18
ATOM     15  C   UNL     1      -2.959  10.023  14.295  0.00  0.00    +0.000 C 
ATOM     16  C   UNL     1      -3.140  10.311  15.737  0.00  0.00    +0.000 A 
ATOM     17  C   UNL     1      -4.010  11.247  16.340  0.00  0.00    +0.000 A 
ATOM     18  C   UNL     1      -3.771  11.150  17.698  0.00  0.00    +0.000 A 
ATOM     19  N   UNL     1      -2.862  10.137  17.822  0.00  0.00    +0.000 N 
ATOM     20  N   UNL     1      -2.423   9.646  16.651  0.00  0.00    +0.000 NA
ATOM     21  H   UNL     1      -2.476   9.770  18.687  0.00  0.00    +0.000 HD
ENDBRANCH   7  18
ENDBRANCH   1  13
BRANCH   4  22
ATOM     22  C   UNL     1       1.801   8.757  20.215  0.00  0.00    +0.000 C 
BRANCH  22  23
ATOM     23  C   UNL     1       1.965   7.318  19.803  0.00  0.00    +0.000 A 
ATOM     24  C   UNL     1       2.460   7.010  18.515  0.00  0.00    +0.000 A 
ATOM     25  C   UNL     1       2.590   5.692  18.090  0.00  0.00    +0.000 A 
ATOM     26  C   UNL     1       2.233   4.703  18.973  0.00  0.00    +0.000 A 
ATOM     27  C   UNL     1       1.780   4.982  20.247  0.00  0.00    +0.000 A 
ATOM     28  C   UNL     1       1.633   6.279  20.688  0.00  0.00    +0.000 A 
ATOM     29  O   UNL     1       1.511   3.863  20.961  0.00  0.00    +0.000 OA
ATOM     30  C   UNL     1       1.853   2.840  20.002  0.00  0.00    +0.000 C 
ATOM     31  O   UNL     1       2.285   3.365  18.732  0.00  0.00    +0.000 OA
ENDBRANCH  22  23
ENDBRANCH   4  22
TORSDOF 4
ENDMDL
