MODEL 1
REMARK VINA RESULT:      -8.0      0.000      0.000
REMARK  Name = 
REMARK  16 active torsions:
REMARK  status: ('A' for Active; 'I' for Inactive)
REMARK    1  A    between atoms: C_1  and  C_2
REMARK    2  A    between atoms: C_2  and  CA_3
REMARK    3  A    between atoms: CA_3  and  N_4
REMARK    4  A    between atoms: CA_3  and  C_31
REMARK    5  A    between atoms: C_5  and  C_7
REMARK    6  A    between atoms: C_7  and  C_8
REMARK    7  A    between atoms: C_7  and  C_10
REMARK    8  A    between atoms: C_7  and  C_12
REMARK    9  A    between atoms: C_8  and  C_9
REMARK   10  A    between atoms: C_10  and  C_11
REMARK   11  A    between atoms: C_12  and  C_13
REMARK   12  A    between atoms: C_16  and  C_17
REMARK   13  A    between atoms: C_17  and  O_19
REMARK   14  A    between atoms: O_19  and  C_20
REMARK   15  A    between atoms: C_23  and  C_24
REMARK   16  A    between atoms: C_31  and  OXT_33
REMARK                            x       y       z     vdW  Elec       q    Type
REMARK                         _______ _______ _______ _____ _____    ______ ____
ROOT
ATOM      1  C   UNL     1       2.539   6.756  19.519  0.00  0.00    +0.000 A 
ATOM      2  C   UNL     1       2.956   7.120  18.256  0.00  0.00    +0.000 A 
ATOM      3  C   UNL     1       2.411   8.373  17.857  0.00  0.00    +0.000 A 
ATOM      4  C   UNL     1       1.671   8.976  18.859  0.00  0.00    +0.000 A 
ATOM      5  S   UNL     1       1.713   8.044  20.293  0.00  0.00    +0.000 S 
ENDROOT
BRANCH   4   6
ATOM      6  C   UNL     1       0.879  10.191  18.805  0.00  0.00    +0.000 C 
ATOM      7  O   UNL     1       1.114  11.210  18.159  0.00  0.00    +0.000 OA
BRANCH   6   8
ATOM      8  O   UNL     1      -0.231  10.046  19.635  0.00  0.00    +0.000 OA
BRANCH   8   9
ATOM      9  C   UNL     1      -1.413  10.649  19.179  0.00  0.00    +0.000 A 
ATOM     10  C   UNL     1      -2.061  10.046  18.100  0.00  0.00    +0.000 A 
ATOM     11  C   UNL     1      -3.302  10.538  17.680  0.00  0.00    +0.000 A 
ATOM     12  C   UNL     1      -3.898  11.617  18.351  0.00  0.00    +0.000 A 
ATOM     13  C   UNL     1      -3.254  12.199  19.445  0.00  0.00    +0.000 A 
ATOM     14  C   UNL     1      -2.018  11.715  19.851  0.00  0.00    +0.000 A 
ATOM     15  F   UNL     1      -1.433  12.279  20.916  0.00  0.00    +0.000 F 
BRANCH  12  16
ATOM     16  C   UNL     1      -5.220  12.157  17.926  0.00  0.00    +0.000 C 
ATOM     17  N   UNL     1      -5.627  13.346  18.236  0.00  0.00    +0.000 NA
ATOM     18  N   UNL     1      -6.071  11.395  17.183  0.00  0.00    +0.000 N 
ATOM     19  H   UNL     1      -4.957  13.827  18.840  0.00  0.00    +0.000 HD
ATOM     20  H   UNL     1      -5.653  10.795  16.483  0.00  0.00    +0.000 HD
ATOM     21  H   UNL     1      -6.837  11.954  16.818  0.00  0.00    +0.000 HD
ENDBRANCH  12  16
ENDBRANCH   8   9
ENDBRANCH   6   8
ENDBRANCH   4   6
BRANCH   1  22
ATOM     22  C   UNL     1       2.753   5.438  20.216  0.00  0.00    +0.000 C 
BRANCH  22  23
ATOM     23  C   UNL     1       2.969   4.208  19.274  0.00  0.00    +0.000 C 
BRANCH  23  25
ATOM     24  N   UNL     1       5.223   4.857  18.429  0.00  0.00    +0.000 N 
ATOM     25  C   UNL     1       4.496   3.937  19.143  0.00  0.00    +0.000 C 
ATOM     26  O   UNL     1       5.047   2.977  19.681  0.00  0.00    +0.000 OA
ATOM     27  H   UNL     1       4.805   5.747  18.168  0.00  0.00    +0.000 HD
BRANCH  24  28
ATOM     28  CA  UNL     1       6.635   4.697  18.106  0.00  0.00    +0.000 C 
BRANCH  28  30
ATOM     29  C   UNL     1       5.741   5.404  15.797  0.00  0.00    +0.000 C 
ATOM     30  C   UNL     1       6.954   5.061  16.649  0.00  0.00    +0.000 C 
ENDBRANCH  28  30
BRANCH  28  31
ATOM     31  C   UNL     1       7.426   5.640  19.023  0.00  0.00    +0.000 C 
ATOM     32  O   UNL     1       7.650   5.415  20.208  0.00  0.00    +0.000 OA
BRANCH  31  33
ATOM     33  OXT UNL     1       7.841   6.778  18.424  0.00  0.00    +0.000 OA
ATOM     34  HXT UNL     1       8.607   7.200  18.860  0.00  0.00    +0.000 HD
ENDBRANCH  31  33
ENDBRANCH  28  31
ENDBRANCH  24  28
ENDBRANCH  23  25
BRANCH  23  35
ATOM     35  C   UNL     1       2.307   4.440  17.882  0.00  0.00    +0.000 C 
ATOM     36  C   UNL     1       2.434   3.289  16.890  0.00  0.00    +0.000 C 
ENDBRANCH  23  35
BRANCH  23  37
ATOM     37  C   UNL     1       2.352   2.945  19.973  0.00  0.00    +0.000 C 
ATOM     38  C   UNL     1       1.040   3.149  20.724  0.00  0.00    +0.000 C 
ENDBRANCH  23  37
ENDBRANCH  22  23
ENDBRANCH   1  22
TORSDOF 13
ENDMDL
MODEL 2
REMARK VINA RESULT:      -7.9      1.723      2.213
REMARK  Name = 
REMARK  16 active torsions:
REMARK  status: ('A' for Active; 'I' for Inactive)
REMARK    1  A    between atoms: C_1  and  C_2
REMARK    2  A    between atoms: C_2  and  CA_3
REMARK    3  A    between atoms: CA_3  and  N_4
REMARK    4  A    between atoms: CA_3  and  C_31
REMARK    5  A    between atoms: C_5  and  C_7
REMARK    6  A    between atoms: C_7  and  C_8
REMARK    7  A    between atoms: C_7  and  C_10
REMARK    8  A    between atoms: C_7  and  C_12
REMARK    9  A    between atoms: C_8  and  C_9
REMARK   10  A    between atoms: C_10  and  C_11
REMARK   11  A    between atoms: C_12  and  C_13
REMARK   12  A    between atoms: C_16  and  C_17
REMARK   13  A    between atoms: C_17  and  O_19
REMARK   14  A    between atoms: O_19  and  C_20
REMARK   15  A    between atoms: C_23  and  C_24
REMARK   16  A    between atoms: C_31  and  OXT_33
REMARK                            x       y       z     vdW  Elec       q    Type
REMARK                         _______ _______ _______ _____ _____    ______ ____
ROOT
ATOM      1  C   UNL     1       2.759   6.628  19.486  0.00  0.00    +0.000 A 
ATOM      2  C   UNL     1       2.799   7.438  18.370  0.00  0.00    +0.000 A 
ATOM      3  C   UNL     1       1.941   8.566  18.502  0.00  0.00    +0.000 A 
ATOM      4  C   UNL     1       1.344   8.638  19.748  0.00  0.00    +0.000 A 
ATOM      5  S   UNL     1       1.892   7.375  20.763  0.00  0.00    +0.000 S 
ENDROOT
BRANCH   4   6
ATOM      6  C   UNL     1       0.336   9.568  20.225  0.00  0.00    +0.000 C 
ATOM      7  O   UNL     1      -0.251   9.547  21.305  0.00  0.00    +0.000 OA
BRANCH   6   8
ATOM      8  O   UNL     1       0.100  10.526  19.241  0.00  0.00    +0.000 OA
BRANCH   8   9
ATOM      9  C   UNL     1      -1.249  10.815  18.986  0.00  0.00    +0.000 A 
ATOM     10  C   UNL     1      -1.843  11.814  19.758  0.00  0.00    +0.000 A 
ATOM     11  C   UNL     1      -3.150  12.222  19.469  0.00  0.00    +0.000 A 
ATOM     12  C   UNL     1      -3.849  11.646  18.397  0.00  0.00    +0.000 A 
ATOM     13  C   UNL     1      -3.237  10.665  17.613  0.00  0.00    +0.000 A 
ATOM     14  C   UNL     1      -1.945  10.255  17.912  0.00  0.00    +0.000 A 
ATOM     15  F   UNL     1      -1.376   9.327  17.131  0.00  0.00    +0.000 F 
BRANCH  12  16
ATOM     16  C   UNL     1      -5.238  12.066  18.064  0.00  0.00    +0.000 C 
ATOM     17  N   UNL     1      -5.984  12.739  18.881  0.00  0.00    +0.000 NA
ATOM     18  N   UNL     1      -5.790  11.743  16.861  0.00  0.00    +0.000 N 
ATOM     19  H   UNL     1      -5.518  12.890  19.779  0.00  0.00    +0.000 HD
ATOM     20  H   UNL     1      -5.175  11.765  16.057  0.00  0.00    +0.000 HD
ATOM     21  H   UNL     1      -6.657  12.250  16.708  0.00  0.00    +0.000 HD
ENDBRANCH  12  16
ENDBRANCH   8   9
ENDBRANCH   6   8
ENDBRANCH   4   6
BRANCH   1  22
ATOM     22  C   UNL     1       3.382   5.267  19.661  0.00  0.00    +0.000 C 
BRANCH  22  23
ATOM     23  C   UNL     1       3.362   4.353  18.392  0.00  0.00    +0.000 C 
BRANCH  23  25
ATOM     24  N   UNL     1       5.612   5.354  18.003  0.00  0.00    +0.000 N 
ATOM     25  C   UNL     1       4.491   4.811  17.424  0.00  0.00    +0.000 C 
ATOM     26  O   UNL     1       4.420   4.662  16.205  0.00  0.00    +0.000 OA
ATOM     27  H   UNL     1       5.753   5.283  19.008  0.00  0.00    +0.000 HD
BRANCH  24  28
ATOM     28  CA  UNL     1       6.708   5.943  17.245  0.00  0.00    +0.000 C 
BRANCH  28  30
ATOM     29  C   UNL     1       7.769   8.259  17.625  0.00  0.00    +0.000 C 
ATOM     30  C   UNL     1       7.620   6.824  18.111  0.00  0.00    +0.000 C 
ENDBRANCH  28  30
BRANCH  28  31
ATOM     31  C   UNL     1       7.548   4.789  16.679  0.00  0.00    +0.000 C 
ATOM     32  O   UNL     1       8.291   4.086  17.357  0.00  0.00    +0.000 OA
BRANCH  31  33
ATOM     33  OXT UNL     1       7.432   4.621  15.344  0.00  0.00    +0.000 OA
ATOM     34  HXT UNL     1       7.866   5.319  14.816  0.00  0.00    +0.000 HD
ENDBRANCH  31  33
ENDBRANCH  28  31
ENDBRANCH  24  28
ENDBRANCH  23  25
BRANCH  23  35
ATOM     35  C   UNL     1       1.966   4.382  17.697  0.00  0.00    +0.000 C 
ATOM     36  C   UNL     1       0.966   3.337  18.180  0.00  0.00    +0.000 C 
ENDBRANCH  23  35
BRANCH  23  37
ATOM     37  C   UNL     1       3.724   2.893  18.838  0.00  0.00    +0.000 C 
ATOM     38  C   UNL     1       4.209   2.714  20.274  0.00  0.00    +0.000 C 
ENDBRANCH  23  37
ENDBRANCH  22  23
ENDBRANCH   1  22
TORSDOF 13
ENDMDL
MODEL 3
REMARK VINA RESULT:      -7.9      1.325      1.667
REMARK  Name = 
REMARK  16 active torsions:
REMARK  status: ('A' for Active; 'I' for Inactive)
REMARK    1  A    between atoms: C_1  and  C_2
REMARK    2  A    between atoms: C_2  and  CA_3
REMARK    3  A    between atoms: CA_3  and  N_4
REMARK    4  A    between atoms: CA_3  and  C_31
REMARK    5  A    between atoms: C_5  and  C_7
REMARK    6  A    between atoms: C_7  and  C_8
REMARK    7  A    between atoms: C_7  and  C_10
REMARK    8  A    between atoms: C_7  and  C_12
REMARK    9  A    between atoms: C_8  and  C_9
REMARK   10  A    between atoms: C_10  and  C_11
REMARK   11  A    between atoms: C_12  and  C_13
REMARK   12  A    between atoms: C_16  and  C_17
REMARK   13  A    between atoms: C_17  and  O_19
REMARK   14  A    between atoms: O_19  and  C_20
REMARK   15  A    between atoms: C_23  and  C_24
REMARK   16  A    between atoms: C_31  and  OXT_33
REMARK                            x       y       z     vdW  Elec       q    Type
REMARK                         _______ _______ _______ _____ _____    ______ ____
ROOT
ATOM      1  C   UNL     1       2.553   6.296  19.978  0.00  0.00    +0.000 A 
ATOM      2  C   UNL     1       1.588   6.780  20.836  0.00  0.00    +0.000 A 
ATOM      3  C   UNL     1       1.130   8.071  20.448  0.00  0.00    +0.000 A 
ATOM      4  C   UNL     1       1.687   8.496  19.254  0.00  0.00    +0.000 A 
ATOM      5  S   UNL     1       2.699   7.290  18.588  0.00  0.00    +0.000 S 
ENDROOT
BRANCH   4   6
ATOM      6  C   UNL     1       1.556   9.782  18.593  0.00  0.00    +0.000 C 
ATOM      7  O   UNL     1       2.031  10.119  17.510  0.00  0.00    +0.000 OA
BRANCH   6   8
ATOM      8  O   UNL     1       0.794  10.629  19.394  0.00  0.00    +0.000 OA
BRANCH   8   9
ATOM      9  C   UNL     1      -0.469  10.972  18.887  0.00  0.00    +0.000 A 
ATOM     10  C   UNL     1      -1.005  10.144  17.900  0.00  0.00    +0.000 A 
ATOM     11  C   UNL     1      -2.307  10.372  17.442  0.00  0.00    +0.000 A 
ATOM     12  C   UNL     1      -3.075  11.413  17.986  0.00  0.00    +0.000 A 
ATOM     13  C   UNL     1      -2.540  12.222  18.992  0.00  0.00    +0.000 A 
ATOM     14  C   UNL     1      -1.243  11.999  19.434  0.00  0.00    +0.000 A 
ATOM     15  F   UNL     1      -0.763  12.777  20.413  0.00  0.00    +0.000 F 
BRANCH  12  16
ATOM     16  C   UNL     1      -4.465  11.674  17.520  0.00  0.00    +0.000 C 
ATOM     17  N   UNL     1      -4.989  11.074  16.499  0.00  0.00    +0.000 NA
ATOM     18  N   UNL     1      -5.253  12.581  18.164  0.00  0.00    +0.000 N 
ATOM     19  H   UNL     1      -4.316  10.455  16.040  0.00  0.00    +0.000 HD
ATOM     20  H   UNL     1      -5.166  12.625  19.172  0.00  0.00    +0.000 HD
ATOM     21  H   UNL     1      -6.218  12.513  17.853  0.00  0.00    +0.000 HD
ENDBRANCH  12  16
ENDBRANCH   8   9
ENDBRANCH   6   8
ENDBRANCH   4   6
BRANCH   1  22
ATOM     22  C   UNL     1       3.397   5.060  20.143  0.00  0.00    +0.000 C 
BRANCH  22  23
ATOM     23  C   UNL     1       2.827   3.764  19.477  0.00  0.00    +0.000 C 
BRANCH  23  25
ATOM     24  N   UNL     1       4.772   4.206  17.981  0.00  0.00    +0.000 N 
ATOM     25  C   UNL     1       3.796   3.312  18.347  0.00  0.00    +0.000 C 
ATOM     26  O   UNL     1       3.732   2.198  17.826  0.00  0.00    +0.000 OA
ATOM     27  H   UNL     1       4.950   5.030  18.551  0.00  0.00    +0.000 HD
BRANCH  24  28
ATOM     28  CA  UNL     1       5.683   3.996  16.864  0.00  0.00    +0.000 C 
BRANCH  28  30
ATOM     29  C   UNL     1       5.173   6.259  15.746  0.00  0.00    +0.000 C 
ATOM     30  C   UNL     1       5.249   4.746  15.597  0.00  0.00    +0.000 C 
ENDBRANCH  28  30
BRANCH  28  31
ATOM     31  C   UNL     1       7.061   4.523  17.288  0.00  0.00    +0.000 C 
ATOM     32  O   UNL     1       8.083   4.382  16.624  0.00  0.00    +0.000 OA
BRANCH  31  33
ATOM     33  OXT UNL     1       7.074   5.141  18.489  0.00  0.00    +0.000 OA
ATOM     34  HXT UNL     1       6.225   5.092  18.971  0.00  0.00    +0.000 HD
ENDBRANCH  31  33
ENDBRANCH  28  31
ENDBRANCH  24  28
ENDBRANCH  23  25
BRANCH  23  35
ATOM     35  C   UNL     1       1.384   3.996  18.935  0.00  0.00    +0.000 C 
ATOM     36  C   UNL     1       1.265   4.170  17.425  0.00  0.00    +0.000 C 
ENDBRANCH  23  35
BRANCH  23  37
ATOM     37  C   UNL     1       2.834   2.621  20.552  0.00  0.00    +0.000 C 
ATOM     38  C   UNL     1       1.697   2.628  21.569  0.00  0.00    +0.000 C 
ENDBRANCH  23  37
ENDBRANCH  22  23
ENDBRANCH   1  22
TORSDOF 13
ENDMDL
MODEL 4
REMARK VINA RESULT:      -7.9      1.275      1.686
REMARK  Name = 
REMARK  16 active torsions:
REMARK  status: ('A' for Active; 'I' for Inactive)
REMARK    1  A    between atoms: C_1  and  C_2
REMARK    2  A    between atoms: C_2  and  CA_3
REMARK    3  A    between atoms: CA_3  and  N_4
REMARK    4  A    between atoms: CA_3  and  C_31
REMARK    5  A    between atoms: C_5  and  C_7
REMARK    6  A    between atoms: C_7  and  C_8
REMARK    7  A    between atoms: C_7  and  C_10
REMARK    8  A    between atoms: C_7  and  C_12
REMARK    9  A    between atoms: C_8  and  C_9
REMARK   10  A    between atoms: C_10  and  C_11
REMARK   11  A    between atoms: C_12  and  C_13
REMARK   12  A    between atoms: C_16  and  C_17
REMARK   13  A    between atoms: C_17  and  O_19
REMARK   14  A    between atoms: O_19  and  C_20
REMARK   15  A    between atoms: C_23  and  C_24
REMARK   16  A    between atoms: C_31  and  OXT_33
REMARK                            x       y       z     vdW  Elec       q    Type
REMARK                         _______ _______ _______ _____ _____    ______ ____
ROOT
ATOM      1  C   UNL     1       2.603   6.427  19.610  0.00  0.00    +0.000 A 
ATOM      2  C   UNL     1       2.845   7.042  18.400  0.00  0.00    +0.000 A 
ATOM      3  C   UNL     1       2.186   8.299  18.302  0.00  0.00    +0.000 A 
ATOM      4  C   UNL     1       1.539   8.654  19.472  0.00  0.00    +0.000 A 
ATOM      5  S   UNL     1       1.804   7.488  20.695  0.00  0.00    +0.000 S 
ENDROOT
BRANCH   4   6
ATOM      6  C   UNL     1       0.678   9.794  19.730  0.00  0.00    +0.000 C 
ATOM      7  O   UNL     1       0.237  10.169  20.815  0.00  0.00    +0.000 OA
BRANCH   6   8
ATOM      8  O   UNL     1       0.393  10.430  18.524  0.00  0.00    +0.000 OA
BRANCH   8   9
ATOM      9  C   UNL     1      -0.965  10.679  18.274  0.00  0.00    +0.000 A 
ATOM     10  C   UNL     1      -1.664   9.721  17.539  0.00  0.00    +0.000 A 
ATOM     11  C   UNL     1      -3.045   9.862  17.360  0.00  0.00    +0.000 A 
ATOM     12  C   UNL     1      -3.724  10.949  17.933  0.00  0.00    +0.000 A 
ATOM     13  C   UNL     1      -3.021  11.890  18.689  0.00  0.00    +0.000 A 
ATOM     14  C   UNL     1      -1.649  11.751  18.853  0.00  0.00    +0.000 A 
ATOM     15  F   UNL     1      -1.004  12.658  19.600  0.00  0.00    +0.000 F 
BRANCH  12  16
ATOM     16  C   UNL     1      -5.193  11.119  17.762  0.00  0.00    +0.000 C 
ATOM     17  N   UNL     1      -5.716  11.766  16.769  0.00  0.00    +0.000 NA
ATOM     18  N   UNL     1      -6.061  10.592  18.671  0.00  0.00    +0.000 N 
ATOM     19  H   UNL     1      -4.997  12.176  16.168  0.00  0.00    +0.000 HD
ATOM     20  H   UNL     1      -5.818   9.692  19.065  0.00  0.00    +0.000 HD
ATOM     21  H   UNL     1      -7.017  10.627  18.326  0.00  0.00    +0.000 HD
ENDBRANCH  12  16
ENDBRANCH   8   9
ENDBRANCH   6   8
ENDBRANCH   4   6
BRANCH   1  22
ATOM     22  C   UNL     1       2.974   5.026  20.023  0.00  0.00    +0.000 C 
BRANCH  22  23
ATOM     23  C   UNL     1       3.447   4.088  18.864  0.00  0.00    +0.000 C 
BRANCH  23  25
ATOM     24  N   UNL     1       5.209   4.660  17.196  0.00  0.00    +0.000 N 
ATOM     25  C   UNL     1       4.927   4.424  18.519  0.00  0.00    +0.000 C 
ATOM     26  O   UNL     1       5.803   4.519  19.378  0.00  0.00    +0.000 OA
ATOM     27  H   UNL     1       4.453   4.786  16.526  0.00  0.00    +0.000 HD
BRANCH  24  28
ATOM     28  CA  UNL     1       6.556   4.868  16.681  0.00  0.00    +0.000 C 
BRANCH  28  30
ATOM     29  C   UNL     1       5.522   4.174  14.428  0.00  0.00    +0.000 C 
ATOM     30  C   UNL     1       6.768   4.233  15.300  0.00  0.00    +0.000 C 
ENDBRANCH  28  30
BRANCH  28  31
ATOM     31  C   UNL     1       6.771   6.383  16.553  0.00  0.00    +0.000 C 
ATOM     32  O   UNL     1       7.841   6.944  16.767  0.00  0.00    +0.000 OA
BRANCH  31  33
ATOM     33  OXT UNL     1       5.662   7.074  16.210  0.00  0.00    +0.000 OA
ATOM     34  HXT UNL     1       5.634   7.341  15.271  0.00  0.00    +0.000 HD
ENDBRANCH  31  33
ENDBRANCH  28  31
ENDBRANCH  24  28
ENDBRANCH  23  25
BRANCH  23  35
ATOM     35  C   UNL     1       2.523   4.222  17.616  0.00  0.00    +0.000 C 
ATOM     36  C   UNL     1       1.067   3.821  17.825  0.00  0.00    +0.000 C 
ENDBRANCH  23  35
BRANCH  23  37
ATOM     37  C   UNL     1       3.440   2.612  19.398  0.00  0.00    +0.000 C 
ATOM     38  C   UNL     1       3.697   1.511  18.374  0.00  0.00    +0.000 C 
ENDBRANCH  23  37
ENDBRANCH  22  23
ENDBRANCH   1  22
TORSDOF 13
ENDMDL
MODEL 5
REMARK VINA RESULT:      -7.9      2.615      2.934
REMARK  Name = 
REMARK  16 active torsions:
REMARK  status: ('A' for Active; 'I' for Inactive)
REMARK    1  A    between atoms: C_1  and  C_2
REMARK    2  A    between atoms: C_2  and  CA_3
REMARK    3  A    between atoms: CA_3  and  N_4
REMARK    4  A    between atoms: CA_3  and  C_31
REMARK    5  A    between atoms: C_5  and  C_7
REMARK    6  A    between atoms: C_7  and  C_8
REMARK    7  A    between atoms: C_7  and  C_10
REMARK    8  A    between atoms: C_7  and  C_12
REMARK    9  A    between atoms: C_8  and  C_9
REMARK   10  A    between atoms: C_10  and  C_11
REMARK   11  A    between atoms: C_12  and  C_13
REMARK   12  A    between atoms: C_16  and  C_17
REMARK   13  A    between atoms: C_17  and  O_19
REMARK   14  A    between atoms: O_19  and  C_20
REMARK   15  A    between atoms: C_23  and  C_24
REMARK   16  A    between atoms: C_31  and  OXT_33
REMARK                            x       y       z     vdW  Elec       q    Type
REMARK                         _______ _______ _______ _____ _____    ______ ____
ROOT
ATOM      1  C   UNL     1       2.769   6.575  19.413  0.00  0.00    +0.000 A 
ATOM      2  C   UNL     1       2.915   7.090  18.142  0.00  0.00    +0.000 A 
ATOM      3  C   UNL     1       2.134   8.265  17.952  0.00  0.00    +0.000 A 
ATOM      4  C   UNL     1       1.489   8.668  19.108  0.00  0.00    +0.000 A 
ATOM      5  S   UNL     1       1.901   7.655  20.423  0.00  0.00    +0.000 S 
ENDROOT
BRANCH   4   6
ATOM      6  C   UNL     1       0.529   9.742  19.292  0.00  0.00    +0.000 C 
ATOM      7  O   UNL     1      -0.542   9.896  18.709  0.00  0.00    +0.000 OA
BRANCH   6   8
ATOM      8  O   UNL     1       1.014  10.625  20.254  0.00  0.00    +0.000 OA
BRANCH   8   9
ATOM      9  C   UNL     1       0.050  11.178  21.111  0.00  0.00    +0.000 A 
ATOM     10  C   UNL     1      -0.634  12.306  20.655  0.00  0.00    +0.000 A 
ATOM     11  C   UNL     1      -1.684  12.829  21.418  0.00  0.00    +0.000 A 
ATOM     12  C   UNL     1      -2.058  12.212  22.623  0.00  0.00    +0.000 A 
ATOM     13  C   UNL     1      -1.384  11.069  23.059  0.00  0.00    +0.000 A 
ATOM     14  C   UNL     1      -0.335  10.561  22.304  0.00  0.00    +0.000 A 
ATOM     15  F   UNL     1       0.280   9.453  22.736  0.00  0.00    +0.000 F 
BRANCH  12  16
ATOM     16  C   UNL     1      -3.175  12.746  23.451  0.00  0.00    +0.000 C 
ATOM     17  N   UNL     1      -3.474  14.005  23.501  0.00  0.00    +0.000 NA
ATOM     18  N   UNL     1      -3.937  11.907  24.208  0.00  0.00    +0.000 N 
ATOM     19  H   UNL     1      -2.821  14.569  22.952  0.00  0.00    +0.000 HD
ATOM     20  H   UNL     1      -4.146  10.999  23.812  0.00  0.00    +0.000 HD
ATOM     21  H   UNL     1      -4.761  12.384  24.563  0.00  0.00    +0.000 HD
ENDBRANCH  12  16
ENDBRANCH   8   9
ENDBRANCH   6   8
ENDBRANCH   4   6
BRANCH   1  22
ATOM     22  C   UNL     1       3.286   5.262  19.940  0.00  0.00    +0.000 C 
BRANCH  22  23
ATOM     23  C   UNL     1       2.818   3.992  19.155  0.00  0.00    +0.000 C 
BRANCH  23  25
ATOM     24  N   UNL     1       5.019   4.196  18.000  0.00  0.00    +0.000 N 
ATOM     25  C   UNL     1       3.699   3.838  17.880  0.00  0.00    +0.000 C 
ATOM     26  O   UNL     1       3.261   3.380  16.825  0.00  0.00    +0.000 OA
ATOM     27  H   UNL     1       5.420   4.372  18.918  0.00  0.00    +0.000 HD
BRANCH  24  28
ATOM     28  CA  UNL     1       5.952   4.229  16.881  0.00  0.00    +0.000 C 
BRANCH  28  30
ATOM     29  C   UNL     1       5.581   4.411  14.339  0.00  0.00    +0.000 C 
ATOM     30  C   UNL     1       5.435   5.069  15.704  0.00  0.00    +0.000 C 
ENDBRANCH  28  30
BRANCH  28  31
ATOM     31  C   UNL     1       7.256   4.861  17.387  0.00  0.00    +0.000 C 
ATOM     32  O   UNL     1       7.946   4.384  18.282  0.00  0.00    +0.000 OA
BRANCH  31  33
ATOM     33  OXT UNL     1       7.580   6.025  16.783  0.00  0.00    +0.000 OA
ATOM     34  HXT UNL     1       7.565   6.800  17.378  0.00  0.00    +0.000 HD
ENDBRANCH  31  33
ENDBRANCH  28  31
ENDBRANCH  24  28
ENDBRANCH  23  25
BRANCH  23  35
ATOM     35  C   UNL     1       1.303   4.076  18.797  0.00  0.00    +0.000 C 
ATOM     36  C   UNL     1       0.565   2.744  18.733  0.00  0.00    +0.000 C 
ENDBRANCH  23  35
BRANCH  23  37
ATOM     37  C   UNL     1       3.104   2.734  20.047  0.00  0.00    +0.000 C 
ATOM     38  C   UNL     1       2.629   2.798  21.496  0.00  0.00    +0.000 C 
ENDBRANCH  23  37
ENDBRANCH  22  23
ENDBRANCH   1  22
TORSDOF 13
ENDMDL
MODEL 6
REMARK VINA RESULT:      -7.8      2.306      2.750
REMARK  Name = 
REMARK  16 active torsions:
REMARK  status: ('A' for Active; 'I' for Inactive)
REMARK    1  A    between atoms: C_1  and  C_2
REMARK    2  A    between atoms: C_2  and  CA_3
REMARK    3  A    between atoms: CA_3  and  N_4
REMARK    4  A    between atoms: CA_3  and  C_31
REMARK    5  A    between atoms: C_5  and  C_7
REMARK    6  A    between atoms: C_7  and  C_8
REMARK    7  A    between atoms: C_7  and  C_10
REMARK    8  A    between atoms: C_7  and  C_12
REMARK    9  A    between atoms: C_8  and  C_9
REMARK   10  A    between atoms: C_10  and  C_11
REMARK   11  A    between atoms: C_12  and  C_13
REMARK   12  A    between atoms: C_16  and  C_17
REMARK   13  A    between atoms: C_17  and  O_19
REMARK   14  A    between atoms: O_19  and  C_20
REMARK   15  A    between atoms: C_23  and  C_24
REMARK   16  A    between atoms: C_31  and  OXT_33
REMARK                            x       y       z     vdW  Elec       q    Type
REMARK                         _______ _______ _______ _____ _____    ______ ____
ROOT
ATOM      1  C   UNL     1       2.614   7.165  19.483  0.00  0.00    +0.000 A 
ATOM      2  C   UNL     1       2.757   7.637  18.195  0.00  0.00    +0.000 A 
ATOM      3  C   UNL     1       1.858   8.705  17.918  0.00  0.00    +0.000 A 
ATOM      4  C   UNL     1       1.122   9.083  19.027  0.00  0.00    +0.000 A 
ATOM      5  S   UNL     1       1.588   8.184  20.405  0.00  0.00    +0.000 S 
ENDROOT
BRANCH   4   6
ATOM      6  C   UNL     1       0.040  10.047  19.119  0.00  0.00    +0.000 C 
ATOM      7  O   UNL     1      -1.011  10.055  18.483  0.00  0.00    +0.000 OA
BRANCH   6   8
ATOM      8  O   UNL     1       0.376  11.015  20.063  0.00  0.00    +0.000 OA
BRANCH   8   9
ATOM      9  C   UNL     1      -0.668  11.430  20.905  0.00  0.00    +0.000 A 
ATOM     10  C   UNL     1      -0.710  10.880  22.186  0.00  0.00    +0.000 A 
ATOM     11  C   UNL     1      -1.659  11.343  23.104  0.00  0.00    +0.000 A 
ATOM     12  C   UNL     1      -2.548  12.368  22.744  0.00  0.00    +0.000 A 
ATOM     13  C   UNL     1      -2.483  12.931  21.467  0.00  0.00    +0.000 A 
ATOM     14  C   UNL     1      -1.547  12.459  20.557  0.00  0.00    +0.000 A 
ATOM     15  F   UNL     1      -1.494  13.032  19.346  0.00  0.00    +0.000 F 
BRANCH  12  16
ATOM     16  C   UNL     1      -3.564  12.883  23.704  0.00  0.00    +0.000 C 
ATOM     17  N   UNL     1      -3.856  14.139  23.812  0.00  0.00    +0.000 NA
ATOM     18  N   UNL     1      -4.234  12.028  24.527  0.00  0.00    +0.000 N 
ATOM     19  H   UNL     1      -3.271  14.716  23.203  0.00  0.00    +0.000 HD
ATOM     20  H   UNL     1      -4.486  11.127  24.140  0.00  0.00    +0.000 HD
ATOM     21  H   UNL     1      -5.013  12.495  24.982  0.00  0.00    +0.000 HD
ENDBRANCH  12  16
ENDBRANCH   8   9
ENDBRANCH   6   8
ENDBRANCH   4   6
BRANCH   1  22
ATOM     22  C   UNL     1       3.252   5.945  20.095  0.00  0.00    +0.000 C 
BRANCH  22  23
ATOM     23  C   UNL     1       2.785   4.575  19.500  0.00  0.00    +0.000 C 
BRANCH  23  25
ATOM     24  N   UNL     1       4.907   4.828  18.216  0.00  0.00    +0.000 N 
ATOM     25  C   UNL     1       3.958   3.954  18.687  0.00  0.00    +0.000 C 
ATOM     26  O   UNL     1       4.068   2.742  18.504  0.00  0.00    +0.000 OA
ATOM     27  H   UNL     1       4.925   5.790  18.544  0.00  0.00    +0.000 HD
BRANCH  24  28
ATOM     28  CA  UNL     1       6.002   4.434  17.338  0.00  0.00    +0.000 C 
BRANCH  28  30
ATOM     29  C   UNL     1       5.469   4.563  14.822  0.00  0.00    +0.000 C 
ATOM     30  C   UNL     1       6.050   5.260  16.044  0.00  0.00    +0.000 C 
ENDBRANCH  28  30
BRANCH  28  31
ATOM     31  C   UNL     1       7.312   4.664  18.105  0.00  0.00    +0.000 C 
ATOM     32  O   UNL     1       7.415   5.401  19.080  0.00  0.00    +0.000 OA
BRANCH  31  33
ATOM     33  OXT UNL     1       8.376   4.004  17.596  0.00  0.00    +0.000 OA
ATOM     34  HXT UNL     1       9.153   4.572  17.428  0.00  0.00    +0.000 HD
ENDBRANCH  31  33
ENDBRANCH  28  31
ENDBRANCH  24  28
ENDBRANCH  23  25
BRANCH  23  35
ATOM     35  C   UNL     1       1.508   4.746  18.623  0.00  0.00    +0.000 C 
ATOM     36  C   UNL     1       1.524   4.017  17.284  0.00  0.00    +0.000 C 
ENDBRANCH  23  35
BRANCH  23  37
ATOM     37  C   UNL     1       2.505   3.596  20.694  0.00  0.00    +0.000 C 
ATOM     38  C   UNL     1       1.078   3.076  20.834  0.00  0.00    +0.000 C 
ENDBRANCH  23  37
ENDBRANCH  22  23
ENDBRANCH   1  22
TORSDOF 13
ENDMDL
MODEL 7
REMARK VINA RESULT:      -7.8      2.614      3.198
REMARK  Name = 
REMARK  16 active torsions:
REMARK  status: ('A' for Active; 'I' for Inactive)
REMARK    1  A    between atoms: C_1  and  C_2
REMARK    2  A    between atoms: C_2  and  CA_3
REMARK    3  A    between atoms: CA_3  and  N_4
REMARK    4  A    between atoms: CA_3  and  C_31
REMARK    5  A    between atoms: C_5  and  C_7
REMARK    6  A    between atoms: C_7  and  C_8
REMARK    7  A    between atoms: C_7  and  C_10
REMARK    8  A    between atoms: C_7  and  C_12
REMARK    9  A    between atoms: C_8  and  C_9
REMARK   10  A    between atoms: C_10  and  C_11
REMARK   11  A    between atoms: C_12  and  C_13
REMARK   12  A    between atoms: C_16  and  C_17
REMARK   13  A    between atoms: C_17  and  O_19
REMARK   14  A    between atoms: O_19  and  C_20
REMARK   15  A    between atoms: C_23  and  C_24
REMARK   16  A    between atoms: C_31  and  OXT_33
REMARK                            x       y       z     vdW  Elec       q    Type
REMARK                         _______ _______ _______ _____ _____    ______ ____
ROOT
ATOM      1  C   UNL     1       2.358   7.270  19.729  0.00  0.00    +0.000 A 
ATOM      2  C   UNL     1       1.651   7.192  20.911  0.00  0.00    +0.000 A 
ATOM      3  C   UNL     1       0.847   8.347  21.126  0.00  0.00    +0.000 A 
ATOM      4  C   UNL     1       0.888   9.230  20.062  0.00  0.00    +0.000 A 
ATOM      5  S   UNL     1       1.843   8.607  18.787  0.00  0.00    +0.000 S 
ENDROOT
BRANCH   4   6
ATOM      6  C   UNL     1       0.298  10.552  19.948  0.00  0.00    +0.000 C 
ATOM      7  O   UNL     1      -0.381  10.992  19.023  0.00  0.00    +0.000 OA
BRANCH   6   8
ATOM      8  O   UNL     1       0.631  11.296  21.078  0.00  0.00    +0.000 OA
BRANCH   8   9
ATOM      9  C   UNL     1      -0.450  11.851  21.780  0.00  0.00    +0.000 A 
ATOM     10  C   UNL     1      -0.958  13.063  21.312  0.00  0.00    +0.000 A 
ATOM     11  C   UNL     1      -2.106  13.603  21.903  0.00  0.00    +0.000 A 
ATOM     12  C   UNL     1      -2.752  12.919  22.946  0.00  0.00    +0.000 A 
ATOM     13  C   UNL     1      -2.251  11.694  23.391  0.00  0.00    +0.000 A 
ATOM     14  C   UNL     1      -1.105  11.169  22.810  0.00  0.00    +0.000 A 
ATOM     15  F   UNL     1      -0.658   9.983  23.243  0.00  0.00    +0.000 F 
BRANCH  12  16
ATOM     16  C   UNL     1      -3.977  13.469  23.588  0.00  0.00    +0.000 C 
ATOM     17  N   UNL     1      -4.372  13.116  24.769  0.00  0.00    +0.000 NA
ATOM     18  N   UNL     1      -4.750  14.383  22.935  0.00  0.00    +0.000 N 
ATOM     19  H   UNL     1      -3.771  12.388  25.164  0.00  0.00    +0.000 HD
ATOM     20  H   UNL     1      -4.266  15.070  22.371  0.00  0.00    +0.000 HD
ATOM     21  H   UNL     1      -5.434  14.797  23.563  0.00  0.00    +0.000 HD
ENDBRANCH  12  16
ENDBRANCH   8   9
ENDBRANCH   6   8
ENDBRANCH   4   6
BRANCH   1  22
ATOM     22  C   UNL     1       3.436   6.340  19.236  0.00  0.00    +0.000 C 
BRANCH  22  23
ATOM     23  C   UNL     1       3.015   4.841  19.093  0.00  0.00    +0.000 C 
BRANCH  23  25
ATOM     24  N   UNL     1       4.800   4.844  17.352  0.00  0.00    +0.000 N 
ATOM     25  C   UNL     1       4.096   4.092  18.261  0.00  0.00    +0.000 C 
ATOM     26  O   UNL     1       4.350   2.899  18.425  0.00  0.00    +0.000 OA
ATOM     27  H   UNL     1       4.733   5.859  17.368  0.00  0.00    +0.000 HD
BRANCH  24  28
ATOM     28  CA  UNL     1       5.759   4.283  16.409  0.00  0.00    +0.000 C 
BRANCH  28  30
ATOM     29  C   UNL     1       6.269   3.864  13.920  0.00  0.00    +0.000 C 
ATOM     30  C   UNL     1       5.374   4.545  14.946  0.00  0.00    +0.000 C 
ENDBRANCH  28  30
BRANCH  28  31
ATOM     31  C   UNL     1       7.114   4.953  16.678  0.00  0.00    +0.000 C 
ATOM     32  O   UNL     1       7.376   6.113  16.380  0.00  0.00    +0.000 OA
BRANCH  31  33
ATOM     33  OXT UNL     1       8.030   4.142  17.252  0.00  0.00    +0.000 OA
ATOM     34  HXT UNL     1       8.023   4.162  18.229  0.00  0.00    +0.000 HD
ENDBRANCH  31  33
ENDBRANCH  28  31
ENDBRANCH  24  28
ENDBRANCH  23  25
BRANCH  23  35
ATOM     35  C   UNL     1       1.603   4.710  18.446  0.00  0.00    +0.000 C 
ATOM     36  C   UNL     1       1.513   3.788  17.235  0.00  0.00    +0.000 C 
ENDBRANCH  23  35
BRANCH  23  37
ATOM     37  C   UNL     1       3.027   4.193  20.522  0.00  0.00    +0.000 C 
ATOM     38  C   UNL     1       1.735   3.526  20.984  0.00  0.00    +0.000 C 
ENDBRANCH  23  37
ENDBRANCH  22  23
ENDBRANCH   1  22
TORSDOF 13
ENDMDL
MODEL 8
REMARK VINA RESULT:      -7.8      1.725      2.267
REMARK  Name = 
REMARK  16 active torsions:
REMARK  status: ('A' for Active; 'I' for Inactive)
REMARK    1  A    between atoms: C_1  and  C_2
REMARK    2  A    between atoms: C_2  and  CA_3
REMARK    3  A    between atoms: CA_3  and  N_4
REMARK    4  A    between atoms: CA_3  and  C_31
REMARK    5  A    between atoms: C_5  and  C_7
REMARK    6  A    between atoms: C_7  and  C_8
REMARK    7  A    between atoms: C_7  and  C_10
REMARK    8  A    between atoms: C_7  and  C_12
REMARK    9  A    between atoms: C_8  and  C_9
REMARK   10  A    between atoms: C_10  and  C_11
REMARK   11  A    between atoms: C_12  and  C_13
REMARK   12  A    between atoms: C_16  and  C_17
REMARK   13  A    between atoms: C_17  and  O_19
REMARK   14  A    between atoms: O_19  and  C_20
REMARK   15  A    between atoms: C_23  and  C_24
REMARK   16  A    between atoms: C_31  and  OXT_33
REMARK                            x       y       z     vdW  Elec       q    Type
REMARK                         _______ _______ _______ _____ _____    ______ ____
ROOT
ATOM      1  C   UNL     1       2.732   6.304  19.829  0.00  0.00    +0.000 A 
ATOM      2  C   UNL     1       1.800   6.611  20.799  0.00  0.00    +0.000 A 
ATOM      3  C   UNL     1       1.225   7.897  20.596  0.00  0.00    +0.000 A 
ATOM      4  C   UNL     1       1.662   8.497  19.428  0.00  0.00    +0.000 A 
ATOM      5  S   UNL     1       2.706   7.457  18.560  0.00  0.00    +0.000 S 
ENDROOT
BRANCH   4   6
ATOM      6  C   UNL     1       1.393   9.835  18.933  0.00  0.00    +0.000 C 
ATOM      7  O   UNL     1       2.033  10.466  18.095  0.00  0.00    +0.000 OA
BRANCH   6   8
ATOM      8  O   UNL     1       0.264  10.338  19.577  0.00  0.00    +0.000 OA
BRANCH   8   9
ATOM      9  C   UNL     1      -0.836  10.612  18.749  0.00  0.00    +0.000 A 
ATOM     10  C   UNL     1      -0.982   9.828  17.604  0.00  0.00    +0.000 A 
ATOM     11  C   UNL     1      -2.121   9.981  16.806  0.00  0.00    +0.000 A 
ATOM     12  C   UNL     1      -3.117  10.902  17.165  0.00  0.00    +0.000 A 
ATOM     13  C   UNL     1      -2.975  11.666  18.327  0.00  0.00    +0.000 A 
ATOM     14  C   UNL     1      -1.837  11.519  19.108  0.00  0.00    +0.000 A 
ATOM     15  F   UNL     1      -1.736  12.249  20.227  0.00  0.00    +0.000 F 
BRANCH  12  16
ATOM     16  C   UNL     1      -4.341  11.081  16.336  0.00  0.00    +0.000 C 
ATOM     17  N   UNL     1      -4.418  10.694  15.103  0.00  0.00    +0.000 NA
ATOM     18  N   UNL     1      -5.449  11.678  16.857  0.00  0.00    +0.000 N 
ATOM     19  H   UNL     1      -3.529  10.310  14.773  0.00  0.00    +0.000 HD
ATOM     20  H   UNL     1      -5.663  11.477  17.826  0.00  0.00    +0.000 HD
ATOM     21  H   UNL     1      -6.251  11.560  16.243  0.00  0.00    +0.000 HD
ENDBRANCH  12  16
ENDBRANCH   8   9
ENDBRANCH   6   8
ENDBRANCH   4   6
BRANCH   1  22
ATOM     22  C   UNL     1       3.672   5.127  19.793  0.00  0.00    +0.000 C 
BRANCH  22  23
ATOM     23  C   UNL     1       3.451   4.129  18.609  0.00  0.00    +0.000 C 
BRANCH  23  25
ATOM     24  N   UNL     1       5.487   5.264  17.724  0.00  0.00    +0.000 N 
ATOM     25  C   UNL     1       4.349   4.562  17.413  0.00  0.00    +0.000 C 
ATOM     26  O   UNL     1       4.089   4.263  16.247  0.00  0.00    +0.000 OA
ATOM     27  H   UNL     1       5.802   5.326  18.689  0.00  0.00    +0.000 HD
BRANCH  24  28
ATOM     28  CA  UNL     1       6.374   5.848  16.726  0.00  0.00    +0.000 C 
BRANCH  28  30
ATOM     29  C   UNL     1       7.800   6.552  18.751  0.00  0.00    +0.000 C 
ATOM     30  C   UNL     1       7.358   6.861  17.328  0.00  0.00    +0.000 C 
ENDBRANCH  28  30
BRANCH  28  31
ATOM     31  C   UNL     1       7.183   4.703  16.102  0.00  0.00    +0.000 C 
ATOM     32  O   UNL     1       8.085   4.106  16.681  0.00  0.00    +0.000 OA
BRANCH  31  33
ATOM     33  OXT UNL     1       6.844   4.413  14.827  0.00  0.00    +0.000 OA
ATOM     34  HXT UNL     1       6.883   3.461  14.611  0.00  0.00    +0.000 HD
ENDBRANCH  31  33
ENDBRANCH  28  31
ENDBRANCH  24  28
ENDBRANCH  23  25
BRANCH  23  35
ATOM     35  C   UNL     1       1.948   4.061  18.200  0.00  0.00    +0.000 C 
ATOM     36  C   UNL     1       1.020   3.388  19.205  0.00  0.00    +0.000 C 
ENDBRANCH  23  35
BRANCH  23  37
ATOM     37  C   UNL     1       3.963   2.717  19.060  0.00  0.00    +0.000 C 
ATOM     38  C   UNL     1       3.584   1.534  18.173  0.00  0.00    +0.000 C 
ENDBRANCH  23  37
ENDBRANCH  22  23
ENDBRANCH   1  22
TORSDOF 13
ENDMDL
MODEL 9
REMARK VINA RESULT:      -7.7      0.913      1.101
REMARK  Name = 
REMARK  16 active torsions:
REMARK  status: ('A' for Active; 'I' for Inactive)
REMARK    1  A    between atoms: C_1  and  C_2
REMARK    2  A    between atoms: C_2  and  CA_3
REMARK    3  A    between atoms: CA_3  and  N_4
REMARK    4  A    between atoms: CA_3  and  C_31
REMARK    5  A    between atoms: C_5  and  C_7
REMARK    6  A    between atoms: C_7  and  C_8
REMARK    7  A    between atoms: C_7  and  C_10
REMARK    8  A    between atoms: C_7  and  C_12
REMARK    9  A    between atoms: C_8  and  C_9
REMARK   10  A    between atoms: C_10  and  C_11
REMARK   11  A    between atoms: C_12  and  C_13
REMARK   12  A    between atoms: C_16  and  C_17
REMARK   13  A    between atoms: C_17  and  O_19
REMARK   14  A    between atoms: O_19  and  C_20
REMARK   15  A    between atoms: C_23  and  C_24
REMARK   16  A    between atoms: C_31  and  OXT_33
REMARK                            x       y       z     vdW  Elec       q    Type
REMARK                         _______ _______ _______ _____ _____    ______ ____
ROOT
ATOM      1  C   UNL     1       2.560   6.835  19.749  0.00  0.00    +0.000 A 
ATOM      2  C   UNL     1       2.725   7.429  18.516  0.00  0.00    +0.000 A 
ATOM      3  C   UNL     1       1.895   8.575  18.362  0.00  0.00    +0.000 A 
ATOM      4  C   UNL     1       1.190   8.880  19.513  0.00  0.00    +0.000 A 
ATOM      5  S   UNL     1       1.605   7.814  20.784  0.00  0.00    +0.000 S 
ENDROOT
BRANCH   4   6
ATOM      6  C   UNL     1       0.173   9.895  19.719  0.00  0.00    +0.000 C 
ATOM      7  O   UNL     1      -0.443  10.138  20.754  0.00  0.00    +0.000 OA
BRANCH   6   8
ATOM      8  O   UNL     1      -0.031  10.582  18.524  0.00  0.00    +0.000 OA
BRANCH   8   9
ATOM      9  C   UNL     1      -1.358  10.949  18.253  0.00  0.00    +0.000 A 
ATOM     10  C   UNL     1      -2.129  10.050  17.515  0.00  0.00    +0.000 A 
ATOM     11  C   UNL     1      -3.490  10.312  17.316  0.00  0.00    +0.000 A 
ATOM     12  C   UNL     1      -4.077  11.460  17.871  0.00  0.00    +0.000 A 
ATOM     13  C   UNL     1      -3.303  12.342  18.630  0.00  0.00    +0.000 A 
ATOM     14  C   UNL     1      -1.952  12.083  18.814  0.00  0.00    +0.000 A 
ATOM     15  F   UNL     1      -1.238  12.935  19.563  0.00  0.00    +0.000 F 
BRANCH  12  16
ATOM     16  C   UNL     1      -5.523  11.759  17.677  0.00  0.00    +0.000 C 
ATOM     17  N   UNL     1      -5.953  12.900  17.240  0.00  0.00    +0.000 NA
ATOM     18  N   UNL     1      -6.468  10.822  17.967  0.00  0.00    +0.000 N 
ATOM     19  H   UNL     1      -5.187  13.563  17.103  0.00  0.00    +0.000 HD
ATOM     20  H   UNL     1      -6.238   9.860  17.750  0.00  0.00    +0.000 HD
ATOM     21  H   UNL     1      -7.379  11.100  17.613  0.00  0.00    +0.000 HD
ENDBRANCH  12  16
ENDBRANCH   8   9
ENDBRANCH   6   8
ENDBRANCH   4   6
BRANCH   1  22
ATOM     22  C   UNL     1       3.121   5.519  20.222  0.00  0.00    +0.000 C 
BRANCH  22  23
ATOM     23  C   UNL     1       3.217   4.401  19.133  0.00  0.00    +0.000 C 
BRANCH  23  25
ATOM     24  N   UNL     1       5.375   4.947  18.010  0.00  0.00    +0.000 N 
ATOM     25  C   UNL     1       4.718   4.092  18.860  0.00  0.00    +0.000 C 
ATOM     26  O   UNL     1       5.311   3.160  19.403  0.00  0.00    +0.000 OA
ATOM     27  H   UNL     1       4.943   5.825  17.733  0.00  0.00    +0.000 HD
BRANCH  24  28
ATOM     28  CA  UNL     1       6.743   4.737  17.552  0.00  0.00    +0.000 C 
BRANCH  28  30
ATOM     29  C   UNL     1       5.474   4.239  15.368  0.00  0.00    +0.000 C 
ATOM     30  C   UNL     1       6.813   4.278  16.089  0.00  0.00    +0.000 C 
ENDBRANCH  28  30
BRANCH  28  31
ATOM     31  C   UNL     1       7.479   6.079  17.672  0.00  0.00    +0.000 C 
ATOM     32  O   UNL     1       7.936   6.518  18.722  0.00  0.00    +0.000 OA
BRANCH  31  33
ATOM     33  OXT UNL     1       7.560   6.773  16.516  0.00  0.00    +0.000 OA
ATOM     34  HXT UNL     1       6.801   6.638  15.917  0.00  0.00    +0.000 HD
ENDBRANCH  31  33
ENDBRANCH  28  31
ENDBRANCH  24  28
ENDBRANCH  23  25
BRANCH  23  35
ATOM     35  C   UNL     1       2.472   4.818  17.828  0.00  0.00    +0.000 C 
ATOM     36  C   UNL     1       1.259   3.971  17.460  0.00  0.00    +0.000 C 
ENDBRANCH  23  35
BRANCH  23  37
ATOM     37  C   UNL     1       2.594   3.089  19.726  0.00  0.00    +0.000 C 
ATOM     38  C   UNL     1       1.857   3.219  21.056  0.00  0.00    +0.000 C 
ENDBRANCH  23  37
ENDBRANCH  22  23
ENDBRANCH   1  22
TORSDOF 13
ENDMDL
