MODEL 1
REMARK VINA RESULT:      -8.8      0.000      0.000
REMARK  Name = 
REMARK  14 active torsions:
REMARK  status: ('A' for Active; 'I' for Inactive)
REMARK    1  A    between atoms: C_1  and  C_2
REMARK    2  A    between atoms: C_2  and  N_3
REMARK    3  A    between atoms: N_3  and  C_4
REMARK    4  A    between atoms: N_3  and  S_6
REMARK    5  A    between atoms: C_4  and  C_5
REMARK    6  A    between atoms: S_6  and  C_9
REMARK    7  A    between atoms: C_11  and  N_12
REMARK    8  A    between atoms: C_13  and  C_15
REMARK    9  A    between atoms: C_20  and  O_21
REMARK   10  A    between atoms: O_21  and  C_22
REMARK   11  A    between atoms: C_22  and  C_23
REMARK   12  A    between atoms: C_24  and  C_25
REMARK   13  A    between atoms: C_28  and  C_29
REMARK   14  A    between atoms: C_32  and  C_33
REMARK                            x       y       z     vdW  Elec       q    Type
REMARK                         _______ _______ _______ _____ _____    ______ ____
ROOT
ATOM      1  N   UNL     1       0.996   7.387  21.207  0.00  0.00    +0.000 N 
ATOM      2  C   UNL     1       1.890   7.044  20.183  0.00  0.00    +0.000 C 
ATOM      3  O   UNL     1       2.379   7.836  19.389  0.00  0.00    +0.000 OA
ATOM      4  H   UNL     1       1.185   6.853  22.049  0.00  0.00    +0.000 HD
ENDROOT
BRANCH   1   7
ATOM      5  C   UNL     1      -0.517  10.735  20.609  0.00  0.00    +0.000 A 
ATOM      6  C   UNL     1       0.252   9.563  20.402  0.00  0.00    +0.000 A 
ATOM      7  C   UNL     1       0.543   8.702  21.471  0.00  0.00    +0.000 A 
ATOM      8  C   UNL     1       0.085   9.034  22.746  0.00  0.00    +0.000 A 
ATOM      9  C   UNL     1      -0.628  10.225  22.960  0.00  0.00    +0.000 A 
ATOM     10  C   UNL     1      -0.954  11.090  21.899  0.00  0.00    +0.000 A 
ATOM     11  C   UNL     1      -1.791  12.305  22.211  0.00  0.00    +0.000 C 
BRANCH   5  12
ATOM     12  S   UNL     1      -0.948  11.677  19.140  0.00  0.00    +0.000 S 
ATOM     13  O   UNL     1       0.093  11.441  18.165  0.00  0.00    +0.000 OA
ATOM     14  O   UNL     1      -1.332  13.027  19.500  0.00  0.00    +0.000 OA
BRANCH  12  15
ATOM     15  N   UNL     1      -2.382  10.890  18.590  0.00  0.00    +0.000 NA
BRANCH  15  17
ATOM     16  C   UNL     1      -4.878  11.063  18.456  0.00  0.00    +0.000 C 
ATOM     17  C   UNL     1      -3.548  11.799  18.375  0.00  0.00    +0.000 C 
ENDBRANCH  15  17
BRANCH  15  18
ATOM     18  C   UNL     1      -2.142   9.900  17.491  0.00  0.00    +0.000 C 
ATOM     19  C   UNL     1      -2.460  10.424  16.100  0.00  0.00    +0.000 C 
ENDBRANCH  15  18
ENDBRANCH  12  15
ENDBRANCH   5  12
ENDBRANCH   1   7
BRANCH   2  20
ATOM     20  C   UNL     1       2.176   5.554  20.090  0.00  0.00    +0.000 A 
ATOM     21  C   UNL     1       1.144   4.678  20.506  0.00  0.00    +0.000 A 
ATOM     22  C   UNL     1       1.268   3.292  20.395  0.00  0.00    +0.000 A 
ATOM     23  C   UNL     1       2.377   2.744  19.778  0.00  0.00    +0.000 A 
ATOM     24  C   UNL     1       3.390   3.586  19.331  0.00  0.00    +0.000 A 
ATOM     25  C   UNL     1       3.349   4.979  19.561  0.00  0.00    +0.000 A 
BRANCH  25  26
ATOM     26  O   UNL     1       4.484   5.747  19.347  0.00  0.00    +0.000 OA
BRANCH  26  27
ATOM     27  C   UNL     1       5.624   4.969  18.911  0.00  0.00    +0.000 C 
BRANCH  27  28
ATOM     28  C   UNL     1       6.325   5.470  17.707  0.00  0.00    +0.000 A 
ATOM     29  C   UNL     1       6.181   4.979  16.376  0.00  0.00    +0.000 A 
ATOM     30  C   UNL     1       5.362   3.841  15.886  0.00  0.00    +0.000 C 
ATOM     31  N   UNL     1       6.968   5.645  15.522  0.00  0.00    +0.000 NA
ATOM     32  O   UNL     1       7.687   6.538  16.297  0.00  0.00    +0.000 OA
ATOM     33  C   UNL     1       7.329   6.402  17.601  0.00  0.00    +0.000 A 
ATOM     34  C   UNL     1       8.084   7.192  18.588  0.00  0.00    +0.000 C 
ENDBRANCH  27  28
ENDBRANCH  26  27
ENDBRANCH  25  26
ENDBRANCH   2  20
TORSDOF 9
ENDMDL
MODEL 2
REMARK VINA RESULT:      -8.7      1.499      1.762
REMARK  Name = 
REMARK  14 active torsions:
REMARK  status: ('A' for Active; 'I' for Inactive)
REMARK    1  A    between atoms: C_1  and  C_2
REMARK    2  A    between atoms: C_2  and  N_3
REMARK    3  A    between atoms: N_3  and  C_4
REMARK    4  A    between atoms: N_3  and  S_6
REMARK    5  A    between atoms: C_4  and  C_5
REMARK    6  A    between atoms: S_6  and  C_9
REMARK    7  A    between atoms: C_11  and  N_12
REMARK    8  A    between atoms: C_13  and  C_15
REMARK    9  A    between atoms: C_20  and  O_21
REMARK   10  A    between atoms: O_21  and  C_22
REMARK   11  A    between atoms: C_22  and  C_23
REMARK   12  A    between atoms: C_24  and  C_25
REMARK   13  A    between atoms: C_28  and  C_29
REMARK   14  A    between atoms: C_32  and  C_33
REMARK                            x       y       z     vdW  Elec       q    Type
REMARK                         _______ _______ _______ _____ _____    ______ ____
ROOT
ATOM      1  N   UNL     1       1.310   7.318  21.349  0.00  0.00    +0.000 N 
ATOM      2  C   UNL     1       1.986   6.968  20.173  0.00  0.00    +0.000 C 
ATOM      3  O   UNL     1       2.335   7.758  19.306  0.00  0.00    +0.000 OA
ATOM      4  H   UNL     1       1.642   6.772  22.137  0.00  0.00    +0.000 HD
ENDROOT
BRANCH   1   7
ATOM      5  C   UNL     1       0.725  10.979  21.011  0.00  0.00    +0.000 A 
ATOM      6  C   UNL     1       1.345   9.711  20.891  0.00  0.00    +0.000 A 
ATOM      7  C   UNL     1       0.944   8.640  21.703  0.00  0.00    +0.000 A 
ATOM      8  C   UNL     1      -0.058   8.851  22.649  0.00  0.00    +0.000 A 
ATOM      9  C   UNL     1      -0.633  10.123  22.806  0.00  0.00    +0.000 A 
ATOM     10  C   UNL     1      -0.266  11.205  21.985  0.00  0.00    +0.000 A 
ATOM     11  C   UNL     1      -0.993  12.513  22.173  0.00  0.00    +0.000 C 
BRANCH   5  12
ATOM     12  S   UNL     1       1.221  12.228  19.816  0.00  0.00    +0.000 S 
ATOM     13  O   UNL     1       1.847  11.534  18.714  0.00  0.00    +0.000 OA
ATOM     14  O   UNL     1       1.898  13.322  20.482  0.00  0.00    +0.000 OA
BRANCH  12  15
ATOM     15  N   UNL     1      -0.291  12.849  19.264  0.00  0.00    +0.000 NA
BRANCH  15  17
ATOM     16  C   UNL     1      -0.788  15.287  19.566  0.00  0.00    +0.000 C 
ATOM     17  C   UNL     1      -0.219  14.210  18.653  0.00  0.00    +0.000 C 
ENDBRANCH  15  17
BRANCH  15  18
ATOM     18  C   UNL     1      -1.108  11.854  18.497  0.00  0.00    +0.000 C 
ATOM     19  C   UNL     1      -2.592  11.881  18.828  0.00  0.00    +0.000 C 
ENDBRANCH  15  18
ENDBRANCH  12  15
ENDBRANCH   5  12
ENDBRANCH   1   7
BRANCH   2  20
ATOM     20  C   UNL     1       2.216   5.473  20.017  0.00  0.00    +0.000 A 
ATOM     21  C   UNL     1       1.146   4.621  20.383  0.00  0.00    +0.000 A 
ATOM     22  C   UNL     1       1.217   3.237  20.214  0.00  0.00    +0.000 A 
ATOM     23  C   UNL     1       2.311   2.674  19.584  0.00  0.00    +0.000 A 
ATOM     24  C   UNL     1       3.361   3.494  19.185  0.00  0.00    +0.000 A 
ATOM     25  C   UNL     1       3.372   4.876  19.475  0.00  0.00    +0.000 A 
BRANCH  25  26
ATOM     26  O   UNL     1       4.538   5.607  19.307  0.00  0.00    +0.000 OA
BRANCH  26  27
ATOM     27  C   UNL     1       5.641   4.813  18.809  0.00  0.00    +0.000 C 
BRANCH  27  28
ATOM     28  C   UNL     1       6.350   5.361  17.630  0.00  0.00    +0.000 A 
ATOM     29  C   UNL     1       6.270   4.876  16.292  0.00  0.00    +0.000 A 
ATOM     30  C   UNL     1       5.524   3.703  15.769  0.00  0.00    +0.000 C 
ATOM     31  N   UNL     1       7.047   5.589  15.467  0.00  0.00    +0.000 NA
ATOM     32  O   UNL     1       7.696   6.510  16.270  0.00  0.00    +0.000 OA
ATOM     33  C   UNL     1       7.309   6.343  17.562  0.00  0.00    +0.000 A 
ATOM     34  C   UNL     1       7.994   7.160  18.577  0.00  0.00    +0.000 C 
ENDBRANCH  27  28
ENDBRANCH  26  27
ENDBRANCH  25  26
ENDBRANCH   2  20
TORSDOF 9
ENDMDL
MODEL 3
REMARK VINA RESULT:      -8.7      1.268      1.793
REMARK  Name = 
REMARK  14 active torsions:
REMARK  status: ('A' for Active; 'I' for Inactive)
REMARK    1  A    between atoms: C_1  and  C_2
REMARK    2  A    between atoms: C_2  and  N_3
REMARK    3  A    between atoms: N_3  and  C_4
REMARK    4  A    between atoms: N_3  and  S_6
REMARK    5  A    between atoms: C_4  and  C_5
REMARK    6  A    between atoms: S_6  and  C_9
REMARK    7  A    between atoms: C_11  and  N_12
REMARK    8  A    between atoms: C_13  and  C_15
REMARK    9  A    between atoms: C_20  and  O_21
REMARK   10  A    between atoms: O_21  and  C_22
REMARK   11  A    between atoms: C_22  and  C_23
REMARK   12  A    between atoms: C_24  and  C_25
REMARK   13  A    between atoms: C_28  and  C_29
REMARK   14  A    between atoms: C_32  and  C_33
REMARK                            x       y       z     vdW  Elec       q    Type
REMARK                         _______ _______ _______ _____ _____    ______ ____
ROOT
ATOM      1  N   UNL     1       1.020   7.040  20.796  0.00  0.00    +0.000 N 
ATOM      2  C   UNL     1       2.022   6.597  19.922  0.00  0.00    +0.000 C 
ATOM      3  O   UNL     1       2.849   7.320  19.384  0.00  0.00    +0.000 OA
ATOM      4  H   UNL     1       0.883   6.382  21.556  0.00  0.00    +0.000 HD
ENDROOT
BRANCH   1   7
ATOM      5  C   UNL     1       0.055  10.628  20.570  0.00  0.00    +0.000 A 
ATOM      6  C   UNL     1       0.583   9.364  20.209  0.00  0.00    +0.000 A 
ATOM      7  C   UNL     1       0.832   8.389  21.185  0.00  0.00    +0.000 A 
ATOM      8  C   UNL     1       0.576   8.694  22.522  0.00  0.00    +0.000 A 
ATOM      9  C   UNL     1       0.107   9.966  22.885  0.00  0.00    +0.000 A 
ATOM     10  C   UNL     1      -0.175  10.951  21.921  0.00  0.00    +0.000 A 
ATOM     11  C   UNL     1      -0.750  12.261  22.397  0.00  0.00    +0.000 C 
BRANCH   5  12
ATOM     12  S   UNL     1      -0.359  11.738  19.218  0.00  0.00    +0.000 S 
ATOM     13  O   UNL     1       0.195  11.162  18.013  0.00  0.00    +0.000 OA
ATOM     14  O   UNL     1      -0.072  13.110  19.583  0.00  0.00    +0.000 OA
BRANCH  12  15
ATOM     15  N   UNL     1      -2.078  11.604  19.129  0.00  0.00    +0.000 NA
BRANCH  15  17
ATOM     16  C   UNL     1      -4.309  12.421  19.925  0.00  0.00    +0.000 C 
ATOM     17  C   UNL     1      -2.824  12.722  19.780  0.00  0.00    +0.000 C 
ENDBRANCH  15  17
BRANCH  15  18
ATOM     18  C   UNL     1      -2.583  11.213  17.774  0.00  0.00    +0.000 C 
ATOM     19  C   UNL     1      -2.992   9.753  17.660  0.00  0.00    +0.000 C 
ENDBRANCH  15  18
ENDBRANCH  12  15
ENDBRANCH   5  12
ENDBRANCH   1   7
BRANCH   2  20
ATOM     20  C   UNL     1       1.973   5.105  19.635  0.00  0.00    +0.000 A 
ATOM     21  C   UNL     1       1.261   4.300  20.558  0.00  0.00    +0.000 A 
ATOM     22  C   UNL     1       1.087   2.930  20.357  0.00  0.00    +0.000 A 
ATOM     23  C   UNL     1       1.531   2.342  19.188  0.00  0.00    +0.000 A 
ATOM     24  C   UNL     1       2.204   3.118  18.251  0.00  0.00    +0.000 A 
ATOM     25  C   UNL     1       2.514   4.473  18.498  0.00  0.00    +0.000 A 
BRANCH  25  26
ATOM     26  O   UNL     1       3.411   5.137  17.674  0.00  0.00    +0.000 OA
BRANCH  26  27
ATOM     27  C   UNL     1       4.136   4.250  16.789  0.00  0.00    +0.000 C 
BRANCH  27  28
ATOM     28  C   UNL     1       5.610   4.391  16.800  0.00  0.00    +0.000 A 
ATOM     29  C   UNL     1       6.419   4.764  17.913  0.00  0.00    +0.000 A 
ATOM     30  C   UNL     1       5.996   5.149  19.284  0.00  0.00    +0.000 C 
ATOM     31  N   UNL     1       7.715   4.810  17.582  0.00  0.00    +0.000 NA
ATOM     32  O   UNL     1       7.763   4.530  16.227  0.00  0.00    +0.000 OA
ATOM     33  C   UNL     1       6.505   4.322  15.759  0.00  0.00    +0.000 A 
ATOM     34  C   UNL     1       6.354   4.131  14.307  0.00  0.00    +0.000 C 
ENDBRANCH  27  28
ENDBRANCH  26  27
ENDBRANCH  25  26
ENDBRANCH   2  20
TORSDOF 9
ENDMDL
MODEL 4
REMARK VINA RESULT:      -8.6      1.341      1.819
REMARK  Name = 
REMARK  14 active torsions:
REMARK  status: ('A' for Active; 'I' for Inactive)
REMARK    1  A    between atoms: C_1  and  C_2
REMARK    2  A    between atoms: C_2  and  N_3
REMARK    3  A    between atoms: N_3  and  C_4
REMARK    4  A    between atoms: N_3  and  S_6
REMARK    5  A    between atoms: C_4  and  C_5
REMARK    6  A    between atoms: S_6  and  C_9
REMARK    7  A    between atoms: C_11  and  N_12
REMARK    8  A    between atoms: C_13  and  C_15
REMARK    9  A    between atoms: C_20  and  O_21
REMARK   10  A    between atoms: O_21  and  C_22
REMARK   11  A    between atoms: C_22  and  C_23
REMARK   12  A    between atoms: C_24  and  C_25
REMARK   13  A    between atoms: C_28  and  C_29
REMARK   14  A    between atoms: C_32  and  C_33
REMARK                            x       y       z     vdW  Elec       q    Type
REMARK                         _______ _______ _______ _____ _____    ______ ____
ROOT
ATOM      1  N   UNL     1       1.077   6.816  20.521  0.00  0.00    +0.000 N 
ATOM      2  C   UNL     1       2.207   6.349  19.836  0.00  0.00    +0.000 C 
ATOM      3  O   UNL     1       3.200   7.018  19.590  0.00  0.00    +0.000 OA
ATOM      4  H   UNL     1       0.706   6.104  21.141  0.00  0.00    +0.000 HD
ENDROOT
BRANCH   1   7
ATOM      5  C   UNL     1       0.597  10.507  20.556  0.00  0.00    +0.000 A 
ATOM      6  C   UNL     1       1.066   9.227  20.171  0.00  0.00    +0.000 A 
ATOM      7  C   UNL     1       0.933   8.129  21.033  0.00  0.00    +0.000 A 
ATOM      8  C   UNL     1       0.354   8.323  22.286  0.00  0.00    +0.000 A 
ATOM      9  C   UNL     1      -0.059   9.604  22.690  0.00  0.00    +0.000 A 
ATOM     10  C   UNL     1       0.041  10.715  21.832  0.00  0.00    +0.000 A 
ATOM     11  C   UNL     1      -0.501  12.035  22.321  0.00  0.00    +0.000 C 
BRANCH   5  12
ATOM     12  S   UNL     1       0.690  11.801  19.310  0.00  0.00    +0.000 S 
ATOM     13  O   UNL     1       1.601  11.339  18.288  0.00  0.00    +0.000 OA
ATOM     14  O   UNL     1       0.874  13.094  19.937  0.00  0.00    +0.000 OA
BRANCH  12  15
ATOM     15  N   UNL     1      -0.902  11.802  18.643  0.00  0.00    +0.000 NA
BRANCH  15  17
ATOM     16  C   UNL     1      -1.860  10.045  17.134  0.00  0.00    +0.000 C 
ATOM     17  C   UNL     1      -1.545  10.456  18.566  0.00  0.00    +0.000 C 
ENDBRANCH  15  17
BRANCH  15  18
ATOM     18  C   UNL     1      -1.780  12.891  19.178  0.00  0.00    +0.000 C 
ATOM     19  C   UNL     1      -3.095  12.401  19.760  0.00  0.00    +0.000 C 
ENDBRANCH  15  18
ENDBRANCH  12  15
ENDBRANCH   5  12
ENDBRANCH   1   7
BRANCH   2  20
ATOM     20  C   UNL     1       2.084   4.912  19.354  0.00  0.00    +0.000 A 
ATOM     21  C   UNL     1       1.266   4.048  20.123  0.00  0.00    +0.000 A 
ATOM     22  C   UNL     1       1.021   2.730  19.735  0.00  0.00    +0.000 A 
ATOM     23  C   UNL     1       1.500   2.266  18.524  0.00  0.00    +0.000 A 
ATOM     24  C   UNL     1       2.277   3.107  17.735  0.00  0.00    +0.000 A 
ATOM     25  C   UNL     1       2.655   4.395  18.174  0.00  0.00    +0.000 A 
BRANCH  25  26
ATOM     26  O   UNL     1       3.641   5.094  17.495  0.00  0.00    +0.000 OA
BRANCH  26  27
ATOM     27  C   UNL     1       4.511   4.240  16.715  0.00  0.00    +0.000 C 
BRANCH  27  28
ATOM     28  C   UNL     1       5.738   4.878  16.186  0.00  0.00    +0.000 A 
ATOM     29  C   UNL     1       6.287   4.709  14.881  0.00  0.00    +0.000 A 
ATOM     30  C   UNL     1       5.813   3.836  13.777  0.00  0.00    +0.000 C 
ATOM     31  N   UNL     1       7.412   5.419  14.730  0.00  0.00    +0.000 NA
ATOM     32  O   UNL     1       7.648   6.010  15.959  0.00  0.00    +0.000 OA
ATOM     33  C   UNL     1       6.671   5.652  16.833  0.00  0.00    +0.000 A 
ATOM     34  C   UNL     1       6.829   6.092  18.229  0.00  0.00    +0.000 C 
ENDBRANCH  27  28
ENDBRANCH  26  27
ENDBRANCH  25  26
ENDBRANCH   2  20
TORSDOF 9
ENDMDL
MODEL 5
REMARK VINA RESULT:      -8.6      2.034      3.120
REMARK  Name = 
REMARK  14 active torsions:
REMARK  status: ('A' for Active; 'I' for Inactive)
REMARK    1  A    between atoms: C_1  and  C_2
REMARK    2  A    between atoms: C_2  and  N_3
REMARK    3  A    between atoms: N_3  and  C_4
REMARK    4  A    between atoms: N_3  and  S_6
REMARK    5  A    between atoms: C_4  and  C_5
REMARK    6  A    between atoms: S_6  and  C_9
REMARK    7  A    between atoms: C_11  and  N_12
REMARK    8  A    between atoms: C_13  and  C_15
REMARK    9  A    between atoms: C_20  and  O_21
REMARK   10  A    between atoms: O_21  and  C_22
REMARK   11  A    between atoms: C_22  and  C_23
REMARK   12  A    between atoms: C_24  and  C_25
REMARK   13  A    between atoms: C_28  and  C_29
REMARK   14  A    between atoms: C_32  and  C_33
REMARK                            x       y       z     vdW  Elec       q    Type
REMARK                         _______ _______ _______ _____ _____    ______ ____
ROOT
ATOM      1  N   UNL     1       1.373   7.559  21.324  0.00  0.00    +0.000 N 
ATOM      2  C   UNL     1       1.947   7.083  20.137  0.00  0.00    +0.000 C 
ATOM      3  O   UNL     1       2.178   7.768  19.150  0.00  0.00    +0.000 OA
ATOM      4  H   UNL     1       1.801   7.124  22.134  0.00  0.00    +0.000 HD
ENDROOT
BRANCH   1   7
ATOM      5  C   UNL     1       0.489  11.099  20.586  0.00  0.00    +0.000 A 
ATOM      6  C   UNL     1       1.162   9.853  20.531  0.00  0.00    +0.000 A 
ATOM      7  C   UNL     1       0.990   8.904  21.549  0.00  0.00    +0.000 A 
ATOM      8  C   UNL     1       0.166   9.217  22.629  0.00  0.00    +0.000 A 
ATOM      9  C   UNL     1      -0.456  10.473  22.711  0.00  0.00    +0.000 A 
ATOM     10  C   UNL     1      -0.319  11.431  21.690  0.00  0.00    +0.000 A 
ATOM     11  C   UNL     1      -1.086  12.722  21.825  0.00  0.00    +0.000 C 
BRANCH   5  12
ATOM     12  S   UNL     1       0.672  12.170  19.154  0.00  0.00    +0.000 S 
ATOM     13  O   UNL     1      -0.653  12.396  18.622  0.00  0.00    +0.000 OA
ATOM     14  O   UNL     1       1.741  11.692  18.299  0.00  0.00    +0.000 OA
BRANCH  12  15
ATOM     15  N   UNL     1       1.226  13.648  19.852  0.00  0.00    +0.000 NA
BRANCH  15  17
ATOM     16  C   UNL     1       2.575  14.519  21.776  0.00  0.00    +0.000 C 
ATOM     17  C   UNL     1       2.503  13.535  20.617  0.00  0.00    +0.000 C 
ENDBRANCH  15  17
BRANCH  15  18
ATOM     18  C   UNL     1       1.147  14.820  18.923  0.00  0.00    +0.000 C 
ATOM     19  C   UNL     1       2.465  15.170  18.250  0.00  0.00    +0.000 C 
ENDBRANCH  15  18
ENDBRANCH  12  15
ENDBRANCH   5  12
ENDBRANCH   1   7
BRANCH   2  20
ATOM     20  C   UNL     1       2.221   5.588  20.141  0.00  0.00    +0.000 A 
ATOM     21  C   UNL     1       1.150   4.744  20.523  0.00  0.00    +0.000 A 
ATOM     22  C   UNL     1       1.264   3.353  20.494  0.00  0.00    +0.000 A 
ATOM     23  C   UNL     1       2.409   2.764  19.990  0.00  0.00    +0.000 A 
ATOM     24  C   UNL     1       3.462   3.573  19.577  0.00  0.00    +0.000 A 
ATOM     25  C   UNL     1       3.422   4.976  19.731  0.00  0.00    +0.000 A 
BRANCH  25  26
ATOM     26  O   UNL     1       4.580   5.722  19.565  0.00  0.00    +0.000 OA
BRANCH  26  27
ATOM     27  C   UNL     1       5.700   4.937  19.091  0.00  0.00    +0.000 C 
BRANCH  27  28
ATOM     28  C   UNL     1       6.222   5.299  17.753  0.00  0.00    +0.000 A 
ATOM     29  C   UNL     1       7.255   6.241  17.472  0.00  0.00    +0.000 A 
ATOM     30  C   UNL     1       8.006   7.109  18.414  0.00  0.00    +0.000 C 
ATOM     31  N   UNL     1       7.478   6.342  16.156  0.00  0.00    +0.000 NA
ATOM     32  O   UNL     1       6.545   5.514  15.555  0.00  0.00    +0.000 OA
ATOM     33  C   UNL     1       5.775   4.928  16.508  0.00  0.00    +0.000 A 
ATOM     34  C   UNL     1       4.645   4.106  16.042  0.00  0.00    +0.000 C 
ENDBRANCH  27  28
ENDBRANCH  26  27
ENDBRANCH  25  26
ENDBRANCH   2  20
TORSDOF 9
ENDMDL
MODEL 6
REMARK VINA RESULT:      -8.6      1.742      2.213
REMARK  Name = 
REMARK  14 active torsions:
REMARK  status: ('A' for Active; 'I' for Inactive)
REMARK    1  A    between atoms: C_1  and  C_2
REMARK    2  A    between atoms: C_2  and  N_3
REMARK    3  A    between atoms: N_3  and  C_4
REMARK    4  A    between atoms: N_3  and  S_6
REMARK    5  A    between atoms: C_4  and  C_5
REMARK    6  A    between atoms: S_6  and  C_9
REMARK    7  A    between atoms: C_11  and  N_12
REMARK    8  A    between atoms: C_13  and  C_15
REMARK    9  A    between atoms: C_20  and  O_21
REMARK   10  A    between atoms: O_21  and  C_22
REMARK   11  A    between atoms: C_22  and  C_23
REMARK   12  A    between atoms: C_24  and  C_25
REMARK   13  A    between atoms: C_28  and  C_29
REMARK   14  A    between atoms: C_32  and  C_33
REMARK                            x       y       z     vdW  Elec       q    Type
REMARK                         _______ _______ _______ _____ _____    ______ ____
ROOT
ATOM      1  N   UNL     1       1.297   7.394  21.337  0.00  0.00    +0.000 N 
ATOM      2  C   UNL     1       1.935   7.007  20.150  0.00  0.00    +0.000 C 
ATOM      3  O   UNL     1       2.149   7.747  19.200  0.00  0.00    +0.000 OA
ATOM      4  H   UNL     1       1.730   6.954  22.143  0.00  0.00    +0.000 HD
ENDROOT
BRANCH   1   7
ATOM      5  C   UNL     1      -0.326  10.695  20.765  0.00  0.00    +0.000 A 
ATOM      6  C   UNL     1       0.464   9.540  20.540  0.00  0.00    +0.000 A 
ATOM      7  C   UNL     1       0.821   8.701  21.605  0.00  0.00    +0.000 A 
ATOM      8  C   UNL     1       0.408   9.036  22.894  0.00  0.00    +0.000 A 
ATOM      9  C   UNL     1      -0.326  10.211  23.124  0.00  0.00    +0.000 A 
ATOM     10  C   UNL     1      -0.718  11.054  22.068  0.00  0.00    +0.000 A 
ATOM     11  C   UNL     1      -1.572  12.252  22.400  0.00  0.00    +0.000 C 
BRANCH   5  12
ATOM     12  S   UNL     1      -0.842  11.607  19.304  0.00  0.00    +0.000 S 
ATOM     13  O   UNL     1      -2.181  12.090  19.557  0.00  0.00    +0.000 OA
ATOM     14  O   UNL     1      -0.542  10.852  18.104  0.00  0.00    +0.000 OA
BRANCH  12  15
ATOM     15  N   UNL     1       0.223  12.965  19.308  0.00  0.00    +0.000 NA
BRANCH  15  17
ATOM     16  C   UNL     1      -0.194  15.363  18.709  0.00  0.00    +0.000 C 
ATOM     17  C   UNL     1      -0.410  14.252  19.726  0.00  0.00    +0.000 C 
ENDBRANCH  15  17
BRANCH  15  18
ATOM     18  C   UNL     1       1.556  12.685  19.931  0.00  0.00    +0.000 C 
ATOM     19  C   UNL     1       2.661  13.629  19.487  0.00  0.00    +0.000 C 
ENDBRANCH  15  18
ENDBRANCH  12  15
ENDBRANCH   5  12
ENDBRANCH   1   7
BRANCH   2  20
ATOM     20  C   UNL     1       2.306   5.534  20.103  0.00  0.00    +0.000 A 
ATOM     21  C   UNL     1       1.310   4.611  20.507  0.00  0.00    +0.000 A 
ATOM     22  C   UNL     1       1.513   3.232  20.435  0.00  0.00    +0.000 A 
ATOM     23  C   UNL     1       2.671   2.733  19.868  0.00  0.00    +0.000 A 
ATOM     24  C   UNL     1       3.650   3.620  19.433  0.00  0.00    +0.000 A 
ATOM     25  C   UNL     1       3.526   5.013  19.627  0.00  0.00    +0.000 A 
BRANCH  25  26
ATOM     26  O   UNL     1       4.623   5.838  19.431  0.00  0.00    +0.000 OA
BRANCH  26  27
ATOM     27  C   UNL     1       5.812   5.118  19.027  0.00  0.00    +0.000 C 
BRANCH  27  28
ATOM     28  C   UNL     1       6.453   5.580  17.774  0.00  0.00    +0.000 A 
ATOM     29  C   UNL     1       6.314   4.991  16.483  0.00  0.00    +0.000 A 
ATOM     30  C   UNL     1       5.562   3.772  16.091  0.00  0.00    +0.000 C 
ATOM     31  N   UNL     1       7.037   5.647  15.568  0.00  0.00    +0.000 NA
ATOM     32  O   UNL     1       7.711   6.636  16.263  0.00  0.00    +0.000 OA
ATOM     33  C   UNL     1       7.391   6.566  17.582  0.00  0.00    +0.000 A 
ATOM     34  C   UNL     1       8.112   7.468  18.495  0.00  0.00    +0.000 C 
ENDBRANCH  27  28
ENDBRANCH  26  27
ENDBRANCH  25  26
ENDBRANCH   2  20
TORSDOF 9
ENDMDL
MODEL 7
REMARK VINA RESULT:      -8.5      1.910      2.422
REMARK  Name = 
REMARK  14 active torsions:
REMARK  status: ('A' for Active; 'I' for Inactive)
REMARK    1  A    between atoms: C_1  and  C_2
REMARK    2  A    between atoms: C_2  and  N_3
REMARK    3  A    between atoms: N_3  and  C_4
REMARK    4  A    between atoms: N_3  and  S_6
REMARK    5  A    between atoms: C_4  and  C_5
REMARK    6  A    between atoms: S_6  and  C_9
REMARK    7  A    between atoms: C_11  and  N_12
REMARK    8  A    between atoms: C_13  and  C_15
REMARK    9  A    between atoms: C_20  and  O_21
REMARK   10  A    between atoms: O_21  and  C_22
REMARK   11  A    between atoms: C_22  and  C_23
REMARK   12  A    between atoms: C_24  and  C_25
REMARK   13  A    between atoms: C_28  and  C_29
REMARK   14  A    between atoms: C_32  and  C_33
REMARK                            x       y       z     vdW  Elec       q    Type
REMARK                         _______ _______ _______ _____ _____    ______ ____
ROOT
ATOM      1  N   UNL     1       0.986   7.148  20.888  0.00  0.00    +0.000 N 
ATOM      2  C   UNL     1       1.912   6.733  19.921  0.00  0.00    +0.000 C 
ATOM      3  O   UNL     1       2.611   7.485  19.256  0.00  0.00    +0.000 OA
ATOM      4  H   UNL     1       0.990   6.523  21.687  0.00  0.00    +0.000 HD
ENDROOT
BRANCH   1   7
ATOM      5  C   UNL     1      -0.287  10.636  20.628  0.00  0.00    +0.000 A 
ATOM      6  C   UNL     1       0.292   9.397  20.259  0.00  0.00    +0.000 A 
ATOM      7  C   UNL     1       0.740   8.498  21.238  0.00  0.00    +0.000 A 
ATOM      8  C   UNL     1       0.629   8.856  22.581  0.00  0.00    +0.000 A 
ATOM      9  C   UNL     1       0.107  10.108  22.944  0.00  0.00    +0.000 A 
ATOM     10  C   UNL     1      -0.372  11.015  21.981  0.00  0.00    +0.000 A 
ATOM     11  C   UNL     1      -0.988  12.302  22.468  0.00  0.00    +0.000 C 
BRANCH   5  12
ATOM     12  S   UNL     1      -0.956  11.636  19.292  0.00  0.00    +0.000 S 
ATOM     13  O   UNL     1      -2.183  12.226  19.778  0.00  0.00    +0.000 OA
ATOM     14  O   UNL     1      -0.933  10.895  18.047  0.00  0.00    +0.000 OA
BRANCH  12  15
ATOM     15  N   UNL     1       0.215  12.894  19.135  0.00  0.00    +0.000 NA
BRANCH  15  17
ATOM     16  C   UNL     1      -0.215  15.325  18.700  0.00  0.00    +0.000 C 
ATOM     17  C   UNL     1      -0.195  14.202  19.728  0.00  0.00    +0.000 C 
ENDBRANCH  15  17
BRANCH  15  18
ATOM     18  C   UNL     1       1.612  12.463  19.461  0.00  0.00    +0.000 C 
ATOM     19  C   UNL     1       2.336  13.381  20.431  0.00  0.00    +0.000 C 
ENDBRANCH  15  18
ENDBRANCH  12  15
ENDBRANCH   5  12
ENDBRANCH   1   7
BRANCH   2  20
ATOM     20  C   UNL     1       1.947   5.228  19.708  0.00  0.00    +0.000 A 
ATOM     21  C   UNL     1       1.299   4.430  20.682  0.00  0.00    +0.000 A 
ATOM     22  C   UNL     1       1.204   3.044  20.552  0.00  0.00    +0.000 A 
ATOM     23  C   UNL     1       1.663   2.425  19.404  0.00  0.00    +0.000 A 
ATOM     24  C   UNL     1       2.274   3.192  18.417  0.00  0.00    +0.000 A 
ATOM     25  C   UNL     1       2.507   4.574  18.593  0.00  0.00    +0.000 A 
BRANCH  25  26
ATOM     26  O   UNL     1       3.349   5.248  17.721  0.00  0.00    +0.000 OA
BRANCH  26  27
ATOM     27  C   UNL     1       4.202   4.363  16.955  0.00  0.00    +0.000 C 
BRANCH  27  28
ATOM     28  C   UNL     1       5.572   4.859  16.688  0.00  0.00    +0.000 A 
ATOM     29  C   UNL     1       6.256   4.828  15.438  0.00  0.00    +0.000 A 
ATOM     30  C   UNL     1       5.804   4.259  14.142  0.00  0.00    +0.000 C 
ATOM     31  N   UNL     1       7.486   5.344  15.542  0.00  0.00    +0.000 NA
ATOM     32  O   UNL     1       7.646   5.659  16.881  0.00  0.00    +0.000 OA
ATOM     33  C   UNL     1       6.519   5.331  17.564  0.00  0.00    +0.000 A 
ATOM     34  C   UNL     1       6.556   5.484  19.029  0.00  0.00    +0.000 C 
ENDBRANCH  27  28
ENDBRANCH  26  27
ENDBRANCH  25  26
ENDBRANCH   2  20
TORSDOF 9
ENDMDL
MODEL 8
REMARK VINA RESULT:      -8.5      1.854      2.725
REMARK  Name = 
REMARK  14 active torsions:
REMARK  status: ('A' for Active; 'I' for Inactive)
REMARK    1  A    between atoms: C_1  and  C_2
REMARK    2  A    between atoms: C_2  and  N_3
REMARK    3  A    between atoms: N_3  and  C_4
REMARK    4  A    between atoms: N_3  and  S_6
REMARK    5  A    between atoms: C_4  and  C_5
REMARK    6  A    between atoms: S_6  and  C_9
REMARK    7  A    between atoms: C_11  and  N_12
REMARK    8  A    between atoms: C_13  and  C_15
REMARK    9  A    between atoms: C_20  and  O_21
REMARK   10  A    between atoms: O_21  and  C_22
REMARK   11  A    between atoms: C_22  and  C_23
REMARK   12  A    between atoms: C_24  and  C_25
REMARK   13  A    between atoms: C_28  and  C_29
REMARK   14  A    between atoms: C_32  and  C_33
REMARK                            x       y       z     vdW  Elec       q    Type
REMARK                         _______ _______ _______ _____ _____    ______ ____
ROOT
ATOM      1  N   UNL     1       2.206   7.251  19.152  0.00  0.00    +0.000 N 
ATOM      2  C   UNL     1       1.840   6.529  20.296  0.00  0.00    +0.000 C 
ATOM      3  O   UNL     1       1.146   6.965  21.204  0.00  0.00    +0.000 OA
ATOM      4  H   UNL     1       2.195   6.658  18.329  0.00  0.00    +0.000 HD
ENDROOT
BRANCH   1   7
ATOM      5  C   UNL     1       0.936  10.697  19.759  0.00  0.00    +0.000 A 
ATOM      6  C   UNL     1       1.051   9.286  19.829  0.00  0.00    +0.000 A 
ATOM      7  C   UNL     1       1.813   8.585  18.883  0.00  0.00    +0.000 A 
ATOM      8  C   UNL     1       2.434   9.296  17.858  0.00  0.00    +0.000 A 
ATOM      9  C   UNL     1       2.273  10.687  17.756  0.00  0.00    +0.000 A 
ATOM     10  C   UNL     1       1.535  11.416  18.707  0.00  0.00    +0.000 A 
ATOM     11  C   UNL     1       1.483  12.916  18.563  0.00  0.00    +0.000 C 
BRANCH   5  12
ATOM     12  S   UNL     1       0.057  11.495  21.109  0.00  0.00    +0.000 S 
ATOM     13  O   UNL     1       0.941  12.500  21.655  0.00  0.00    +0.000 OA
ATOM     14  O   UNL     1      -0.556  10.503  21.969  0.00  0.00    +0.000 OA
BRANCH  12  15
ATOM     15  N   UNL     1      -1.233  12.305  20.297  0.00  0.00    +0.000 NA
BRANCH  15  17
ATOM     16  C   UNL     1      -2.076  11.892  17.974  0.00  0.00    +0.000 C 
ATOM     17  C   UNL     1      -2.067  11.427  19.423  0.00  0.00    +0.000 C 
ENDBRANCH  15  17
BRANCH  15  18
ATOM     18  C   UNL     1      -2.006  13.239  21.177  0.00  0.00    +0.000 C 
ATOM     19  C   UNL     1      -3.442  12.809  21.431  0.00  0.00    +0.000 C 
ENDBRANCH  15  18
ENDBRANCH  12  15
ENDBRANCH   5  12
ENDBRANCH   1   7
BRANCH   2  20
ATOM     20  C   UNL     1       2.436   5.132  20.359  0.00  0.00    +0.000 A 
ATOM     21  C   UNL     1       1.680   4.145  21.039  0.00  0.00    +0.000 A 
ATOM     22  C   UNL     1       2.093   2.813  21.095  0.00  0.00    +0.000 A 
ATOM     23  C   UNL     1       3.213   2.407  20.395  0.00  0.00    +0.000 A 
ATOM     24  C   UNL     1       3.954   3.351  19.692  0.00  0.00    +0.000 A 
ATOM     25  C   UNL     1       3.634   4.726  19.739  0.00  0.00    +0.000 A 
BRANCH  25  26
ATOM     26  O   UNL     1       4.538   5.661  19.256  0.00  0.00    +0.000 OA
BRANCH  26  27
ATOM     27  C   UNL     1       5.847   5.103  18.990  0.00  0.00    +0.000 C 
BRANCH  27  28
ATOM     28  C   UNL     1       6.499   5.557  17.740  0.00  0.00    +0.000 A 
ATOM     29  C   UNL     1       6.384   4.949  16.455  0.00  0.00    +0.000 A 
ATOM     30  C   UNL     1       5.650   3.718  16.069  0.00  0.00    +0.000 C 
ATOM     31  N   UNL     1       7.112   5.601  15.540  0.00  0.00    +0.000 NA
ATOM     32  O   UNL     1       7.766   6.606  16.232  0.00  0.00    +0.000 OA
ATOM     33  C   UNL     1       7.429   6.549  17.547  0.00  0.00    +0.000 A 
ATOM     34  C   UNL     1       8.129   7.471  18.458  0.00  0.00    +0.000 C 
ENDBRANCH  27  28
ENDBRANCH  26  27
ENDBRANCH  25  26
ENDBRANCH   2  20
TORSDOF 9
ENDMDL
MODEL 9
REMARK VINA RESULT:      -8.5      1.157      1.720
REMARK  Name = 
REMARK  14 active torsions:
REMARK  status: ('A' for Active; 'I' for Inactive)
REMARK    1  A    between atoms: C_1  and  C_2
REMARK    2  A    between atoms: C_2  and  N_3
REMARK    3  A    between atoms: N_3  and  C_4
REMARK    4  A    between atoms: N_3  and  S_6
REMARK    5  A    between atoms: C_4  and  C_5
REMARK    6  A    between atoms: S_6  and  C_9
REMARK    7  A    between atoms: C_11  and  N_12
REMARK    8  A    between atoms: C_13  and  C_15
REMARK    9  A    between atoms: C_20  and  O_21
REMARK   10  A    between atoms: O_21  and  C_22
REMARK   11  A    between atoms: C_22  and  C_23
REMARK   12  A    between atoms: C_24  and  C_25
REMARK   13  A    between atoms: C_28  and  C_29
REMARK   14  A    between atoms: C_32  and  C_33
REMARK                            x       y       z     vdW  Elec       q    Type
REMARK                         _______ _______ _______ _____ _____    ______ ____
ROOT
ATOM      1  N   UNL     1       1.497   7.656  20.960  0.00  0.00    +0.000 N 
ATOM      2  C   UNL     1       2.134   7.476  19.724  0.00  0.00    +0.000 C 
ATOM      3  O   UNL     1       2.322   8.360  18.901  0.00  0.00    +0.000 OA
ATOM      4  H   UNL     1       1.946   7.107  21.684  0.00  0.00    +0.000 HD
ENDROOT
BRANCH   1   7
ATOM      5  C   UNL     1      -0.137  11.000  20.901  0.00  0.00    +0.000 A 
ATOM      6  C   UNL     1       0.678   9.907  20.515  0.00  0.00    +0.000 A 
ATOM      7  C   UNL     1       0.991   8.892  21.431  0.00  0.00    +0.000 A 
ATOM      8  C   UNL     1       0.510   8.991  22.736  0.00  0.00    +0.000 A 
ATOM      9  C   UNL     1      -0.250  10.103  23.133  0.00  0.00    +0.000 A 
ATOM     10  C   UNL     1      -0.599  11.120  22.225  0.00  0.00    +0.000 A 
ATOM     11  C   UNL     1      -1.484  12.236  22.721  0.00  0.00    +0.000 C 
BRANCH   5  12
ATOM     12  S   UNL     1      -0.590  12.157  19.601  0.00  0.00    +0.000 S 
ATOM     13  O   UNL     1       0.305  11.919  18.492  0.00  0.00    +0.000 OA
ATOM     14  O   UNL     1      -0.756  13.489  20.146  0.00  0.00    +0.000 OA
BRANCH  12  15
ATOM     15  N   UNL     1      -2.163  11.616  19.142  0.00  0.00    +0.000 NA
BRANCH  15  17
ATOM     16  C   UNL     1      -4.614  12.123  19.017  0.00  0.00    +0.000 C 
ATOM     17  C   UNL     1      -3.287  12.427  19.698  0.00  0.00    +0.000 C 
ENDBRANCH  15  17
BRANCH  15  18
ATOM     18  C   UNL     1      -2.285  11.283  17.686  0.00  0.00    +0.000 C 
ATOM     19  C   UNL     1      -2.415   9.796  17.398  0.00  0.00    +0.000 C 
ENDBRANCH  15  18
ENDBRANCH  12  15
ENDBRANCH   5  12
ENDBRANCH   1   7
BRANCH   2  20
ATOM     20  C   UNL     1       2.540   6.038  19.445  0.00  0.00    +0.000 A 
ATOM     21  C   UNL     1       2.145   5.066  20.397  0.00  0.00    +0.000 A 
ATOM     22  C   UNL     1       2.398   3.707  20.208  0.00  0.00    +0.000 A 
ATOM     23  C   UNL     1       2.961   3.267  19.024  0.00  0.00    +0.000 A 
ATOM     24  C   UNL     1       3.328   4.200  18.060  0.00  0.00    +0.000 A 
ATOM     25  C   UNL     1       3.210   5.588  18.290  0.00  0.00    +0.000 A 
BRANCH  25  26
ATOM     26  O   UNL     1       3.828   6.484  17.431  0.00  0.00    +0.000 OA
BRANCH  26  27
ATOM     27  C   UNL     1       5.207   6.751  17.781  0.00  0.00    +0.000 C 
BRANCH  27  28
ATOM     28  C   UNL     1       6.197   5.756  17.310  0.00  0.00    +0.000 A 
ATOM     29  C   UNL     1       7.338   5.290  18.027  0.00  0.00    +0.000 A 
ATOM     30  C   UNL     1       7.837   5.712  19.361  0.00  0.00    +0.000 C 
ATOM     31  N   UNL     1       8.034   4.399  17.311  0.00  0.00    +0.000 NA
ATOM     32  O   UNL     1       7.391   4.321  16.087  0.00  0.00    +0.000 OA
ATOM     33  C   UNL     1       6.323   5.160  16.079  0.00  0.00    +0.000 A 
ATOM     34  C   UNL     1       5.591   5.299  14.808  0.00  0.00    +0.000 C 
ENDBRANCH  27  28
ENDBRANCH  26  27
ENDBRANCH  25  26
ENDBRANCH   2  20
TORSDOF 9
ENDMDL
