MODEL 1
REMARK VINA RESULT:      -9.2      0.000      0.000
REMARK  Name = 
REMARK  5 active torsions:
REMARK  status: ('A' for Active; 'I' for Inactive)
REMARK    1  A    between atoms: C_1  and  C_2
REMARK    2  A    between atoms: C_4  and  C_5
REMARK    3  A    between atoms: C_11  and  C_12
REMARK    4  A    between atoms: C_12  and  C_14
REMARK    5  A    between atoms: C_20  and  C_22
REMARK                            x       y       z     vdW  Elec       q    Type
REMARK                         _______ _______ _______ _____ _____    ______ ____
ROOT
ATOM      1  C   UNL     1       0.544  11.662  20.380  0.00  0.00    +0.000 C 
ATOM      2  O   UNL     1       1.398  11.829  21.256  0.00  0.00    +0.000 OA
ENDROOT
BRANCH   1   9
ATOM      3  C   UNL     1      -4.457  12.515  20.165  0.00  0.00    +0.000 A 
ATOM      4  C   UNL     1      -4.718  12.098  18.851  0.00  0.00    +0.000 A 
ATOM      5  C   UNL     1      -3.699  11.595  18.048  0.00  0.00    +0.000 A 
ATOM      6  C   UNL     1      -2.392  11.493  18.537  0.00  0.00    +0.000 A 
ATOM      7  F   UNL     1      -1.470  10.929  17.748  0.00  0.00    +0.000 F 
ATOM      8  C   UNL     1      -2.061  11.939  19.835  0.00  0.00    +0.000 A 
ATOM      9  C   UNL     1      -0.862  12.010  20.635  0.00  0.00    +0.000 A 
ATOM     10  C   UNL     1      -1.254  12.537  21.861  0.00  0.00    +0.000 A 
ATOM     11  N   UNL     1      -2.589  12.799  21.831  0.00  0.00    +0.000 N 
ATOM     12  C   UNL     1      -3.121  12.439  20.615  0.00  0.00    +0.000 A 
ATOM     13  H   UNL     1      -3.139  13.204  22.581  0.00  0.00    +0.000 HD
BRANCH   3  17
ATOM     14  C   UNL     1      -7.416  13.063  24.075  0.00  0.00    +0.000 C 
ATOM     15  C   UNL     1      -6.725  13.134  22.775  0.00  0.00    +0.000 A 
ATOM     16  N   UNL     1      -5.642  12.516  22.362  0.00  0.00    +0.000 NA
ATOM     17  C   UNL     1      -5.513  12.977  21.062  0.00  0.00    +0.000 A 
ATOM     18  N   UNL     1      -6.473  13.846  20.701  0.00  0.00    +0.000 NA
ATOM     19  O   UNL     1      -7.277  13.947  21.833  0.00  0.00    +0.000 OA
ENDBRANCH   3  17
ENDBRANCH   1   9
BRANCH   1  20
ATOM     20  C   UNL     1       1.071  11.154  19.038  0.00  0.00    +0.000 C 
ATOM     21  O   UNL     1       1.535  11.985  18.260  0.00  0.00    +0.000 OA
ATOM     22  N   UNL     1       1.087   9.772  18.799  0.00  0.00    +0.000 N 
ATOM     23  C   UNL     1       1.757   9.260  17.591  0.00  0.00    +0.000 C 
ATOM     24  C   UNL     1       2.930   8.323  17.942  0.00  0.00    +0.000 C 
ATOM     25  N   UNL     1       2.513   7.296  18.907  0.00  0.00    +0.000 N 
ATOM     26  C   UNL     1       2.705   5.950  18.583  0.00  0.00    +0.000 C 
ATOM     27  O   UNL     1       3.297   5.601  17.560  0.00  0.00    +0.000 OA
ATOM     28  C   UNL     1       1.935   7.873  20.137  0.00  0.00    +0.000 C 
ATOM     29  C   UNL     1       0.704   8.727  19.766  0.00  0.00    +0.000 C 
BRANCH  26  30
ATOM     30  C   UNL     1       2.207   4.860  19.473  0.00  0.00    +0.000 A 
ATOM     31  C   UNL     1       2.576   4.751  20.817  0.00  0.00    +0.000 A 
ATOM     32  C   UNL     1       2.142   3.669  21.589  0.00  0.00    +0.000 A 
ATOM     33  C   UNL     1       1.258   2.739  21.050  0.00  0.00    +0.000 A 
ATOM     34  C   UNL     1       0.797   2.894  19.744  0.00  0.00    +0.000 A 
ATOM     35  C   UNL     1       1.275   3.947  18.956  0.00  0.00    +0.000 A 
ENDBRANCH  26  30
ENDBRANCH   1  20
TORSDOF 4
ENDMDL
MODEL 2
REMARK VINA RESULT:      -9.2      3.980     10.454
REMARK  Name = 
REMARK  5 active torsions:
REMARK  status: ('A' for Active; 'I' for Inactive)
REMARK    1  A    between atoms: C_1  and  C_2
REMARK    2  A    between atoms: C_4  and  C_5
REMARK    3  A    between atoms: C_11  and  C_12
REMARK    4  A    between atoms: C_12  and  C_14
REMARK    5  A    between atoms: C_20  and  C_22
REMARK                            x       y       z     vdW  Elec       q    Type
REMARK                         _______ _______ _______ _____ _____    ______ ____
ROOT
ATOM      1  C   UNL     1       0.196  10.233  19.680  0.00  0.00    +0.000 C 
ATOM      2  O   UNL     1      -0.963  10.296  19.256  0.00  0.00    +0.000 OA
ENDROOT
BRANCH   1   9
ATOM      3  C   UNL     1       3.370   6.478  18.412  0.00  0.00    +0.000 A 
ATOM      4  C   UNL     1       3.173   5.615  19.501  0.00  0.00    +0.000 A 
ATOM      5  C   UNL     1       2.264   5.934  20.507  0.00  0.00    +0.000 A 
ATOM      6  C   UNL     1       1.527   7.123  20.449  0.00  0.00    +0.000 A 
ATOM      7  F   UNL     1       0.612   7.338  21.402  0.00  0.00    +0.000 F 
ATOM      8  C   UNL     1       1.717   8.049  19.402  0.00  0.00    +0.000 A 
ATOM      9  C   UNL     1       1.173   9.337  19.043  0.00  0.00    +0.000 A 
ATOM     10  C   UNL     1       1.786   9.688  17.845  0.00  0.00    +0.000 A 
ATOM     11  N   UNL     1       2.662   8.711  17.486  0.00  0.00    +0.000 N 
ATOM     12  C   UNL     1       2.642   7.688  18.405  0.00  0.00    +0.000 A 
ATOM     13  H   UNL     1       3.259   8.710  16.666  0.00  0.00    +0.000 HD
BRANCH   3  17
ATOM     14  C   UNL     1       6.051   3.977  15.112  0.00  0.00    +0.000 C 
ATOM     15  C   UNL     1       5.373   4.989  15.941  0.00  0.00    +0.000 A 
ATOM     16  N   UNL     1       4.500   4.836  16.910  0.00  0.00    +0.000 NA
ATOM     17  C   UNL     1       4.257   6.142  17.302  0.00  0.00    +0.000 A 
ATOM     18  N   UNL     1       4.947   7.053  16.595  0.00  0.00    +0.000 NA
ATOM     19  O   UNL     1       5.689   6.291  15.698  0.00  0.00    +0.000 OA
ENDBRANCH   3  17
ENDBRANCH   1   9
BRANCH   1  20
ATOM     20  C   UNL     1       0.528  11.186  20.827  0.00  0.00    +0.000 C 
ATOM     21  O   UNL     1       0.946  10.692  21.872  0.00  0.00    +0.000 OA
ATOM     22  N   UNL     1       0.433  12.568  20.606  0.00  0.00    +0.000 N 
ATOM     23  C   UNL     1       0.922  13.496  21.639  0.00  0.00    +0.000 C 
ATOM     24  C   UNL     1       2.070  14.382  21.115  0.00  0.00    +0.000 C 
ATOM     25  N   UNL     1       1.709  15.007  19.834  0.00  0.00    +0.000 N 
ATOM     26  C   UNL     1       1.780  16.398  19.720  0.00  0.00    +0.000 C 
ATOM     27  O   UNL     1       2.224  17.107  20.625  0.00  0.00    +0.000 OA
ATOM     28  C   UNL     1       1.318  14.019  18.809  0.00  0.00    +0.000 C 
ATOM     29  C   UNL     1       0.105  13.213  19.321  0.00  0.00    +0.000 C 
BRANCH  26  30
ATOM     30  C   UNL     1       1.327  17.099  18.483  0.00  0.00    +0.000 A 
ATOM     31  C   UNL     1       2.172  17.342  17.397  0.00  0.00    +0.000 A 
ATOM     32  C   UNL     1       1.721  18.069  16.291  0.00  0.00    +0.000 A 
ATOM     33  C   UNL     1       0.392  18.476  16.221  0.00  0.00    +0.000 A 
ATOM     34  C   UNL     1      -0.491  18.147  17.248  0.00  0.00    +0.000 A 
ATOM     35  C   UNL     1      -0.023  17.466  18.378  0.00  0.00    +0.000 A 
ENDBRANCH  26  30
ENDBRANCH   1  20
TORSDOF 4
ENDMDL
MODEL 3
REMARK VINA RESULT:      -8.9      3.922     10.513
REMARK  Name = 
REMARK  5 active torsions:
REMARK  status: ('A' for Active; 'I' for Inactive)
REMARK    1  A    between atoms: C_1  and  C_2
REMARK    2  A    between atoms: C_4  and  C_5
REMARK    3  A    between atoms: C_11  and  C_12
REMARK    4  A    between atoms: C_12  and  C_14
REMARK    5  A    between atoms: C_20  and  C_22
REMARK                            x       y       z     vdW  Elec       q    Type
REMARK                         _______ _______ _______ _____ _____    ______ ____
ROOT
ATOM      1  C   UNL     1       0.872   9.375  19.746  0.00  0.00    +0.000 C 
ATOM      2  O   UNL     1       0.811   9.231  20.972  0.00  0.00    +0.000 OA
ENDROOT
BRANCH   1   9
ATOM      3  C   UNL     1       3.979   5.828  17.861  0.00  0.00    +0.000 A 
ATOM      4  C   UNL     1       3.869   4.852  18.864  0.00  0.00    +0.000 A 
ATOM      5  C   UNL     1       3.034   5.047  19.960  0.00  0.00    +0.000 A 
ATOM      6  C   UNL     1       2.284   6.223  20.082  0.00  0.00    +0.000 A 
ATOM      7  F   UNL     1       1.439   6.321  21.115  0.00  0.00    +0.000 F 
ATOM      8  C   UNL     1       2.388   7.258  19.129  0.00  0.00    +0.000 A 
ATOM      9  C   UNL     1       1.808   8.568  18.949  0.00  0.00    +0.000 A 
ATOM     10  C   UNL     1       2.329   9.054  17.755  0.00  0.00    +0.000 A 
ATOM     11  N   UNL     1       3.186   8.134  17.232  0.00  0.00    +0.000 N 
ATOM     12  C   UNL     1       3.242   7.020  18.036  0.00  0.00    +0.000 A 
ATOM     13  H   UNL     1       3.721   8.231  16.376  0.00  0.00    +0.000 HD
BRANCH   3  17
ATOM     14  C   UNL     1       6.189   3.775  13.958  0.00  0.00    +0.000 C 
ATOM     15  C   UNL     1       5.688   4.661  15.024  0.00  0.00    +0.000 A 
ATOM     16  N   UNL     1       4.818   4.422  15.978  0.00  0.00    +0.000 NA
ATOM     17  C   UNL     1       4.786   5.626  16.662  0.00  0.00    +0.000 A 
ATOM     18  N   UNL     1       5.596   6.563  16.140  0.00  0.00    +0.000 NA
ATOM     19  O   UNL     1       6.197   5.923  15.059  0.00  0.00    +0.000 OA
ENDBRANCH   3  17
ENDBRANCH   1   9
BRANCH   1  20
ATOM     20  C   UNL     1      -0.124  10.369  19.151  0.00  0.00    +0.000 C 
ATOM     21  O   UNL     1      -1.295  10.010  19.056  0.00  0.00    +0.000 OA
ATOM     22  N   UNL     1       0.321  11.661  18.834  0.00  0.00    +0.000 N 
ATOM     23  C   UNL     1      -0.663  12.681  18.432  0.00  0.00    +0.000 C 
ATOM     24  C   UNL     1      -0.676  13.877  19.405  0.00  0.00    +0.000 C 
ATOM     25  N   UNL     1       0.685  14.381  19.638  0.00  0.00    +0.000 N 
ATOM     26  C   UNL     1       0.954  15.730  19.395  0.00  0.00    +0.000 C 
ATOM     27  O   UNL     1       0.069  16.528  19.083  0.00  0.00    +0.000 OA
ATOM     28  C   UNL     1       1.602  13.333  20.130  0.00  0.00    +0.000 C 
ATOM     29  C   UNL     1       1.672  12.193  19.091  0.00  0.00    +0.000 C 
BRANCH  26  30
ATOM     30  C   UNL     1       2.338  16.278  19.511  0.00  0.00    +0.000 A 
ATOM     31  C   UNL     1       3.290  16.151  18.496  0.00  0.00    +0.000 A 
ATOM     32  C   UNL     1       4.596  16.616  18.682  0.00  0.00    +0.000 A 
ATOM     33  C   UNL     1       4.933  17.296  19.848  0.00  0.00    +0.000 A 
ATOM     34  C   UNL     1       3.965  17.525  20.824  0.00  0.00    +0.000 A 
ATOM     35  C   UNL     1       2.673  17.012  20.659  0.00  0.00    +0.000 A 
ENDBRANCH  26  30
ENDBRANCH   1  20
TORSDOF 4
ENDMDL
MODEL 4
REMARK VINA RESULT:      -8.9      1.574      2.422
REMARK  Name = 
REMARK  5 active torsions:
REMARK  status: ('A' for Active; 'I' for Inactive)
REMARK    1  A    between atoms: C_1  and  C_2
REMARK    2  A    between atoms: C_4  and  C_5
REMARK    3  A    between atoms: C_11  and  C_12
REMARK    4  A    between atoms: C_12  and  C_14
REMARK    5  A    between atoms: C_20  and  C_22
REMARK                            x       y       z     vdW  Elec       q    Type
REMARK                         _______ _______ _______ _____ _____    ______ ____
ROOT
ATOM      1  C   UNL     1       0.428  11.544  20.187  0.00  0.00    +0.000 C 
ATOM      2  O   UNL     1       1.125  11.594  21.205  0.00  0.00    +0.000 OA
ENDROOT
BRANCH   1   9
ATOM      3  C   UNL     1      -4.294  12.930  21.437  0.00  0.00    +0.000 A 
ATOM      4  C   UNL     1      -4.244  12.736  22.826  0.00  0.00    +0.000 A 
ATOM      5  C   UNL     1      -3.074  12.303  23.442  0.00  0.00    +0.000 A 
ATOM      6  C   UNL     1      -1.922  12.054  22.688  0.00  0.00    +0.000 A 
ATOM      7  F   UNL     1      -0.805  11.717  23.344  0.00  0.00    +0.000 F 
ATOM      8  C   UNL     1      -1.926  12.188  21.283  0.00  0.00    +0.000 A 
ATOM      9  C   UNL     1      -0.969  12.001  20.219  0.00  0.00    +0.000 A 
ATOM     10  C   UNL     1      -1.632  12.347  19.046  0.00  0.00    +0.000 A 
ATOM     11  N   UNL     1      -2.912  12.704  19.343  0.00  0.00    +0.000 N 
ATOM     12  C   UNL     1      -3.128  12.629  20.699  0.00  0.00    +0.000 A 
ATOM     13  H   UNL     1      -3.626  12.985  18.680  0.00  0.00    +0.000 HD
BRANCH   3  17
ATOM     14  C   UNL     1      -7.911  13.687  18.169  0.00  0.00    +0.000 C 
ATOM     15  C   UNL     1      -6.979  13.706  19.310  0.00  0.00    +0.000 A 
ATOM     16  N   UNL     1      -5.964  12.918  19.582  0.00  0.00    +0.000 NA
ATOM     17  C   UNL     1      -5.479  13.454  20.764  0.00  0.00    +0.000 A 
ATOM     18  N   UNL     1      -6.174  14.520  21.197  0.00  0.00    +0.000 NA
ATOM     19  O   UNL     1      -7.164  14.690  20.233  0.00  0.00    +0.000 OA
ENDBRANCH   3  17
ENDBRANCH   1   9
BRANCH   1  20
ATOM     20  C   UNL     1       1.142  11.056  18.926  0.00  0.00    +0.000 C 
ATOM     21  O   UNL     1       1.703  11.899  18.230  0.00  0.00    +0.000 OA
ATOM     22  N   UNL     1       1.203   9.677  18.676  0.00  0.00    +0.000 N 
ATOM     23  C   UNL     1       2.039   9.185  17.569  0.00  0.00    +0.000 C 
ATOM     24  C   UNL     1       3.160   8.251  18.069  0.00  0.00    +0.000 C 
ATOM     25  N   UNL     1       2.620   7.209  18.956  0.00  0.00    +0.000 N 
ATOM     26  C   UNL     1       2.867   5.869  18.647  0.00  0.00    +0.000 C 
ATOM     27  O   UNL     1       3.599   5.537  17.713  0.00  0.00    +0.000 OA
ATOM     28  C   UNL     1       1.871   7.768  20.099  0.00  0.00    +0.000 C 
ATOM     29  C   UNL     1       0.697   8.618  19.569  0.00  0.00    +0.000 C 
BRANCH  26  30
ATOM     30  C   UNL     1       2.259   4.764  19.446  0.00  0.00    +0.000 A 
ATOM     31  C   UNL     1       1.349   3.852  18.906  0.00  0.00    +0.000 A 
ATOM     32  C   UNL     1       0.749   2.881  19.714  0.00  0.00    +0.000 A 
ATOM     33  C   UNL     1       1.129   2.754  21.047  0.00  0.00    +0.000 A 
ATOM     34  C   UNL     1       2.115   3.588  21.572  0.00  0.00    +0.000 A 
ATOM     35  C   UNL     1       2.673   4.593  20.775  0.00  0.00    +0.000 A 
ENDBRANCH  26  30
ENDBRANCH   1  20
TORSDOF 4
ENDMDL
MODEL 5
REMARK VINA RESULT:      -8.8      0.633      1.044
REMARK  Name = 
REMARK  5 active torsions:
REMARK  status: ('A' for Active; 'I' for Inactive)
REMARK    1  A    between atoms: C_1  and  C_2
REMARK    2  A    between atoms: C_4  and  C_5
REMARK    3  A    between atoms: C_11  and  C_12
REMARK    4  A    between atoms: C_12  and  C_14
REMARK    5  A    between atoms: C_20  and  C_22
REMARK                            x       y       z     vdW  Elec       q    Type
REMARK                         _______ _______ _______ _____ _____    ______ ____
ROOT
ATOM      1  C   UNL     1       0.654  11.621  20.502  0.00  0.00    +0.000 C 
ATOM      2  O   UNL     1       1.516  11.723  21.380  0.00  0.00    +0.000 OA
ENDROOT
BRANCH   1   9
ATOM      3  C   UNL     1      -4.315  12.653  20.344  0.00  0.00    +0.000 A 
ATOM      4  C   UNL     1      -4.608  12.238  19.036  0.00  0.00    +0.000 A 
ATOM      5  C   UNL     1      -3.618  11.693  18.224  0.00  0.00    +0.000 A 
ATOM      6  C   UNL     1      -2.309  11.547  18.697  0.00  0.00    +0.000 A 
ATOM      7  F   UNL     1      -1.418  10.944  17.900  0.00  0.00    +0.000 F 
ATOM      8  C   UNL     1      -1.946  11.989  19.988  0.00  0.00    +0.000 A 
ATOM      9  C   UNL     1      -0.734  12.021  20.772  0.00  0.00    +0.000 A 
ATOM     10  C   UNL     1      -1.091  12.571  21.999  0.00  0.00    +0.000 A 
ATOM     11  N   UNL     1      -2.416  12.881  21.984  0.00  0.00    +0.000 N 
ATOM     12  C   UNL     1      -2.976  12.532  20.777  0.00  0.00    +0.000 A 
ATOM     13  H   UNL     1      -2.942  13.310  22.738  0.00  0.00    +0.000 HD
BRANCH   3  17
ATOM     14  C   UNL     1      -6.682  15.257  23.802  0.00  0.00    +0.000 C 
ATOM     15  C   UNL     1      -6.264  14.320  22.744  0.00  0.00    +0.000 A 
ATOM     16  N   UNL     1      -5.132  14.248  22.082  0.00  0.00    +0.000 NA
ATOM     17  C   UNL     1      -5.342  13.159  21.251  0.00  0.00    +0.000 A 
ATOM     18  N   UNL     1      -6.554  12.596  21.396  0.00  0.00    +0.000 NA
ATOM     19  O   UNL     1      -7.163  13.361  22.387  0.00  0.00    +0.000 OA
ENDBRANCH   3  17
ENDBRANCH   1   9
BRANCH   1  20
ATOM     20  C   UNL     1       1.156  11.133  19.143  0.00  0.00    +0.000 C 
ATOM     21  O   UNL     1       1.628  11.971  18.378  0.00  0.00    +0.000 OA
ATOM     22  N   UNL     1       1.143   9.757  18.873  0.00  0.00    +0.000 N 
ATOM     23  C   UNL     1       1.788   9.259  17.647  0.00  0.00    +0.000 C 
ATOM     24  C   UNL     1       2.947   8.291  17.963  0.00  0.00    +0.000 C 
ATOM     25  N   UNL     1       2.520   7.251  18.911  0.00  0.00    +0.000 N 
ATOM     26  C   UNL     1       2.682   5.910  18.555  0.00  0.00    +0.000 C 
ATOM     27  O   UNL     1       3.255   5.572  17.517  0.00  0.00    +0.000 OA
ATOM     28  C   UNL     1       1.967   7.812  20.159  0.00  0.00    +0.000 C 
ATOM     29  C   UNL     1       0.750   8.698  19.821  0.00  0.00    +0.000 C 
BRANCH  26  30
ATOM     30  C   UNL     1       2.172   4.809  19.426  0.00  0.00    +0.000 A 
ATOM     31  C   UNL     1       1.281   3.834  18.970  0.00  0.00    +0.000 A 
ATOM     32  C   UNL     1       0.774   2.868  19.845  0.00  0.00    +0.000 A 
ATOM     33  C   UNL     1       1.229   2.811  21.159  0.00  0.00    +0.000 A 
ATOM     34  C   UNL     1       2.199   3.712  21.599  0.00  0.00    +0.000 A 
ATOM     35  C   UNL     1       2.664   4.711  20.736  0.00  0.00    +0.000 A 
ENDBRANCH  26  30
ENDBRANCH   1  20
TORSDOF 4
ENDMDL
MODEL 6
REMARK VINA RESULT:      -8.7      1.656      2.165
REMARK  Name = 
REMARK  5 active torsions:
REMARK  status: ('A' for Active; 'I' for Inactive)
REMARK    1  A    between atoms: C_1  and  C_2
REMARK    2  A    between atoms: C_4  and  C_5
REMARK    3  A    between atoms: C_11  and  C_12
REMARK    4  A    between atoms: C_12  and  C_14
REMARK    5  A    between atoms: C_20  and  C_22
REMARK                            x       y       z     vdW  Elec       q    Type
REMARK                         _______ _______ _______ _____ _____    ______ ____
ROOT
ATOM      1  C   UNL     1       0.580  11.508  20.215  0.00  0.00    +0.000 C 
ATOM      2  O   UNL     1       1.313  11.498  21.210  0.00  0.00    +0.000 OA
ENDROOT
BRANCH   1   9
ATOM      3  C   UNL     1      -4.046  13.065  21.614  0.00  0.00    +0.000 A 
ATOM      4  C   UNL     1      -4.030  12.689  22.965  0.00  0.00    +0.000 A 
ATOM      5  C   UNL     1      -2.904  12.094  23.526  0.00  0.00    +0.000 A 
ATOM      6  C   UNL     1      -1.762  11.860  22.751  0.00  0.00    +0.000 A 
ATOM      7  F   UNL     1      -0.682  11.358  23.362  0.00  0.00    +0.000 F 
ATOM      8  C   UNL     1      -1.736  12.176  21.376  0.00  0.00    +0.000 A 
ATOM      9  C   UNL     1      -0.780  12.059  20.300  0.00  0.00    +0.000 A 
ATOM     10  C   UNL     1      -1.399  12.603  19.180  0.00  0.00    +0.000 A 
ATOM     11  N   UNL     1      -2.654  13.012  19.515  0.00  0.00    +0.000 N 
ATOM     12  C   UNL     1      -2.894  12.778  20.849  0.00  0.00    +0.000 A 
ATOM     13  H   UNL     1      -3.336  13.430  18.892  0.00  0.00    +0.000 HD
BRANCH   3  17
ATOM     14  C   UNL     1      -7.829  16.139  20.855  0.00  0.00    +0.000 C 
ATOM     15  C   UNL     1      -6.779  15.108  20.781  0.00  0.00    +0.000 A 
ATOM     16  N   UNL     1      -5.806  14.835  21.620  0.00  0.00    +0.000 NA
ATOM     17  C   UNL     1      -5.179  13.759  21.010  0.00  0.00    +0.000 A 
ATOM     18  N   UNL     1      -5.744  13.398  19.845  0.00  0.00    +0.000 NA
ATOM     19  O   UNL     1      -6.805  14.286  19.695  0.00  0.00    +0.000 OA
ENDBRANCH   3  17
ENDBRANCH   1   9
BRANCH   1  20
ATOM     20  C   UNL     1       1.216  10.988  18.926  0.00  0.00    +0.000 C 
ATOM     21  O   UNL     1       1.744  11.811  18.182  0.00  0.00    +0.000 OA
ATOM     22  N   UNL     1       1.250   9.604  18.701  0.00  0.00    +0.000 N 
ATOM     23  C   UNL     1       2.016   9.081  17.557  0.00  0.00    +0.000 C 
ATOM     24  C   UNL     1       3.154   8.146  18.012  0.00  0.00    +0.000 C 
ATOM     25  N   UNL     1       2.657   7.127  18.948  0.00  0.00    +0.000 N 
ATOM     26  C   UNL     1       2.873   5.779  18.653  0.00  0.00    +0.000 C 
ATOM     27  O   UNL     1       3.547   5.420  17.685  0.00  0.00    +0.000 OA
ATOM     28  C   UNL     1       1.981   7.716  20.121  0.00  0.00    +0.000 C 
ATOM     29  C   UNL     1       0.786   8.568  19.642  0.00  0.00    +0.000 C 
BRANCH  26  30
ATOM     30  C   UNL     1       2.302   4.697  19.508  0.00  0.00    +0.000 A 
ATOM     31  C   UNL     1       2.668   4.514  20.844  0.00  0.00    +0.000 A 
ATOM     32  C   UNL     1       2.161   3.439  21.581  0.00  0.00    +0.000 A 
ATOM     33  C   UNL     1       1.209   2.596  21.017  0.00  0.00    +0.000 A 
ATOM     34  C   UNL     1       0.753   2.830  19.720  0.00  0.00    +0.000 A 
ATOM     35  C   UNL     1       1.302   3.874  18.967  0.00  0.00    +0.000 A 
ENDBRANCH  26  30
ENDBRANCH   1  20
TORSDOF 4
ENDMDL
MODEL 7
REMARK VINA RESULT:      -8.6      3.056     10.406
REMARK  Name = 
REMARK  5 active torsions:
REMARK  status: ('A' for Active; 'I' for Inactive)
REMARK    1  A    between atoms: C_1  and  C_2
REMARK    2  A    between atoms: C_4  and  C_5
REMARK    3  A    between atoms: C_11  and  C_12
REMARK    4  A    between atoms: C_12  and  C_14
REMARK    5  A    between atoms: C_20  and  C_22
REMARK                            x       y       z     vdW  Elec       q    Type
REMARK                         _______ _______ _______ _____ _____    ______ ____
ROOT
ATOM      1  C   UNL     1       0.614   9.446  19.693  0.00  0.00    +0.000 C 
ATOM      2  O   UNL     1       0.500   9.330  20.917  0.00  0.00    +0.000 OA
ENDROOT
BRANCH   1   9
ATOM      3  C   UNL     1       3.950   5.997  18.032  0.00  0.00    +0.000 A 
ATOM      4  C   UNL     1       3.803   5.018  19.027  0.00  0.00    +0.000 A 
ATOM      5  C   UNL     1       2.888   5.187  20.062  0.00  0.00    +0.000 A 
ATOM      6  C   UNL     1       2.095   6.339  20.131  0.00  0.00    +0.000 A 
ATOM      7  F   UNL     1       1.179   6.411  21.103  0.00  0.00    +0.000 F 
ATOM      8  C   UNL     1       2.233   7.377  19.185  0.00  0.00    +0.000 A 
ATOM      9  C   UNL     1       1.627   8.668  18.963  0.00  0.00    +0.000 A 
ATOM     10  C   UNL     1       2.213   9.171  17.806  0.00  0.00    +0.000 A 
ATOM     11  N   UNL     1       3.131   8.279  17.345  0.00  0.00    +0.000 N 
ATOM     12  C   UNL     1       3.167   7.166  18.153  0.00  0.00    +0.000 A 
ATOM     13  H   UNL     1       3.721   8.391  16.528  0.00  0.00    +0.000 HD
BRANCH   3  17
ATOM     14  C   UNL     1       6.345   4.068  14.175  0.00  0.00    +0.000 C 
ATOM     15  C   UNL     1       5.816   4.910  15.262  0.00  0.00    +0.000 A 
ATOM     16  N   UNL     1       4.850   4.671  16.120  0.00  0.00    +0.000 NA
ATOM     17  C   UNL     1       4.844   5.822  16.891  0.00  0.00    +0.000 A 
ATOM     18  N   UNL     1       5.762   6.727  16.514  0.00  0.00    +0.000 NA
ATOM     19  O   UNL     1       6.409   6.123  15.439  0.00  0.00    +0.000 OA
ENDBRANCH   3  17
ENDBRANCH   1   9
BRANCH   1  20
ATOM     20  C   UNL     1      -0.401  10.373  19.024  0.00  0.00    +0.000 C 
ATOM     21  O   UNL     1      -0.940   9.974  17.993  0.00  0.00    +0.000 OA
ATOM     22  N   UNL     1      -0.736  11.577  19.659  0.00  0.00    +0.000 N 
ATOM     23  C   UNL     1      -1.840  12.390  19.122  0.00  0.00    +0.000 C 
ATOM     24  C   UNL     1      -2.981  12.554  20.146  0.00  0.00    +0.000 C 
ATOM     25  N   UNL     1      -2.459  12.993  21.449  0.00  0.00    +0.000 N 
ATOM     26  C   UNL     1      -2.979  14.155  22.025  0.00  0.00    +0.000 C 
ATOM     27  O   UNL     1      -3.923  14.768  21.523  0.00  0.00    +0.000 OA
ATOM     28  C   UNL     1      -1.422  12.086  21.980  0.00  0.00    +0.000 C 
ATOM     29  C   UNL     1      -0.249  12.018  20.979  0.00  0.00    +0.000 C 
BRANCH  26  30
ATOM     30  C   UNL     1      -2.418  14.710  23.292  0.00  0.00    +0.000 A 
ATOM     31  C   UNL     1      -1.283  15.523  23.325  0.00  0.00    +0.000 A 
ATOM     32  C   UNL     1      -0.752  15.957  24.544  0.00  0.00    +0.000 A 
ATOM     33  C   UNL     1      -1.410  15.660  25.735  0.00  0.00    +0.000 A 
ATOM     34  C   UNL     1      -2.603  14.940  25.709  0.00  0.00    +0.000 A 
ATOM     35  C   UNL     1      -3.102  14.462  24.492  0.00  0.00    +0.000 A 
ENDBRANCH  26  30
ENDBRANCH   1  20
TORSDOF 4
ENDMDL
MODEL 8
REMARK VINA RESULT:      -8.6      3.572      5.059
REMARK  Name = 
REMARK  5 active torsions:
REMARK  status: ('A' for Active; 'I' for Inactive)
REMARK    1  A    between atoms: C_1  and  C_2
REMARK    2  A    between atoms: C_4  and  C_5
REMARK    3  A    between atoms: C_11  and  C_12
REMARK    4  A    between atoms: C_12  and  C_14
REMARK    5  A    between atoms: C_20  and  C_22
REMARK                            x       y       z     vdW  Elec       q    Type
REMARK                         _______ _______ _______ _____ _____    ______ ____
ROOT
ATOM      1  C   UNL     1      -0.145  10.316  18.664  0.00  0.00    +0.000 C 
ATOM      2  O   UNL     1      -0.478   9.699  17.647  0.00  0.00    +0.000 OA
ENDROOT
BRANCH   1   9
ATOM      3  C   UNL     1       0.576  15.342  18.691  0.00  0.00    +0.000 A 
ATOM      4  C   UNL     1       1.964  15.389  18.487  0.00  0.00    +0.000 A 
ATOM      5  C   UNL     1       2.699  14.220  18.319  0.00  0.00    +0.000 A 
ATOM      6  C   UNL     1       2.067  12.971  18.349  0.00  0.00    +0.000 A 
ATOM      7  F   UNL     1       2.811  11.886  18.103  0.00  0.00    +0.000 F 
ATOM      8  C   UNL     1       0.682  12.860  18.596  0.00  0.00    +0.000 A 
ATOM      9  C   UNL     1      -0.269  11.780  18.718  0.00  0.00    +0.000 A 
ATOM     10  C   UNL     1      -1.503  12.384  18.937  0.00  0.00    +0.000 A 
ATOM     11  N   UNL     1      -1.343  13.735  18.973  0.00  0.00    +0.000 N 
ATOM     12  C   UNL     1      -0.025  14.066  18.759  0.00  0.00    +0.000 A 
ATOM     13  H   UNL     1      -2.070  14.422  19.134  0.00  0.00    +0.000 HD
BRANCH   3  17
ATOM     14  C   UNL     1      -2.981  18.537  19.908  0.00  0.00    +0.000 C 
ATOM     15  C   UNL     1      -1.802  17.837  19.368  0.00  0.00    +0.000 A 
ATOM     16  N   UNL     1      -1.352  16.628  19.617  0.00  0.00    +0.000 NA
ATOM     17  C   UNL     1      -0.238  16.549  18.796  0.00  0.00    +0.000 A 
ATOM     18  N   UNL     1      -0.015  17.666  18.083  0.00  0.00    +0.000 NA
ATOM     19  O   UNL     1      -1.051  18.517  18.457  0.00  0.00    +0.000 OA
ENDBRANCH   3  17
ENDBRANCH   1   9
BRANCH   1  20
ATOM     20  C   UNL     1       0.314   9.451  19.837  0.00  0.00    +0.000 C 
ATOM     21  O   UNL     1      -0.418   9.396  20.823  0.00  0.00    +0.000 OA
ATOM     22  N   UNL     1       1.487   8.695  19.699  0.00  0.00    +0.000 N 
ATOM     23  C   UNL     1       1.842   7.722  20.746  0.00  0.00    +0.000 C 
ATOM     24  C   UNL     1       1.899   6.283  20.194  0.00  0.00    +0.000 C 
ATOM     25  N   UNL     1       2.721   6.219  18.977  0.00  0.00    +0.000 N 
ATOM     26  C   UNL     1       3.792   5.322  18.935  0.00  0.00    +0.000 C 
ATOM     27  O   UNL     1       4.011   4.521  19.845  0.00  0.00    +0.000 OA
ATOM     28  C   UNL     1       2.259   7.150  17.928  0.00  0.00    +0.000 C 
ATOM     29  C   UNL     1       2.305   8.592  18.476  0.00  0.00    +0.000 C 
BRANCH  26  30
ATOM     30  C   UNL     1       4.727   5.284  17.771  0.00  0.00    +0.000 A 
ATOM     31  C   UNL     1       5.879   6.071  17.700  0.00  0.00    +0.000 A 
ATOM     32  C   UNL     1       6.683   6.055  16.556  0.00  0.00    +0.000 A 
ATOM     33  C   UNL     1       6.393   5.179  15.513  0.00  0.00    +0.000 A 
ATOM     34  C   UNL     1       5.307   4.311  15.617  0.00  0.00    +0.000 A 
ATOM     35  C   UNL     1       4.473   4.368  16.739  0.00  0.00    +0.000 A 
ENDBRANCH  26  30
ENDBRANCH   1  20
TORSDOF 4
ENDMDL
MODEL 9
REMARK VINA RESULT:      -8.6      2.395      3.500
REMARK  Name = 
REMARK  5 active torsions:
REMARK  status: ('A' for Active; 'I' for Inactive)
REMARK    1  A    between atoms: C_1  and  C_2
REMARK    2  A    between atoms: C_4  and  C_5
REMARK    3  A    between atoms: C_11  and  C_12
REMARK    4  A    between atoms: C_12  and  C_14
REMARK    5  A    between atoms: C_20  and  C_22
REMARK                            x       y       z     vdW  Elec       q    Type
REMARK                         _______ _______ _______ _____ _____    ______ ____
ROOT
ATOM      1  C   UNL     1       0.096  10.575  19.281  0.00  0.00    +0.000 C 
ATOM      2  O   UNL     1       1.053  10.963  18.604  0.00  0.00    +0.000 OA
ENDROOT
BRANCH   1   9
ATOM      3  C   UNL     1      -4.480  11.654  17.364  0.00  0.00    +0.000 A 
ATOM      4  C   UNL     1      -4.434  10.896  16.184  0.00  0.00    +0.000 A 
ATOM      5  C   UNL     1      -3.321  10.119  15.881  0.00  0.00    +0.000 A 
ATOM      6  C   UNL     1      -2.224  10.076  16.749  0.00  0.00    +0.000 A 
ATOM      7  F   UNL     1      -1.216   9.250  16.445  0.00  0.00    +0.000 F 
ATOM      8  C   UNL     1      -2.195  10.853  17.927  0.00  0.00    +0.000 A 
ATOM      9  C   UNL     1      -1.260  11.073  19.005  0.00  0.00    +0.000 A 
ATOM     10  C   UNL     1      -1.887  11.954  19.879  0.00  0.00    +0.000 A 
ATOM     11  N   UNL     1      -3.111  12.283  19.383  0.00  0.00    +0.000 N 
ATOM     12  C   UNL     1      -3.341  11.624  18.198  0.00  0.00    +0.000 A 
ATOM     13  H   UNL     1      -3.778  12.921  19.804  0.00  0.00    +0.000 HD
BRANCH   3  17
ATOM     14  C   UNL     1      -7.916  13.994  20.021  0.00  0.00    +0.000 C 
ATOM     15  C   UNL     1      -7.077  13.389  18.971  0.00  0.00    +0.000 A 
ATOM     16  N   UNL     1      -5.922  12.773  19.067  0.00  0.00    +0.000 NA
ATOM     17  C   UNL     1      -5.660  12.422  17.753  0.00  0.00    +0.000 A 
ATOM     18  N   UNL     1      -6.613  12.815  16.891  0.00  0.00    +0.000 NA
ATOM     19  O   UNL     1      -7.553  13.452  17.697  0.00  0.00    +0.000 OA
ENDBRANCH   3  17
ENDBRANCH   1   9
BRANCH   1  20
ATOM     20  C   UNL     1       0.423   9.519  20.336  0.00  0.00    +0.000 C 
ATOM     21  O   UNL     1      -0.344   9.414  21.290  0.00  0.00    +0.000 OA
ATOM     22  N   UNL     1       1.515   8.666  20.121  0.00  0.00    +0.000 N 
ATOM     23  C   UNL     1       1.731   7.531  21.034  0.00  0.00    +0.000 C 
ATOM     24  C   UNL     1       1.657   6.179  20.295  0.00  0.00    +0.000 C 
ATOM     25  N   UNL     1       2.509   6.188  19.097  0.00  0.00    +0.000 N 
ATOM     26  C   UNL     1       3.481   5.195  18.957  0.00  0.00    +0.000 C 
ATOM     27  O   UNL     1       3.585   4.261  19.755  0.00  0.00    +0.000 OA
ATOM     28  C   UNL     1       2.181   7.293  18.174  0.00  0.00    +0.000 C 
ATOM     29  C   UNL     1       2.359   8.637  18.912  0.00  0.00    +0.000 C 
BRANCH  26  30
ATOM     30  C   UNL     1       4.446   5.210  17.817  0.00  0.00    +0.000 A 
ATOM     31  C   UNL     1       5.517   6.104  17.744  0.00  0.00    +0.000 A 
ATOM     32  C   UNL     1       6.349   6.129  16.620  0.00  0.00    +0.000 A 
ATOM     33  C   UNL     1       6.174   5.193  15.604  0.00  0.00    +0.000 A 
ATOM     34  C   UNL     1       5.177   4.225  15.714  0.00  0.00    +0.000 A 
ATOM     35  C   UNL     1       4.312   4.237  16.814  0.00  0.00    +0.000 A 
ENDBRANCH  26  30
ENDBRANCH   1  20
TORSDOF 4
ENDMDL
