MODEL 1
REMARK VINA RESULT:     -10.3      0.000      0.000
REMARK  Name = 
REMARK  3 active torsions:
REMARK  status: ('A' for Active; 'I' for Inactive)
REMARK    1  A    between atoms: C_10  and  C_11
REMARK    2  A    between atoms: C_18  and  C_19
REMARK    3  A    between atoms: C_21  and  C_22
REMARK                            x       y       z     vdW  Elec       q    Type
REMARK                         _______ _______ _______ _____ _____    ______ ____
ROOT
ATOM      1  C   UNL     1       6.519   4.461  15.656  0.00  0.00    +0.000 A 
ATOM      2  C   UNL     1       6.063   5.624  15.039  0.00  0.00    +0.000 A 
ATOM      3  C   UNL     1       5.159   6.468  15.691  0.00  0.00    +0.000 A 
ATOM      4  C   UNL     1       4.706   6.128  16.979  0.00  0.00    +0.000 A 
ATOM      5  C   UNL     1       3.821   6.730  17.908  0.00  0.00    +0.000 A 
ATOM      6  C   UNL     1       3.724   5.904  19.007  0.00  0.00    +0.000 A 
ATOM      7  N   UNL     1       4.576   4.849  18.810  0.00  0.00    +0.000 N 
ATOM      8  C   UNL     1       5.172   4.952  17.571  0.00  0.00    +0.000 A 
ATOM      9  C   UNL     1       6.082   4.101  16.935  0.00  0.00    +0.000 A 
ATOM     10  C   UNL     1       2.847   6.104  20.199  0.00  0.00    +0.000 C 
ATOM     11  N   UNL     1       2.181   7.428  20.168  0.00  0.00    +0.000 NA
ATOM     12  C   UNL     1       1.849   7.938  18.808  0.00  0.00    +0.000 C 
ATOM     13  C   UNL     1       3.063   8.004  17.842  0.00  0.00    +0.000 C 
ATOM     14  H   UNL     1       4.732   4.088  19.456  0.00  0.00    +0.000 HD
ATOM     15  H   UNL     1       2.840   8.104  20.557  0.00  0.00    +0.000 HD
ENDROOT
BRANCH  10  16
ATOM     16  C   UNL     1       1.867   4.923  20.430  0.00  0.00    +0.000 C 
ATOM     17  C   UNL     1       2.327   3.905  21.487  0.00  0.00    +0.000 C 
ATOM     18  C   UNL     1       1.364   2.732  21.582  0.00  0.00    +0.000 C 
ATOM     19  O   UNL     1       1.209   2.110  20.307  0.00  0.00    +0.000 OA
ATOM     20  C   UNL     1       0.646   2.996  19.344  0.00  0.00    +0.000 C 
ATOM     21  C   UNL     1       1.554   4.195  19.111  0.00  0.00    +0.000 C 
ENDBRANCH  10  16
BRANCH  12  22
ATOM     22  C   UNL     1       1.234   9.304  18.947  0.00  0.00    +0.000 A 
ATOM     23  N   UNL     1       0.616   9.800  19.996  0.00  0.00    +0.000 NA
ATOM     24  C   UNL     1       0.168  11.047  19.633  0.00  0.00    +0.000 A 
ATOM     25  C   UNL     1       0.553  11.316  18.335  0.00  0.00    +0.000 A 
ATOM     26  N   UNL     1       1.223  10.205  17.910  0.00  0.00    +0.000 N 
ATOM     27  H   UNL     1       1.595  10.026  16.985  0.00  0.00    +0.000 HD
BRANCH  24  28
ATOM     28  C   UNL     1      -0.654  11.858  20.602  0.00  0.00    +0.000 C 
ATOM     29  C   UNL     1      -2.062  12.156  20.018  0.00  0.00    +0.000 C 
ATOM     30  C   UNL     1      -2.890  13.009  20.997  0.00  0.00    +0.000 C 
ATOM     31  C   UNL     1      -3.046  12.249  22.324  0.00  0.00    +0.000 C 
ATOM     32  C   UNL     1      -1.665  11.970  22.935  0.00  0.00    +0.000 C 
ATOM     33  C   UNL     1      -0.935  13.299  23.185  0.00  0.00    +0.000 C 
ATOM     34  C   UNL     1      -0.774  14.067  21.864  0.00  0.00    +0.000 C 
ATOM     35  C   UNL     1      -2.160  14.336  21.257  0.00  0.00    +0.000 C 
ATOM     36  C   UNL     1       0.049  13.215  20.883  0.00  0.00    +0.000 C 
ATOM     37  C   UNL     1      -0.842  11.120  21.955  0.00  0.00    +0.000 C 
ENDBRANCH  24  28
ENDBRANCH  12  22
TORSDOF 3
ENDMDL
MODEL 2
REMARK VINA RESULT:     -10.3      0.056      1.291
REMARK  Name = 
REMARK  3 active torsions:
REMARK  status: ('A' for Active; 'I' for Inactive)
REMARK    1  A    between atoms: C_10  and  C_11
REMARK    2  A    between atoms: C_18  and  C_19
REMARK    3  A    between atoms: C_21  and  C_22
REMARK                            x       y       z     vdW  Elec       q    Type
REMARK                         _______ _______ _______ _____ _____    ______ ____
ROOT
ATOM      1  C   UNL     1       6.495   4.415  15.607  0.00  0.00    +0.000 A 
ATOM      2  C   UNL     1       6.035   5.574  14.986  0.00  0.00    +0.000 A 
ATOM      3  C   UNL     1       5.137   6.425  15.640  0.00  0.00    +0.000 A 
ATOM      4  C   UNL     1       4.697   6.095  16.935  0.00  0.00    +0.000 A 
ATOM      5  C   UNL     1       3.822   6.705  17.869  0.00  0.00    +0.000 A 
ATOM      6  C   UNL     1       3.735   5.888  18.974  0.00  0.00    +0.000 A 
ATOM      7  N   UNL     1       4.583   4.831  18.778  0.00  0.00    +0.000 N 
ATOM      8  C   UNL     1       5.168   4.923  17.531  0.00  0.00    +0.000 A 
ATOM      9  C   UNL     1       6.071   4.066  16.893  0.00  0.00    +0.000 A 
ATOM     10  C   UNL     1       2.870   6.098  20.174  0.00  0.00    +0.000 C 
ATOM     11  N   UNL     1       2.205   7.422  20.140  0.00  0.00    +0.000 NA
ATOM     12  C   UNL     1       1.860   7.922  18.779  0.00  0.00    +0.000 C 
ATOM     13  C   UNL     1       3.065   7.980  17.801  0.00  0.00    +0.000 C 
ATOM     14  H   UNL     1       4.746   4.074  19.428  0.00  0.00    +0.000 HD
ATOM     15  H   UNL     1       2.869   8.100  20.517  0.00  0.00    +0.000 HD
ENDROOT
BRANCH  10  16
ATOM     16  C   UNL     1       1.891   4.919  20.424  0.00  0.00    +0.000 C 
ATOM     17  C   UNL     1       2.389   3.876  21.437  0.00  0.00    +0.000 C 
ATOM     18  C   UNL     1       1.421   2.708  21.550  0.00  0.00    +0.000 C 
ATOM     19  O   UNL     1       1.204   2.115  20.271  0.00  0.00    +0.000 OA
ATOM     20  C   UNL     1       0.606   3.026  19.352  0.00  0.00    +0.000 C 
ATOM     21  C   UNL     1       1.513   4.222  19.104  0.00  0.00    +0.000 C 
ENDBRANCH  10  16
BRANCH  12  22
ATOM     22  C   UNL     1       1.248   9.290  18.913  0.00  0.00    +0.000 A 
ATOM     23  N   UNL     1       0.663   9.804  19.973  0.00  0.00    +0.000 NA
ATOM     24  C   UNL     1       0.202  11.044  19.603  0.00  0.00    +0.000 A 
ATOM     25  C   UNL     1       0.545  11.291  18.288  0.00  0.00    +0.000 A 
ATOM     26  N   UNL     1       1.203  10.173  17.862  0.00  0.00    +0.000 N 
ATOM     27  H   UNL     1       1.546   9.978  16.928  0.00  0.00    +0.000 HD
BRANCH  24  28
ATOM     28  C   UNL     1      -0.590  11.871  20.582  0.00  0.00    +0.000 C 
ATOM     29  C   UNL     1      -0.777  11.111  21.924  0.00  0.00    +0.000 C 
ATOM     30  C   UNL     1      -1.612  11.946  22.913  0.00  0.00    +0.000 C 
ATOM     31  C   UNL     1      -0.893  13.277  23.184  0.00  0.00    +0.000 C 
ATOM     32  C   UNL     1      -0.723  14.060  21.874  0.00  0.00    +0.000 C 
ATOM     33  C   UNL     1      -2.104  14.337  21.259  0.00  0.00    +0.000 C 
ATOM     34  C   UNL     1      -2.832  13.012  20.983  0.00  0.00    +0.000 C 
ATOM     35  C   UNL     1      -2.991  12.233  22.298  0.00  0.00    +0.000 C 
ATOM     36  C   UNL     1      -1.998  12.174  19.999  0.00  0.00    +0.000 C 
ATOM     37  C   UNL     1       0.108  13.222  20.890  0.00  0.00    +0.000 C 
ENDBRANCH  24  28
ENDBRANCH  12  22
TORSDOF 3
ENDMDL
MODEL 3
REMARK VINA RESULT:     -10.3      0.061      1.290
REMARK  Name = 
REMARK  3 active torsions:
REMARK  status: ('A' for Active; 'I' for Inactive)
REMARK    1  A    between atoms: C_10  and  C_11
REMARK    2  A    between atoms: C_18  and  C_19
REMARK    3  A    between atoms: C_21  and  C_22
REMARK                            x       y       z     vdW  Elec       q    Type
REMARK                         _______ _______ _______ _____ _____    ______ ____
ROOT
ATOM      1  C   UNL     1       6.506   4.380  15.651  0.00  0.00    +0.000 A 
ATOM      2  C   UNL     1       6.064   5.544  15.027  0.00  0.00    +0.000 A 
ATOM      3  C   UNL     1       5.169   6.403  15.674  0.00  0.00    +0.000 A 
ATOM      4  C   UNL     1       4.712   6.076  16.963  0.00  0.00    +0.000 A 
ATOM      5  C   UNL     1       3.834   6.693  17.889  0.00  0.00    +0.000 A 
ATOM      6  C   UNL     1       3.726   5.875  18.992  0.00  0.00    +0.000 A 
ATOM      7  N   UNL     1       4.565   4.809  18.802  0.00  0.00    +0.000 N 
ATOM      8  C   UNL     1       5.163   4.897  17.562  0.00  0.00    +0.000 A 
ATOM      9  C   UNL     1       6.064   4.032  16.932  0.00  0.00    +0.000 A 
ATOM     10  C   UNL     1       2.851   6.092  20.183  0.00  0.00    +0.000 C 
ATOM     11  N   UNL     1       2.200   7.423  20.144  0.00  0.00    +0.000 NA
ATOM     12  C   UNL     1       1.875   7.930  18.781  0.00  0.00    +0.000 C 
ATOM     13  C   UNL     1       3.091   7.977  17.816  0.00  0.00    +0.000 C 
ATOM     14  H   UNL     1       4.712   4.050  19.453  0.00  0.00    +0.000 HD
ATOM     15  H   UNL     1       2.868   8.093  20.530  0.00  0.00    +0.000 HD
ENDROOT
BRANCH  10  16
ATOM     16  C   UNL     1       1.857   4.924  20.420  0.00  0.00    +0.000 C 
ATOM     17  C   UNL     1       2.305   3.905  21.480  0.00  0.00    +0.000 C 
ATOM     18  C   UNL     1       1.328   2.744  21.581  0.00  0.00    +0.000 C 
ATOM     19  O   UNL     1       1.164   2.119  20.309  0.00  0.00    +0.000 OA
ATOM     20  C   UNL     1       0.610   3.008  19.342  0.00  0.00    +0.000 C 
ATOM     21  C   UNL     1       1.533   4.194  19.103  0.00  0.00    +0.000 C 
ENDBRANCH  10  16
BRANCH  12  22
ATOM     22  C   UNL     1       1.277   9.304  18.912  0.00  0.00    +0.000 A 
ATOM     23  N   UNL     1       0.653   9.809  19.954  0.00  0.00    +0.000 NA
ATOM     24  C   UNL     1       0.226  11.061  19.584  0.00  0.00    +0.000 A 
ATOM     25  C   UNL     1       0.629  11.325  18.291  0.00  0.00    +0.000 A 
ATOM     26  N   UNL     1       1.290  10.205  17.874  0.00  0.00    +0.000 N 
ATOM     27  H   UNL     1       1.670  10.020  16.953  0.00  0.00    +0.000 HD
BRANCH  24  28
ATOM     28  C   UNL     1      -0.597  11.884  20.543  0.00  0.00    +0.000 C 
ATOM     29  C   UNL     1       0.087  13.249  20.829  0.00  0.00    +0.000 C 
ATOM     30  C   UNL     1      -0.742  14.074  21.831  0.00  0.00    +0.000 C 
ATOM     31  C   UNL     1      -2.140  14.326  21.246  0.00  0.00    +0.000 C 
ATOM     32  C   UNL     1      -2.848  12.989  20.982  0.00  0.00    +0.000 C 
ATOM     33  C   UNL     1      -2.973  12.205  22.299  0.00  0.00    +0.000 C 
ATOM     34  C   UNL     1      -1.579  11.948  22.892  0.00  0.00    +0.000 C 
ATOM     35  C   UNL     1      -0.877  13.291  23.147  0.00  0.00    +0.000 C 
ATOM     36  C   UNL     1      -0.748  11.127  21.892  0.00  0.00    +0.000 C 
ATOM     37  C   UNL     1      -2.017  12.167  19.984  0.00  0.00    +0.000 C 
ENDBRANCH  24  28
ENDBRANCH  12  22
TORSDOF 3
ENDMDL
MODEL 4
REMARK VINA RESULT:      -9.8      1.910      2.736
REMARK  Name = 
REMARK  3 active torsions:
REMARK  status: ('A' for Active; 'I' for Inactive)
REMARK    1  A    between atoms: C_10  and  C_11
REMARK    2  A    between atoms: C_18  and  C_19
REMARK    3  A    between atoms: C_21  and  C_22
REMARK                            x       y       z     vdW  Elec       q    Type
REMARK                         _______ _______ _______ _____ _____    ______ ____
ROOT
ATOM      1  C   UNL     1       6.611   4.314  15.462  0.00  0.00    +0.000 A 
ATOM      2  C   UNL     1       6.186   5.469  14.810  0.00  0.00    +0.000 A 
ATOM      3  C   UNL     1       5.288   6.346  15.427  0.00  0.00    +0.000 A 
ATOM      4  C   UNL     1       4.812   6.048  16.717  0.00  0.00    +0.000 A 
ATOM      5  C   UNL     1       3.926   6.690  17.618  0.00  0.00    +0.000 A 
ATOM      6  C   UNL     1       3.798   5.895  18.736  0.00  0.00    +0.000 A 
ATOM      7  N   UNL     1       4.633   4.820  18.578  0.00  0.00    +0.000 N 
ATOM      8  C   UNL     1       5.248   4.879  17.345  0.00  0.00    +0.000 A 
ATOM      9  C   UNL     1       6.150   3.996  16.744  0.00  0.00    +0.000 A 
ATOM     10  C   UNL     1       2.910   6.141  19.910  0.00  0.00    +0.000 C 
ATOM     11  N   UNL     1       2.269   7.475  19.837  0.00  0.00    +0.000 NA
ATOM     12  C   UNL     1       1.965   7.957  18.459  0.00  0.00    +0.000 C 
ATOM     13  C   UNL     1       3.193   7.976  17.509  0.00  0.00    +0.000 C 
ATOM     14  H   UNL     1       4.767   4.073  19.246  0.00  0.00    +0.000 HD
ATOM     15  H   UNL     1       2.935   8.149  20.217  0.00  0.00    +0.000 HD
ENDROOT
BRANCH  10  16
ATOM     16  C   UNL     1       1.905   4.984  20.158  0.00  0.00    +0.000 C 
ATOM     17  C   UNL     1       2.309   4.011  21.277  0.00  0.00    +0.000 C 
ATOM     18  C   UNL     1       1.327   2.856  21.389  0.00  0.00    +0.000 C 
ATOM     19  O   UNL     1       1.211   2.178  20.139  0.00  0.00    +0.000 OA
ATOM     20  C   UNL     1       0.697   3.025  19.115  0.00  0.00    +0.000 C 
ATOM     21  C   UNL     1       1.631   4.200  18.862  0.00  0.00    +0.000 C 
ENDBRANCH  10  16
BRANCH  12  22
ATOM     22  C   UNL     1       1.373   9.337  18.555  0.00  0.00    +0.000 A 
ATOM     23  N   UNL     1       2.012  10.468  18.758  0.00  0.00    +0.000 NA
ATOM     24  C   UNL     1       1.054  11.450  18.836  0.00  0.00    +0.000 A 
ATOM     25  C   UNL     1      -0.195  10.892  18.647  0.00  0.00    +0.000 A 
ATOM     26  N   UNL     1       0.020   9.555  18.473  0.00  0.00    +0.000 N 
ATOM     27  H   UNL     1      -0.678   8.827  18.369  0.00  0.00    +0.000 HD
BRANCH  24  28
ATOM     28  C   UNL     1       1.459  12.869  19.142  0.00  0.00    +0.000 C 
ATOM     29  C   UNL     1       2.731  13.265  18.343  0.00  0.00    +0.000 C 
ATOM     30  C   UNL     1       3.159  14.706  18.679  0.00  0.00    +0.000 C 
ATOM     31  C   UNL     1       2.019  15.671  18.321  0.00  0.00    +0.000 C 
ATOM     32  C   UNL     1       0.758  15.316  19.122  0.00  0.00    +0.000 C 
ATOM     33  C   UNL     1       1.061  15.412  20.626  0.00  0.00    +0.000 C 
ATOM     34  C   UNL     1       2.200  14.450  20.995  0.00  0.00    +0.000 C 
ATOM     35  C   UNL     1       3.456  14.810  20.184  0.00  0.00    +0.000 C 
ATOM     36  C   UNL     1       1.776  13.012  20.657  0.00  0.00    +0.000 C 
ATOM     37  C   UNL     1       0.335  13.877  18.785  0.00  0.00    +0.000 C 
ENDBRANCH  24  28
ENDBRANCH  12  22
TORSDOF 3
ENDMDL
MODEL 5
REMARK VINA RESULT:      -9.7      1.733      2.268
REMARK  Name = 
REMARK  3 active torsions:
REMARK  status: ('A' for Active; 'I' for Inactive)
REMARK    1  A    between atoms: C_10  and  C_11
REMARK    2  A    between atoms: C_18  and  C_19
REMARK    3  A    between atoms: C_21  and  C_22
REMARK                            x       y       z     vdW  Elec       q    Type
REMARK                         _______ _______ _______ _____ _____    ______ ____
ROOT
ATOM      1  C   UNL     1       6.636   4.342  15.564  0.00  0.00    +0.000 A 
ATOM      2  C   UNL     1       6.188   5.467  14.876  0.00  0.00    +0.000 A 
ATOM      3  C   UNL     1       5.261   6.337  15.460  0.00  0.00    +0.000 A 
ATOM      4  C   UNL     1       4.778   6.061  16.753  0.00  0.00    +0.000 A 
ATOM      5  C   UNL     1       3.866   6.703  17.627  0.00  0.00    +0.000 A 
ATOM      6  C   UNL     1       3.747   5.935  18.765  0.00  0.00    +0.000 A 
ATOM      7  N   UNL     1       4.611   4.879  18.645  0.00  0.00    +0.000 N 
ATOM      8  C   UNL     1       5.238   4.921  17.417  0.00  0.00    +0.000 A 
ATOM      9  C   UNL     1       6.169   4.046  16.849  0.00  0.00    +0.000 A 
ATOM     10  C   UNL     1       2.839   6.190  19.923  0.00  0.00    +0.000 C 
ATOM     11  N   UNL     1       2.165   7.504  19.806  0.00  0.00    +0.000 NA
ATOM     12  C   UNL     1       1.863   7.940  18.414  0.00  0.00    +0.000 C 
ATOM     13  C   UNL     1       3.101   7.966  17.476  0.00  0.00    +0.000 C 
ATOM     14  H   UNL     1       4.757   4.154  19.334  0.00  0.00    +0.000 HD
ATOM     15  H   UNL     1       2.809   8.205  20.176  0.00  0.00    +0.000 HD
ENDROOT
BRANCH  10  16
ATOM     16  C   UNL     1       1.862   5.014  20.191  0.00  0.00    +0.000 C 
ATOM     17  C   UNL     1       2.296   4.063  21.319  0.00  0.00    +0.000 C 
ATOM     18  C   UNL     1       1.340   2.888  21.452  0.00  0.00    +0.000 C 
ATOM     19  O   UNL     1       1.231   2.192  20.211  0.00  0.00    +0.000 OA
ATOM     20  C   UNL     1       0.691   3.016  19.180  0.00  0.00    +0.000 C 
ATOM     21  C   UNL     1       1.597   4.208  18.907  0.00  0.00    +0.000 C 
ENDBRANCH  10  16
BRANCH  12  22
ATOM     22  C   UNL     1       1.235   9.306  18.465  0.00  0.00    +0.000 A 
ATOM     23  N   UNL     1       1.801  10.433  18.840  0.00  0.00    +0.000 NA
ATOM     24  C   UNL     1       0.824  11.397  18.786  0.00  0.00    +0.000 A 
ATOM     25  C   UNL     1      -0.356  10.836  18.341  0.00  0.00    +0.000 A 
ATOM     26  N   UNL     1      -0.084   9.512  18.144  0.00  0.00    +0.000 N 
ATOM     27  H   UNL     1      -0.735   8.783  17.877  0.00  0.00    +0.000 HD
BRANCH  24  28
ATOM     28  C   UNL     1       1.136  12.803  19.232  0.00  0.00    +0.000 C 
ATOM     29  C   UNL     1       0.044  13.794  18.742  0.00  0.00    +0.000 C 
ATOM     30  C   UNL     1       0.380  15.233  19.175  0.00  0.00    +0.000 C 
ATOM     31  C   UNL     1       0.464  15.295  20.707  0.00  0.00    +0.000 C 
ATOM     32  C   UNL     1       1.559  14.344  21.213  0.00  0.00    +0.000 C 
ATOM     33  C   UNL     1       2.912  14.750  20.606  0.00  0.00    +0.000 C 
ATOM     34  C   UNL     1       2.838  14.690  19.072  0.00  0.00    +0.000 C 
ATOM     35  C   UNL     1       1.737  15.640  18.576  0.00  0.00    +0.000 C 
ATOM     36  C   UNL     1       2.499  13.255  18.638  0.00  0.00    +0.000 C 
ATOM     37  C   UNL     1       1.221  12.910  20.778  0.00  0.00    +0.000 C 
ENDBRANCH  24  28
ENDBRANCH  12  22
TORSDOF 3
ENDMDL
MODEL 6
REMARK VINA RESULT:      -9.7      1.709      2.507
REMARK  Name = 
REMARK  3 active torsions:
REMARK  status: ('A' for Active; 'I' for Inactive)
REMARK    1  A    between atoms: C_10  and  C_11
REMARK    2  A    between atoms: C_18  and  C_19
REMARK    3  A    between atoms: C_21  and  C_22
REMARK                            x       y       z     vdW  Elec       q    Type
REMARK                         _______ _______ _______ _____ _____    ______ ____
ROOT
ATOM      1  C   UNL     1       6.650   4.316  15.575  0.00  0.00    +0.000 A 
ATOM      2  C   UNL     1       6.202   5.437  14.881  0.00  0.00    +0.000 A 
ATOM      3  C   UNL     1       5.274   6.310  15.460  0.00  0.00    +0.000 A 
ATOM      4  C   UNL     1       4.792   6.041  16.754  0.00  0.00    +0.000 A 
ATOM      5  C   UNL     1       3.879   6.687  17.625  0.00  0.00    +0.000 A 
ATOM      6  C   UNL     1       3.760   5.926  18.767  0.00  0.00    +0.000 A 
ATOM      7  N   UNL     1       4.624   4.869  18.653  0.00  0.00    +0.000 N 
ATOM      8  C   UNL     1       5.251   4.905  17.425  0.00  0.00    +0.000 A 
ATOM      9  C   UNL     1       6.184   4.027  16.862  0.00  0.00    +0.000 A 
ATOM     10  C   UNL     1       2.852   6.186  19.923  0.00  0.00    +0.000 C 
ATOM     11  N   UNL     1       2.177   7.500  19.799  0.00  0.00    +0.000 NA
ATOM     12  C   UNL     1       1.875   7.928  18.404  0.00  0.00    +0.000 C 
ATOM     13  C   UNL     1       3.114   7.949  17.466  0.00  0.00    +0.000 C 
ATOM     14  H   UNL     1       4.770   4.148  19.346  0.00  0.00    +0.000 HD
ATOM     15  H   UNL     1       2.821   8.203  20.164  0.00  0.00    +0.000 HD
ENDROOT
BRANCH  10  16
ATOM     16  C   UNL     1       1.875   5.011  20.198  0.00  0.00    +0.000 C 
ATOM     17  C   UNL     1       2.310   4.067  21.331  0.00  0.00    +0.000 C 
ATOM     18  C   UNL     1       1.355   2.892  21.470  0.00  0.00    +0.000 C 
ATOM     19  O   UNL     1       1.246   2.190  20.233  0.00  0.00    +0.000 OA
ATOM     20  C   UNL     1       0.706   3.007  19.198  0.00  0.00    +0.000 C 
ATOM     21  C   UNL     1       1.610   4.199  18.918  0.00  0.00    +0.000 C 
ENDBRANCH  10  16
BRANCH  12  22
ATOM     22  C   UNL     1       1.247   9.294  18.448  0.00  0.00    +0.000 A 
ATOM     23  N   UNL     1       1.805  10.419  18.838  0.00  0.00    +0.000 NA
ATOM     24  C   UNL     1       0.829  11.384  18.768  0.00  0.00    +0.000 A 
ATOM     25  C   UNL     1      -0.341  10.825  18.296  0.00  0.00    +0.000 A 
ATOM     26  N   UNL     1      -0.066   9.502  18.100  0.00  0.00    +0.000 N 
ATOM     27  H   UNL     1      -0.711   8.773  17.816  0.00  0.00    +0.000 HD
BRANCH  24  28
ATOM     28  C   UNL     1       1.132  12.788  19.226  0.00  0.00    +0.000 C 
ATOM     29  C   UNL     1       1.160  12.871  20.777  0.00  0.00    +0.000 C 
ATOM     30  C   UNL     1       1.441  14.312  21.241  0.00  0.00    +0.000 C 
ATOM     31  C   UNL     1       2.800  14.767  20.688  0.00  0.00    +0.000 C 
ATOM     32  C   UNL     1       2.786  14.721  19.153  0.00  0.00    +0.000 C 
ATOM     33  C   UNL     1       1.678  15.646  18.623  0.00  0.00    +0.000 C 
ATOM     34  C   UNL     1       0.314  15.199  19.169  0.00  0.00    +0.000 C 
ATOM     35  C   UNL     1       0.340  15.242  20.705  0.00  0.00    +0.000 C 
ATOM     36  C   UNL     1       0.033  13.759  18.710  0.00  0.00    +0.000 C 
ATOM     37  C   UNL     1       2.504  13.282  18.694  0.00  0.00    +0.000 C 
ENDBRANCH  24  28
ENDBRANCH  12  22
TORSDOF 3
ENDMDL
MODEL 7
REMARK VINA RESULT:      -9.6      2.841      8.680
REMARK  Name = 
REMARK  3 active torsions:
REMARK  status: ('A' for Active; 'I' for Inactive)
REMARK    1  A    between atoms: C_10  and  C_11
REMARK    2  A    between atoms: C_18  and  C_19
REMARK    3  A    between atoms: C_21  and  C_22
REMARK                            x       y       z     vdW  Elec       q    Type
REMARK                         _______ _______ _______ _____ _____    ______ ____
ROOT
ATOM      1  C   UNL     1       2.768  16.500  17.999  0.00  0.00    +0.000 A 
ATOM      2  C   UNL     1       3.759  15.612  17.587  0.00  0.00    +0.000 A 
ATOM      3  C   UNL     1       3.569  14.231  17.697  0.00  0.00    +0.000 A 
ATOM      4  C   UNL     1       2.364  13.743  18.234  0.00  0.00    +0.000 A 
ATOM      5  C   UNL     1       1.843  12.449  18.483  0.00  0.00    +0.000 A 
ATOM      6  C   UNL     1       0.608  12.589  19.078  0.00  0.00    +0.000 A 
ATOM      7  N   UNL     1       0.325  13.928  19.138  0.00  0.00    +0.000 N 
ATOM      8  C   UNL     1       1.390  14.655  18.648  0.00  0.00    +0.000 A 
ATOM      9  C   UNL     1       1.563  16.039  18.538  0.00  0.00    +0.000 A 
ATOM     10  C   UNL     1      -0.270  11.490  19.580  0.00  0.00    +0.000 C 
ATOM     11  N   UNL     1       0.259  10.157  19.208  0.00  0.00    +0.000 NA
ATOM     12  C   UNL     1       1.745  10.060  19.149  0.00  0.00    +0.000 C 
ATOM     13  C   UNL     1       2.412  11.105  18.213  0.00  0.00    +0.000 C 
ATOM     14  H   UNL     1      -0.521  14.337  19.509  0.00  0.00    +0.000 HD
ATOM     15  H   UNL     1      -0.063   9.962  18.259  0.00  0.00    +0.000 HD
ENDROOT
BRANCH  10  16
ATOM     16  C   UNL     1      -0.600  11.627  21.091  0.00  0.00    +0.000 C 
ATOM     17  C   UNL     1      -0.575  10.305  21.875  0.00  0.00    +0.000 C 
ATOM     18  C   UNL     1      -1.004  10.509  23.320  0.00  0.00    +0.000 C 
ATOM     19  O   UNL     1      -2.296  11.111  23.375  0.00  0.00    +0.000 OA
ATOM     20  C   UNL     1      -2.310  12.406  22.780  0.00  0.00    +0.000 C 
ATOM     21  C   UNL     1      -1.953  12.330  21.302  0.00  0.00    +0.000 C 
ENDBRANCH  10  16
BRANCH  12  22
ATOM     22  C   UNL     1       2.116   8.670  18.707  0.00  0.00    +0.000 A 
ATOM     23  N   UNL     1       1.811   7.535  19.297  0.00  0.00    +0.000 NA
ATOM     24  C   UNL     1       2.421   6.541  18.571  0.00  0.00    +0.000 A 
ATOM     25  C   UNL     1       3.090   7.096  17.499  0.00  0.00    +0.000 A 
ATOM     26  N   UNL     1       2.893   8.444  17.597  0.00  0.00    +0.000 N 
ATOM     27  H   UNL     1       3.291   9.170  17.012  0.00  0.00    +0.000 HD
BRANCH  24  28
ATOM     28  C   UNL     1       2.326   5.110  19.035  0.00  0.00    +0.000 C 
ATOM     29  C   UNL     1       3.727   4.556  19.412  0.00  0.00    +0.000 C 
ATOM     30  C   UNL     1       3.630   3.086  19.858  0.00  0.00    +0.000 C 
ATOM     31  C   UNL     1       2.705   2.986  21.080  0.00  0.00    +0.000 C 
ATOM     32  C   UNL     1       1.303   3.502  20.722  0.00  0.00    +0.000 C 
ATOM     33  C   UNL     1       0.727   2.663  19.569  0.00  0.00    +0.000 C 
ATOM     34  C   UNL     1       1.646   2.756  18.341  0.00  0.00    +0.000 C 
ATOM     35  C   UNL     1       3.047   2.244  18.712  0.00  0.00    +0.000 C 
ATOM     36  C   UNL     1       1.747   4.224  17.897  0.00  0.00    +0.000 C 
ATOM     37  C   UNL     1       1.404   4.968  20.275  0.00  0.00    +0.000 C 
ENDBRANCH  24  28
ENDBRANCH  12  22
TORSDOF 3
ENDMDL
MODEL 8
REMARK VINA RESULT:      -9.6      2.971      8.879
REMARK  Name = 
REMARK  3 active torsions:
REMARK  status: ('A' for Active; 'I' for Inactive)
REMARK    1  A    between atoms: C_10  and  C_11
REMARK    2  A    between atoms: C_18  and  C_19
REMARK    3  A    between atoms: C_21  and  C_22
REMARK                            x       y       z     vdW  Elec       q    Type
REMARK                         _______ _______ _______ _____ _____    ______ ____
ROOT
ATOM      1  C   UNL     1       2.675  16.533  18.278  0.00  0.00    +0.000 A 
ATOM      2  C   UNL     1       3.751  15.663  18.118  0.00  0.00    +0.000 A 
ATOM      3  C   UNL     1       3.558  14.278  18.153  0.00  0.00    +0.000 A 
ATOM      4  C   UNL     1       2.263  13.769  18.357  0.00  0.00    +0.000 A 
ATOM      5  C   UNL     1       1.713  12.465  18.443  0.00  0.00    +0.000 A 
ATOM      6  C   UNL     1       0.366  12.582  18.705  0.00  0.00    +0.000 A 
ATOM      7  N   UNL     1       0.059  13.917  18.713  0.00  0.00    +0.000 N 
ATOM      8  C   UNL     1       1.203  14.664  18.523  0.00  0.00    +0.000 A 
ATOM      9  C   UNL     1       1.379  16.051  18.483  0.00  0.00    +0.000 A 
ATOM     10  C   UNL     1      -0.596  11.466  18.948  0.00  0.00    +0.000 C 
ATOM     11  N   UNL     1       0.029  10.146  18.702  0.00  0.00    +0.000 NA
ATOM     12  C   UNL     1       1.482  10.063  19.023  0.00  0.00    +0.000 C 
ATOM     13  C   UNL     1       2.351  11.132  18.305  0.00  0.00    +0.000 C 
ATOM     14  H   UNL     1      -0.860  14.311  18.862  0.00  0.00    +0.000 HD
ATOM     15  H   UNL     1      -0.037   9.966  17.699  0.00  0.00    +0.000 HD
ENDROOT
BRANCH  10  16
ATOM     16  C   UNL     1      -1.303  11.571  20.327  0.00  0.00    +0.000 C 
ATOM     17  C   UNL     1      -2.496  12.539  20.365  0.00  0.00    +0.000 C 
ATOM     18  C   UNL     1      -3.067  12.658  21.770  0.00  0.00    +0.000 C 
ATOM     19  O   UNL     1      -2.053  13.061  22.688  0.00  0.00    +0.000 OA
ATOM     20  C   UNL     1      -1.001  12.104  22.778  0.00  0.00    +0.000 C 
ATOM     21  C   UNL     1      -0.301  11.936  21.437  0.00  0.00    +0.000 C 
ENDBRANCH  10  16
BRANCH  12  22
ATOM     22  C   UNL     1       1.973   8.686  18.668  0.00  0.00    +0.000 A 
ATOM     23  N   UNL     1       1.643   7.548  19.238  0.00  0.00    +0.000 NA
ATOM     24  C   UNL     1       2.391   6.572  18.625  0.00  0.00    +0.000 A 
ATOM     25  C   UNL     1       3.172   7.140  17.638  0.00  0.00    +0.000 A 
ATOM     26  N   UNL     1       2.901   8.478  17.677  0.00  0.00    +0.000 N 
ATOM     27  H   UNL     1       3.341   9.212  17.133  0.00  0.00    +0.000 HD
BRANCH  24  28
ATOM     28  C   UNL     1       2.300   5.147  19.106  0.00  0.00    +0.000 C 
ATOM     29  C   UNL     1       3.707   4.591  19.459  0.00  0.00    +0.000 C 
ATOM     30  C   UNL     1       3.614   3.126  19.923  0.00  0.00    +0.000 C 
ATOM     31  C   UNL     1       2.714   3.043  21.165  0.00  0.00    +0.000 C 
ATOM     32  C   UNL     1       1.308   3.560  20.831  0.00  0.00    +0.000 C 
ATOM     33  C   UNL     1       0.704   2.712  19.700  0.00  0.00    +0.000 C 
ATOM     34  C   UNL     1       1.597   2.788  18.452  0.00  0.00    +0.000 C 
ATOM     35  C   UNL     1       3.004   2.275  18.798  0.00  0.00    +0.000 C 
ATOM     36  C   UNL     1       1.694   4.251  17.990  0.00  0.00    +0.000 C 
ATOM     37  C   UNL     1       1.404   5.022  20.367  0.00  0.00    +0.000 C 
ENDBRANCH  24  28
ENDBRANCH  12  22
TORSDOF 3
ENDMDL
MODEL 9
REMARK VINA RESULT:      -9.5      2.857      8.643
REMARK  Name = 
REMARK  3 active torsions:
REMARK  status: ('A' for Active; 'I' for Inactive)
REMARK    1  A    between atoms: C_10  and  C_11
REMARK    2  A    between atoms: C_18  and  C_19
REMARK    3  A    between atoms: C_21  and  C_22
REMARK                            x       y       z     vdW  Elec       q    Type
REMARK                         _______ _______ _______ _____ _____    ______ ____
ROOT
ATOM      1  C   UNL     1       2.873  16.526  18.040  0.00  0.00    +0.000 A 
ATOM      2  C   UNL     1       3.851  15.623  17.628  0.00  0.00    +0.000 A 
ATOM      3  C   UNL     1       3.636  14.245  17.731  0.00  0.00    +0.000 A 
ATOM      4  C   UNL     1       2.421  13.775  18.261  0.00  0.00    +0.000 A 
ATOM      5  C   UNL     1       1.876  12.489  18.502  0.00  0.00    +0.000 A 
ATOM      6  C   UNL     1       0.641  12.647  19.092  0.00  0.00    +0.000 A 
ATOM      7  N   UNL     1       0.381  13.991  19.157  0.00  0.00    +0.000 N 
ATOM      8  C   UNL     1       1.460  14.702  18.675  0.00  0.00    +0.000 A 
ATOM      9  C   UNL     1       1.657  16.083  18.572  0.00  0.00    +0.000 A 
ATOM     10  C   UNL     1      -0.258  11.562  19.586  0.00  0.00    +0.000 C 
ATOM     11  N   UNL     1       0.250  10.222  19.211  0.00  0.00    +0.000 NA
ATOM     12  C   UNL     1       1.735  10.099  19.157  0.00  0.00    +0.000 C 
ATOM     13  C   UNL     1       2.423  11.136  18.229  0.00  0.00    +0.000 C 
ATOM     14  H   UNL     1      -0.460  14.412  19.526  0.00  0.00    +0.000 HD
ATOM     15  H   UNL     1      -0.070  10.036  18.259  0.00  0.00    +0.000 HD
ENDROOT
BRANCH  10  16
ATOM     16  C   UNL     1      -0.592  11.697  21.096  0.00  0.00    +0.000 C 
ATOM     17  C   UNL     1      -0.569  10.375  21.879  0.00  0.00    +0.000 C 
ATOM     18  C   UNL     1      -1.003  10.579  23.323  0.00  0.00    +0.000 C 
ATOM     19  O   UNL     1      -2.295  11.182  23.375  0.00  0.00    +0.000 OA
ATOM     20  C   UNL     1      -2.307  12.477  22.780  0.00  0.00    +0.000 C 
ATOM     21  C   UNL     1      -1.945  12.401  21.304  0.00  0.00    +0.000 C 
ENDBRANCH  10  16
BRANCH  12  22
ATOM     22  C   UNL     1       2.084   8.706  18.711  0.00  0.00    +0.000 A 
ATOM     23  N   UNL     1       1.766   7.574  19.300  0.00  0.00    +0.000 NA
ATOM     24  C   UNL     1       2.358   6.573  18.569  0.00  0.00    +0.000 A 
ATOM     25  C   UNL     1       3.030   7.120  17.495  0.00  0.00    +0.000 A 
ATOM     26  N   UNL     1       2.852   8.470  17.597  0.00  0.00    +0.000 N 
ATOM     27  H   UNL     1       3.257   9.191  17.011  0.00  0.00    +0.000 HD
BRANCH  24  28
ATOM     28  C   UNL     1       2.246   5.142  19.031  0.00  0.00    +0.000 C 
ATOM     29  C   UNL     1       1.269   5.024  20.233  0.00  0.00    +0.000 C 
ATOM     30  C   UNL     1       1.178   3.566  20.721  0.00  0.00    +0.000 C 
ATOM     31  C   UNL     1       0.674   2.678  19.573  0.00  0.00    +0.000 C 
ATOM     32  C   UNL     1       1.641   2.756  18.383  0.00  0.00    +0.000 C 
ATOM     33  C   UNL     1       3.037   2.285  18.824  0.00  0.00    +0.000 C 
ATOM     34  C   UNL     1       3.551   3.168  19.972  0.00  0.00    +0.000 C 
ATOM     35  C   UNL     1       2.573   3.088  21.155  0.00  0.00    +0.000 C 
ATOM     36  C   UNL     1       3.638   4.625  19.488  0.00  0.00    +0.000 C 
ATOM     37  C   UNL     1       1.731   4.212  17.901  0.00  0.00    +0.000 C 
ENDBRANCH  24  28
ENDBRANCH  12  22
TORSDOF 3
ENDMDL
