MODEL 1
REMARK VINA RESULT:      -8.7      0.000      0.000
REMARK  Name = 
REMARK  5 active torsions:
REMARK  status: ('A' for Active; 'I' for Inactive)
REMARK    1  A    between atoms: C_2  and  C_20
REMARK    2  A    between atoms: N_3  and  C_4
REMARK    3  A    between atoms: C_8  and  C_9
REMARK    4  A    between atoms: C_13  and  C_14
REMARK    5  A    between atoms: C_24  and  C_25
REMARK                            x       y       z     vdW  Elec       q    Type
REMARK                         _______ _______ _______ _____ _____    ______ ____
ROOT
ATOM      1  O   UNL     1       2.446   9.439  17.175  0.00  0.00    +0.000 OA
ATOM      2  C   UNL     1       2.026   8.846  18.160  0.00  0.00    +0.000 C 
ATOM      3  N   UNL     1       2.475   7.629  18.616  0.00  0.00    +0.000 N 
ATOM      4  H   UNL     1       1.930   7.167  19.327  0.00  0.00    +0.000 HD
ENDROOT
BRANCH   3   5
ATOM      5  C   UNL     1       3.390   6.814  17.917  0.00  0.00    +0.000 A 
ATOM      6  C   UNL     1       4.236   7.466  17.005  0.00  0.00    +0.000 A 
ATOM      7  C   UNL     1       5.122   6.749  16.222  0.00  0.00    +0.000 A 
ATOM      8  C   UNL     1       5.170   5.372  16.352  0.00  0.00    +0.000 A 
ATOM      9  C   UNL     1       4.322   4.673  17.252  0.00  0.00    +0.000 A 
ATOM     10  C   UNL     1       3.400   5.390  18.079  0.00  0.00    +0.000 A 
BRANCH  10  11
ATOM     11  C   UNL     1       2.554   4.726  19.138  0.00  0.00    +0.000 A 
ATOM     12  C   UNL     1       2.931   4.662  20.491  0.00  0.00    +0.000 A 
ATOM     13  C   UNL     1       2.203   3.926  21.430  0.00  0.00    +0.000 A 
ATOM     14  C   UNL     1       1.032   3.323  21.023  0.00  0.00    +0.000 A 
ATOM     15  N   UNL     1       0.588   3.384  19.754  0.00  0.00    +0.000 NA
ATOM     16  C   UNL     1       1.367   4.041  18.854  0.00  0.00    +0.000 A 
ENDBRANCH  10  11
BRANCH   9  17
ATOM     17  C   UNL     1       4.484   3.164  17.252  0.00  0.00    +0.000 C 
ATOM     18  F   UNL     1       4.855   2.667  18.470  0.00  0.00    +0.000 F 
ATOM     19  F   UNL     1       3.331   2.506  16.950  0.00  0.00    +0.000 F 
ATOM     20  F   UNL     1       5.431   2.720  16.384  0.00  0.00    +0.000 F 
ENDBRANCH   9  17
ENDBRANCH   3   5
BRANCH   2  21
ATOM     21  C   UNL     1       0.921   9.458  18.961  0.00  0.00    +0.000 A 
ATOM     22  C   UNL     1       0.970   9.622  20.348  0.00  0.00    +0.000 A 
ATOM     23  C   UNL     1      -0.116  10.193  21.016  0.00  0.00    +0.000 A 
ATOM     24  C   UNL     1      -1.243  10.606  20.296  0.00  0.00    +0.000 A 
ATOM     25  C   UNL     1      -1.307  10.480  18.897  0.00  0.00    +0.000 A 
ATOM     26  C   UNL     1      -0.208   9.892  18.252  0.00  0.00    +0.000 A 
BRANCH  25  27
ATOM     27  C   UNL     1      -2.488  10.929  18.134  0.00  0.00    +0.000 A 
ATOM     28  C   UNL     1      -2.641  10.666  16.770  0.00  0.00    +0.000 A 
ATOM     29  C   UNL     1      -3.806  11.070  16.125  0.00  0.00    +0.000 A 
ATOM     30  C   UNL     1      -4.787  11.734  16.846  0.00  0.00    +0.000 A 
ATOM     31  C   UNL     1      -4.556  11.977  18.188  0.00  0.00    +0.000 A 
ATOM     32  N   UNL     1      -3.435  11.593  18.843  0.00  0.00    +0.000 NA
ENDBRANCH  25  27
ENDBRANCH   2  21
TORSDOF 5
ENDMDL
MODEL 2
REMARK VINA RESULT:      -8.4      0.487      1.092
REMARK  Name = 
REMARK  5 active torsions:
REMARK  status: ('A' for Active; 'I' for Inactive)
REMARK    1  A    between atoms: C_2  and  C_20
REMARK    2  A    between atoms: N_3  and  C_4
REMARK    3  A    between atoms: C_8  and  C_9
REMARK    4  A    between atoms: C_13  and  C_14
REMARK    5  A    between atoms: C_24  and  C_25
REMARK                            x       y       z     vdW  Elec       q    Type
REMARK                         _______ _______ _______ _____ _____    ______ ____
ROOT
ATOM      1  O   UNL     1       2.310   9.325  17.073  0.00  0.00    +0.000 OA
ATOM      2  C   UNL     1       1.993   8.799  18.132  0.00  0.00    +0.000 C 
ATOM      3  N   UNL     1       2.536   7.646  18.648  0.00  0.00    +0.000 N 
ATOM      4  H   UNL     1       2.068   7.221  19.433  0.00  0.00    +0.000 HD
ENDROOT
BRANCH   3   5
ATOM      5  C   UNL     1       3.439   6.818  17.950  0.00  0.00    +0.000 A 
ATOM      6  C   UNL     1       4.311   7.461  17.055  0.00  0.00    +0.000 A 
ATOM      7  C   UNL     1       5.189   6.733  16.274  0.00  0.00    +0.000 A 
ATOM      8  C   UNL     1       5.203   5.353  16.388  0.00  0.00    +0.000 A 
ATOM      9  C   UNL     1       4.330   4.664  17.270  0.00  0.00    +0.000 A 
ATOM     10  C   UNL     1       3.414   5.392  18.095  0.00  0.00    +0.000 A 
BRANCH  10  11
ATOM     11  C   UNL     1       2.542   4.736  19.137  0.00  0.00    +0.000 A 
ATOM     12  C   UNL     1       2.883   4.681  20.499  0.00  0.00    +0.000 A 
ATOM     13  C   UNL     1       2.131   3.952  21.424  0.00  0.00    +0.000 A 
ATOM     14  C   UNL     1       0.971   3.347  20.991  0.00  0.00    +0.000 A 
ATOM     15  N   UNL     1       0.559   3.399  19.711  0.00  0.00    +0.000 NA
ATOM     16  C   UNL     1       1.362   4.050  18.828  0.00  0.00    +0.000 A 
ENDBRANCH  10  11
BRANCH   9  17
ATOM     17  C   UNL     1       4.456   3.152  17.254  0.00  0.00    +0.000 C 
ATOM     18  F   UNL     1       5.402   2.704  16.375  0.00  0.00    +0.000 F 
ATOM     19  F   UNL     1       4.836   2.638  18.456  0.00  0.00    +0.000 F 
ATOM     20  F   UNL     1       3.310   2.516  16.897  0.00  0.00    +0.000 F 
ENDBRANCH   9  17
ENDBRANCH   3   5
BRANCH   2  21
ATOM     21  C   UNL     1       0.917   9.424  18.961  0.00  0.00    +0.000 A 
ATOM     22  C   UNL     1       1.018   9.615  20.342  0.00  0.00    +0.000 A 
ATOM     23  C   UNL     1      -0.043  10.197  21.039  0.00  0.00    +0.000 A 
ATOM     24  C   UNL     1      -1.198  10.594  20.355  0.00  0.00    +0.000 A 
ATOM     25  C   UNL     1      -1.315  10.441  18.963  0.00  0.00    +0.000 A 
ATOM     26  C   UNL     1      -0.239   9.842  18.287  0.00  0.00    +0.000 A 
BRANCH  25  27
ATOM     27  C   UNL     1      -2.525  10.872  18.236  0.00  0.00    +0.000 A 
ATOM     28  C   UNL     1      -3.549  11.597  18.852  0.00  0.00    +0.000 A 
ATOM     29  C   UNL     1      -4.635  12.020  18.094  0.00  0.00    +0.000 A 
ATOM     30  C   UNL     1      -4.686  11.704  16.744  0.00  0.00    +0.000 A 
ATOM     31  C   UNL     1      -3.647  10.965  16.208  0.00  0.00    +0.000 A 
ATOM     32  N   UNL     1      -2.576  10.544  16.921  0.00  0.00    +0.000 NA
ENDBRANCH  25  27
ENDBRANCH   2  21
TORSDOF 5
ENDMDL
MODEL 3
REMARK VINA RESULT:      -8.3      5.392      9.576
REMARK  Name = 
REMARK  5 active torsions:
REMARK  status: ('A' for Active; 'I' for Inactive)
REMARK    1  A    between atoms: C_2  and  C_20
REMARK    2  A    between atoms: N_3  and  C_4
REMARK    3  A    between atoms: C_8  and  C_9
REMARK    4  A    between atoms: C_13  and  C_14
REMARK    5  A    between atoms: C_24  and  C_25
REMARK                            x       y       z     vdW  Elec       q    Type
REMARK                         _______ _______ _______ _____ _____    ______ ____
ROOT
ATOM      1  O   UNL     1      -0.716  10.001  19.230  0.00  0.00    +0.000 OA
ATOM      2  C   UNL     1       0.358   9.815  19.786  0.00  0.00    +0.000 C 
ATOM      3  N   UNL     1       0.750  10.372  20.981  0.00  0.00    +0.000 N 
ATOM      4  H   UNL     1       1.719  10.283  21.241  0.00  0.00    +0.000 HD
ENDROOT
BRANCH   3   5
ATOM      5  C   UNL     1       0.019  11.366  21.664  0.00  0.00    +0.000 A 
ATOM      6  C   UNL     1      -0.900  10.916  22.627  0.00  0.00    +0.000 A 
ATOM      7  C   UNL     1      -1.712  11.807  23.304  0.00  0.00    +0.000 A 
ATOM      8  C   UNL     1      -1.605  13.158  23.024  0.00  0.00    +0.000 A 
ATOM      9  C   UNL     1      -0.700  13.654  22.049  0.00  0.00    +0.000 A 
ATOM     10  C   UNL     1       0.158  12.755  21.337  0.00  0.00    +0.000 A 
BRANCH  10  11
ATOM     11  C   UNL     1       1.222  13.221  20.375  0.00  0.00    +0.000 A 
ATOM     12  C   UNL     1       1.073  13.162  18.978  0.00  0.00    +0.000 A 
ATOM     13  C   UNL     1       2.120  13.470  18.106  0.00  0.00    +0.000 A 
ATOM     14  C   UNL     1       3.303  13.931  18.642  0.00  0.00    +0.000 A 
ATOM     15  N   UNL     1       3.499  14.057  19.967  0.00  0.00    +0.000 NA
ATOM     16  C   UNL     1       2.483  13.670  20.784  0.00  0.00    +0.000 A 
ENDBRANCH  10  11
BRANCH   9  17
ATOM     17  C   UNL     1      -0.728  15.157  21.846  0.00  0.00    +0.000 C 
ATOM     18  F   UNL     1      -1.754  15.767  22.512  0.00  0.00    +0.000 F 
ATOM     19  F   UNL     1       0.394  15.776  22.306  0.00  0.00    +0.000 F 
ATOM     20  F   UNL     1      -0.878  15.526  20.547  0.00  0.00    +0.000 F 
ENDBRANCH   9  17
ENDBRANCH   3   5
BRANCH   2  21
ATOM     21  C   UNL     1       1.366   8.919  19.141  0.00  0.00    +0.000 A 
ATOM     22  C   UNL     1       2.120   9.283  18.022  0.00  0.00    +0.000 A 
ATOM     23  C   UNL     1       3.031   8.376  17.476  0.00  0.00    +0.000 A 
ATOM     24  C   UNL     1       3.193   7.111  18.054  0.00  0.00    +0.000 A 
ATOM     25  C   UNL     1       2.469   6.730  19.196  0.00  0.00    +0.000 A 
ATOM     26  C   UNL     1       1.551   7.655  19.718  0.00  0.00    +0.000 A 
BRANCH  25  27
ATOM     27  C   UNL     1       2.649   5.402  19.817  0.00  0.00    +0.000 A 
ATOM     28  C   UNL     1       1.862   4.963  20.886  0.00  0.00    +0.000 A 
ATOM     29  C   UNL     1       2.048   3.679  21.386  0.00  0.00    +0.000 A 
ATOM     30  C   UNL     1       3.017   2.863  20.821  0.00  0.00    +0.000 A 
ATOM     31  C   UNL     1       3.772   3.373  19.780  0.00  0.00    +0.000 A 
ATOM     32  N   UNL     1       3.611   4.617  19.271  0.00  0.00    +0.000 NA
ENDBRANCH  25  27
ENDBRANCH   2  21
TORSDOF 5
ENDMDL
MODEL 4
REMARK VINA RESULT:      -8.3      4.180      8.229
REMARK  Name = 
REMARK  5 active torsions:
REMARK  status: ('A' for Active; 'I' for Inactive)
REMARK    1  A    between atoms: C_2  and  C_20
REMARK    2  A    between atoms: N_3  and  C_4
REMARK    3  A    between atoms: C_8  and  C_9
REMARK    4  A    between atoms: C_13  and  C_14
REMARK    5  A    between atoms: C_24  and  C_25
REMARK                            x       y       z     vdW  Elec       q    Type
REMARK                         _______ _______ _______ _____ _____    ______ ____
ROOT
ATOM      1  O   UNL     1       2.032  10.312  17.672  0.00  0.00    +0.000 OA
ATOM      2  C   UNL     1       1.534   9.200  17.786  0.00  0.00    +0.000 C 
ATOM      3  N   UNL     1       0.188   8.930  17.881  0.00  0.00    +0.000 N 
ATOM      4  H   UNL     1      -0.082   7.998  18.149  0.00  0.00    +0.000 HD
ENDROOT
BRANCH   3   5
ATOM      5  C   UNL     1      -0.806   9.922  18.014  0.00  0.00    +0.000 A 
ATOM      6  C   UNL     1      -1.520  10.251  16.849  0.00  0.00    +0.000 A 
ATOM      7  C   UNL     1      -2.470  11.255  16.860  0.00  0.00    +0.000 A 
ATOM      8  C   UNL     1      -2.715  11.935  18.041  0.00  0.00    +0.000 A 
ATOM      9  C   UNL     1      -2.007  11.642  19.236  0.00  0.00    +0.000 A 
ATOM     10  C   UNL     1      -1.023  10.603  19.257  0.00  0.00    +0.000 A 
BRANCH  10  11
ATOM     11  C   UNL     1      -0.317  10.161  20.514  0.00  0.00    +0.000 A 
ATOM     12  C   UNL     1      -0.783   9.112  21.327  0.00  0.00    +0.000 A 
ATOM     13  C   UNL     1      -0.194   8.808  22.557  0.00  0.00    +0.000 A 
ATOM     14  C   UNL     1       0.934   9.505  22.932  0.00  0.00    +0.000 A 
ATOM     15  N   UNL     1       1.462  10.488  22.180  0.00  0.00    +0.000 NA
ATOM     16  C   UNL     1       0.811  10.808  21.030  0.00  0.00    +0.000 A 
ENDBRANCH  10  11
BRANCH   9  17
ATOM     17  C   UNL     1      -2.379  12.497  20.433  0.00  0.00    +0.000 C 
ATOM     18  F   UNL     1      -1.393  13.373  20.792  0.00  0.00    +0.000 F 
ATOM     19  F   UNL     1      -3.469  13.282  20.208  0.00  0.00    +0.000 F 
ATOM     20  F   UNL     1      -2.638  11.775  21.555  0.00  0.00    +0.000 F 
ENDBRANCH   9  17
ENDBRANCH   3   5
BRANCH   2  21
ATOM     21  C   UNL     1       2.429   8.004  17.841  0.00  0.00    +0.000 A 
ATOM     22  C   UNL     1       3.660   7.928  17.185  0.00  0.00    +0.000 A 
ATOM     23  C   UNL     1       4.426   6.764  17.282  0.00  0.00    +0.000 A 
ATOM     24  C   UNL     1       3.963   5.682  18.040  0.00  0.00    +0.000 A 
ATOM     25  C   UNL     1       2.743   5.742  18.735  0.00  0.00    +0.000 A 
ATOM     26  C   UNL     1       1.987   6.919  18.611  0.00  0.00    +0.000 A 
BRANCH  25  27
ATOM     27  C   UNL     1       2.260   4.608  19.547  0.00  0.00    +0.000 A 
ATOM     28  C   UNL     1       1.558   3.534  18.992  0.00  0.00    +0.000 A 
ATOM     29  C   UNL     1       1.181   2.473  19.807  0.00  0.00    +0.000 A 
ATOM     30  C   UNL     1       1.499   2.505  21.157  0.00  0.00    +0.000 A 
ATOM     31  C   UNL     1       2.175   3.611  21.640  0.00  0.00    +0.000 A 
ATOM     32  N   UNL     1       2.558   4.657  20.870  0.00  0.00    +0.000 NA
ENDBRANCH  25  27
ENDBRANCH   2  21
TORSDOF 5
ENDMDL
MODEL 5
REMARK VINA RESULT:      -8.3      2.728      4.356
REMARK  Name = 
REMARK  5 active torsions:
REMARK  status: ('A' for Active; 'I' for Inactive)
REMARK    1  A    between atoms: C_2  and  C_20
REMARK    2  A    between atoms: N_3  and  C_4
REMARK    3  A    between atoms: C_8  and  C_9
REMARK    4  A    between atoms: C_13  and  C_14
REMARK    5  A    between atoms: C_24  and  C_25
REMARK                            x       y       z     vdW  Elec       q    Type
REMARK                         _______ _______ _______ _____ _____    ______ ____
ROOT
ATOM      1  O   UNL     1       1.411   7.290  17.410  0.00  0.00    +0.000 OA
ATOM      2  C   UNL     1       1.774   7.767  18.478  0.00  0.00    +0.000 C 
ATOM      3  N   UNL     1       2.213   7.052  19.568  0.00  0.00    +0.000 N 
ATOM      4  H   UNL     1       2.311   7.546  20.440  0.00  0.00    +0.000 HD
ENDROOT
BRANCH   3   5
ATOM      5  C   UNL     1       2.161   5.646  19.660  0.00  0.00    +0.000 A 
ATOM      6  C   UNL     1       1.042   5.103  20.314  0.00  0.00    +0.000 A 
ATOM      7  C   UNL     1       0.930   3.740  20.515  0.00  0.00    +0.000 A 
ATOM      8  C   UNL     1       1.938   2.909  20.056  0.00  0.00    +0.000 A 
ATOM      9  C   UNL     1       3.091   3.417  19.402  0.00  0.00    +0.000 A 
ATOM     10  C   UNL     1       3.231   4.824  19.174  0.00  0.00    +0.000 A 
BRANCH  10  11
ATOM     11  C   UNL     1       4.369   5.422  18.386  0.00  0.00    +0.000 A 
ATOM     12  C   UNL     1       4.279   5.718  17.014  0.00  0.00    +0.000 A 
ATOM     13  C   UNL     1       5.385   6.143  16.273  0.00  0.00    +0.000 A 
ATOM     14  C   UNL     1       6.573   6.362  16.937  0.00  0.00    +0.000 A 
ATOM     15  N   UNL     1       6.716   6.145  18.257  0.00  0.00    +0.000 NA
ATOM     16  C   UNL     1       5.639   5.654  18.926  0.00  0.00    +0.000 A 
ENDBRANCH  10  11
BRANCH   9  17
ATOM     17  C   UNL     1       4.110   2.374  18.985  0.00  0.00    +0.000 C 
ATOM     18  F   UNL     1       3.591   1.111  18.931  0.00  0.00    +0.000 F 
ATOM     19  F   UNL     1       4.614   2.591  17.739  0.00  0.00    +0.000 F 
ATOM     20  F   UNL     1       5.172   2.286  19.829  0.00  0.00    +0.000 F 
ENDBRANCH   9  17
ENDBRANCH   3   5
BRANCH   2  21
ATOM     21  C   UNL     1       1.744   9.251  18.659  0.00  0.00    +0.000 A 
ATOM     22  C   UNL     1       2.431  10.145  17.833  0.00  0.00    +0.000 A 
ATOM     23  C   UNL     1       2.356  11.517  18.084  0.00  0.00    +0.000 A 
ATOM     24  C   UNL     1       1.589  11.992  19.155  0.00  0.00    +0.000 A 
ATOM     25  C   UNL     1       0.864  11.118  19.983  0.00  0.00    +0.000 A 
ATOM     26  C   UNL     1       0.966   9.743  19.716  0.00  0.00    +0.000 A 
BRANCH  25  27
ATOM     27  C   UNL     1       0.043  11.617  21.103  0.00  0.00    +0.000 A 
ATOM     28  C   UNL     1      -0.646  10.760  21.966  0.00  0.00    +0.000 A 
ATOM     29  C   UNL     1      -1.357  11.297  23.035  0.00  0.00    +0.000 A 
ATOM     30  C   UNL     1      -1.376  12.672  23.217  0.00  0.00    +0.000 A 
ATOM     31  C   UNL     1      -0.689  13.458  22.310  0.00  0.00    +0.000 A 
ATOM     32  N   UNL     1       0.013  12.964  21.263  0.00  0.00    +0.000 NA
ENDBRANCH  25  27
ENDBRANCH   2  21
TORSDOF 5
ENDMDL
MODEL 6
REMARK VINA RESULT:      -8.3      2.224      2.732
REMARK  Name = 
REMARK  5 active torsions:
REMARK  status: ('A' for Active; 'I' for Inactive)
REMARK    1  A    between atoms: C_2  and  C_20
REMARK    2  A    between atoms: N_3  and  C_4
REMARK    3  A    between atoms: C_8  and  C_9
REMARK    4  A    between atoms: C_13  and  C_14
REMARK    5  A    between atoms: C_24  and  C_25
REMARK                            x       y       z     vdW  Elec       q    Type
REMARK                         _______ _______ _______ _____ _____    ______ ____
ROOT
ATOM      1  O   UNL     1       1.660   8.931  17.903  0.00  0.00    +0.000 OA
ATOM      2  C   UNL     1       1.789   8.466  19.028  0.00  0.00    +0.000 C 
ATOM      3  N   UNL     1       2.622   7.429  19.376  0.00  0.00    +0.000 N 
ATOM      4  H   UNL     1       2.505   7.024  20.291  0.00  0.00    +0.000 HD
ENDROOT
BRANCH   3   5
ATOM      5  C   UNL     1       3.340   6.649  18.445  0.00  0.00    +0.000 A 
ATOM      6  C   UNL     1       4.109   7.352  17.502  0.00  0.00    +0.000 A 
ATOM      7  C   UNL     1       4.797   6.682  16.508  0.00  0.00    +0.000 A 
ATOM      8  C   UNL     1       4.724   5.301  16.454  0.00  0.00    +0.000 A 
ATOM      9  C   UNL     1       3.948   4.554  17.379  0.00  0.00    +0.000 A 
ATOM     10  C   UNL     1       3.230   5.220  18.424  0.00  0.00    +0.000 A 
BRANCH  10  11
ATOM     11  C   UNL     1       2.483   4.484  19.508  0.00  0.00    +0.000 A 
ATOM     12  C   UNL     1       3.031   4.227  20.778  0.00  0.00    +0.000 A 
ATOM     13  C   UNL     1       2.378   3.428  21.719  0.00  0.00    +0.000 A 
ATOM     14  C   UNL     1       1.117   2.958  21.417  0.00  0.00    +0.000 A 
ATOM     15  N   UNL     1       0.514   3.206  20.241  0.00  0.00    +0.000 NA
ATOM     16  C   UNL     1       1.217   3.919  19.321  0.00  0.00    +0.000 A 
ENDBRANCH  10  11
BRANCH   9  17
ATOM     17  C   UNL     1       3.955   3.052  17.164  0.00  0.00    +0.000 C 
ATOM     18  F   UNL     1       4.858   2.652  16.218  0.00  0.00    +0.000 F 
ATOM     19  F   UNL     1       4.300   2.356  18.282  0.00  0.00    +0.000 F 
ATOM     20  F   UNL     1       2.760   2.558  16.745  0.00  0.00    +0.000 F 
ENDBRANCH   9  17
ENDBRANCH   3   5
BRANCH   2  21
ATOM     21  C   UNL     1       0.981   9.038  20.148  0.00  0.00    +0.000 A 
ATOM     22  C   UNL     1       0.472   8.275  21.203  0.00  0.00    +0.000 A 
ATOM     23  C   UNL     1      -0.284   8.892  22.202  0.00  0.00    +0.000 A 
ATOM     24  C   UNL     1      -0.523  10.270  22.149  0.00  0.00    +0.000 A 
ATOM     25  C   UNL     1       0.001  11.067  21.117  0.00  0.00    +0.000 A 
ATOM     26  C   UNL     1       0.748  10.420  20.118  0.00  0.00    +0.000 A 
BRANCH  25  27
ATOM     27  C   UNL     1      -0.237  12.522  21.067  0.00  0.00    +0.000 A 
ATOM     28  C   UNL     1      -0.876  13.140  19.987  0.00  0.00    +0.000 A 
ATOM     29  C   UNL     1      -1.117  14.509  20.031  0.00  0.00    +0.000 A 
ATOM     30  C   UNL     1      -0.710  15.236  21.140  0.00  0.00    +0.000 A 
ATOM     31  C   UNL     1      -0.064  14.561  22.160  0.00  0.00    +0.000 A 
ATOM     32  N   UNL     1       0.181  13.229  22.146  0.00  0.00    +0.000 NA
ENDBRANCH  25  27
ENDBRANCH   2  21
TORSDOF 5
ENDMDL
MODEL 7
REMARK VINA RESULT:      -8.2      2.389      2.813
REMARK  Name = 
REMARK  5 active torsions:
REMARK  status: ('A' for Active; 'I' for Inactive)
REMARK    1  A    between atoms: C_2  and  C_20
REMARK    2  A    between atoms: N_3  and  C_4
REMARK    3  A    between atoms: C_8  and  C_9
REMARK    4  A    between atoms: C_13  and  C_14
REMARK    5  A    between atoms: C_24  and  C_25
REMARK                            x       y       z     vdW  Elec       q    Type
REMARK                         _______ _______ _______ _____ _____    ______ ____
ROOT
ATOM      1  O   UNL     1       1.737   9.256  18.239  0.00  0.00    +0.000 OA
ATOM      2  C   UNL     1       1.730   8.636  19.294  0.00  0.00    +0.000 C 
ATOM      3  N   UNL     1       2.449   7.494  19.558  0.00  0.00    +0.000 N 
ATOM      4  H   UNL     1       2.221   6.982  20.396  0.00  0.00    +0.000 HD
ENDROOT
BRANCH   3   5
ATOM      5  C   UNL     1       3.189   6.786  18.588  0.00  0.00    +0.000 A 
ATOM      6  C   UNL     1       3.928   7.561  17.678  0.00  0.00    +0.000 A 
ATOM      7  C   UNL     1       4.634   6.966  16.649  0.00  0.00    +0.000 A 
ATOM      8  C   UNL     1       4.607   5.587  16.527  0.00  0.00    +0.000 A 
ATOM      9  C   UNL     1       3.863   4.769  17.416  0.00  0.00    +0.000 A 
ATOM     10  C   UNL     1       3.128   5.357  18.496  0.00  0.00    +0.000 A 
BRANCH  10  11
ATOM     11  C   UNL     1       2.412   4.544  19.545  0.00  0.00    +0.000 A 
ATOM     12  C   UNL     1       2.948   4.297  20.822  0.00  0.00    +0.000 A 
ATOM     13  C   UNL     1       2.334   3.430  21.729  0.00  0.00    +0.000 A 
ATOM     14  C   UNL     1       1.119   2.877  21.385  0.00  0.00    +0.000 A 
ATOM     15  N   UNL     1       0.526   3.107  20.200  0.00  0.00    +0.000 NA
ATOM     16  C   UNL     1       1.196   3.891  19.313  0.00  0.00    +0.000 A 
ENDBRANCH  10  11
BRANCH   9  17
ATOM     17  C   UNL     1       3.921   3.281  17.127  0.00  0.00    +0.000 C 
ATOM     18  F   UNL     1       4.167   2.529  18.242  0.00  0.00    +0.000 F 
ATOM     19  F   UNL     1       2.751   2.789  16.634  0.00  0.00    +0.000 F 
ATOM     20  F   UNL     1       4.896   2.937  16.245  0.00  0.00    +0.000 F 
ENDBRANCH   9  17
ENDBRANCH   3   5
BRANCH   2  21
ATOM     21  C   UNL     1       0.868   9.120  20.416  0.00  0.00    +0.000 A 
ATOM     22  C   UNL     1       0.370   8.289  21.423  0.00  0.00    +0.000 A 
ATOM     23  C   UNL     1      -0.438   8.826  22.427  0.00  0.00    +0.000 A 
ATOM     24  C   UNL     1      -0.741  10.193  22.427  0.00  0.00    +0.000 A 
ATOM     25  C   UNL     1      -0.230  11.057  21.444  0.00  0.00    +0.000 A 
ATOM     26  C   UNL     1       0.571  10.490  20.439  0.00  0.00    +0.000 A 
BRANCH  25  27
ATOM     27  C   UNL     1      -0.535  12.501  21.449  0.00  0.00    +0.000 A 
ATOM     28  C   UNL     1      -0.842  13.197  22.623  0.00  0.00    +0.000 A 
ATOM     29  C   UNL     1      -1.064  14.568  22.563  0.00  0.00    +0.000 A 
ATOM     30  C   UNL     1      -0.987  15.217  21.339  0.00  0.00    +0.000 A 
ATOM     31  C   UNL     1      -0.701  14.460  20.218  0.00  0.00    +0.000 A 
ATOM     32  N   UNL     1      -0.476  13.125  20.246  0.00  0.00    +0.000 NA
ENDBRANCH  25  27
ENDBRANCH   2  21
TORSDOF 5
ENDMDL
MODEL 8
REMARK VINA RESULT:      -8.2      2.669      3.137
REMARK  Name = 
REMARK  5 active torsions:
REMARK  status: ('A' for Active; 'I' for Inactive)
REMARK    1  A    between atoms: C_2  and  C_20
REMARK    2  A    between atoms: N_3  and  C_4
REMARK    3  A    between atoms: C_8  and  C_9
REMARK    4  A    between atoms: C_13  and  C_14
REMARK    5  A    between atoms: C_24  and  C_25
REMARK                            x       y       z     vdW  Elec       q    Type
REMARK                         _______ _______ _______ _____ _____    ______ ____
ROOT
ATOM      1  O   UNL     1       1.754   9.166  18.370  0.00  0.00    +0.000 OA
ATOM      2  C   UNL     1       1.769   8.525  19.412  0.00  0.00    +0.000 C 
ATOM      3  N   UNL     1       2.513   7.392  19.646  0.00  0.00    +0.000 N 
ATOM      4  H   UNL     1       2.303   6.860  20.475  0.00  0.00    +0.000 HD
ENDROOT
BRANCH   3   5
ATOM      5  C   UNL     1       3.255   6.718  18.654  0.00  0.00    +0.000 A 
ATOM      6  C   UNL     1       3.974   7.524  17.756  0.00  0.00    +0.000 A 
ATOM      7  C   UNL     1       4.680   6.962  16.708  0.00  0.00    +0.000 A 
ATOM      8  C   UNL     1       4.673   5.587  16.555  0.00  0.00    +0.000 A 
ATOM      9  C   UNL     1       3.948   4.737  17.432  0.00  0.00    +0.000 A 
ATOM     10  C   UNL     1       3.214   5.290  18.530  0.00  0.00    +0.000 A 
BRANCH  10  11
ATOM     11  C   UNL     1       2.519   4.443  19.567  0.00  0.00    +0.000 A 
ATOM     12  C   UNL     1       1.258   3.858  19.359  0.00  0.00    +0.000 A 
ATOM     13  C   UNL     1       0.572   3.192  20.378  0.00  0.00    +0.000 A 
ATOM     14  C   UNL     1       1.201   3.032  21.594  0.00  0.00    +0.000 A 
ATOM     15  N   UNL     1       2.428   3.524  21.846  0.00  0.00    +0.000 NA
ATOM     16  C   UNL     1       3.027   4.236  20.854  0.00  0.00    +0.000 A 
ENDBRANCH  10  11
BRANCH   9  17
ATOM     17  C   UNL     1       4.026   3.257  17.109  0.00  0.00    +0.000 C 
ATOM     18  F   UNL     1       2.846   2.750  16.640  0.00  0.00    +0.000 F 
ATOM     19  F   UNL     1       4.933   2.972  16.134  0.00  0.00    +0.000 F 
ATOM     20  F   UNL     1       4.343   2.484  18.181  0.00  0.00    +0.000 F 
ENDBRANCH   9  17
ENDBRANCH   3   5
BRANCH   2  21
ATOM     21  C   UNL     1       0.912   8.971  20.553  0.00  0.00    +0.000 A 
ATOM     22  C   UNL     1       0.323   8.094  21.467  0.00  0.00    +0.000 A 
ATOM     23  C   UNL     1      -0.475   8.599  22.496  0.00  0.00    +0.000 A 
ATOM     24  C   UNL     1      -0.676   9.980  22.614  0.00  0.00    +0.000 A 
ATOM     25  C   UNL     1      -0.072  10.887  21.727  0.00  0.00    +0.000 A 
ATOM     26  C   UNL     1       0.716  10.352  20.694  0.00  0.00    +0.000 A 
BRANCH  25  27
ATOM     27  C   UNL     1      -0.269  12.344  21.858  0.00  0.00    +0.000 A 
ATOM     28  C   UNL     1      -0.015  13.231  20.808  0.00  0.00    +0.000 A 
ATOM     29  C   UNL     1      -0.275  14.586  20.983  0.00  0.00    +0.000 A 
ATOM     30  C   UNL     1      -0.773  15.031  22.198  0.00  0.00    +0.000 A 
ATOM     31  C   UNL     1      -0.979  14.098  23.198  0.00  0.00    +0.000 A 
ATOM     32  N   UNL     1      -0.738  12.773  23.056  0.00  0.00    +0.000 NA
ENDBRANCH  25  27
ENDBRANCH   2  21
TORSDOF 5
ENDMDL
MODEL 9
REMARK VINA RESULT:      -8.2      5.727      9.928
REMARK  Name = 
REMARK  5 active torsions:
REMARK  status: ('A' for Active; 'I' for Inactive)
REMARK    1  A    between atoms: C_2  and  C_20
REMARK    2  A    between atoms: N_3  and  C_4
REMARK    3  A    between atoms: C_8  and  C_9
REMARK    4  A    between atoms: C_13  and  C_14
REMARK    5  A    between atoms: C_24  and  C_25
REMARK                            x       y       z     vdW  Elec       q    Type
REMARK                         _______ _______ _______ _____ _____    ______ ____
ROOT
ATOM      1  O   UNL     1       1.431   9.611  22.304  0.00  0.00    +0.000 OA
ATOM      2  C   UNL     1       1.113   9.853  21.148  0.00  0.00    +0.000 C 
ATOM      3  N   UNL     1       0.375  10.935  20.728  0.00  0.00    +0.000 N 
ATOM      4  H   UNL     1       0.030  10.926  19.782  0.00  0.00    +0.000 HD
ENDROOT
BRANCH   3   5
ATOM      5  C   UNL     1      -0.253  11.847  21.602  0.00  0.00    +0.000 A 
ATOM      6  C   UNL     1      -1.236  11.319  22.456  0.00  0.00    +0.000 A 
ATOM      7  C   UNL     1      -1.955  12.141  23.303  0.00  0.00    +0.000 A 
ATOM      8  C   UNL     1      -1.690  13.500  23.305  0.00  0.00    +0.000 A 
ATOM      9  C   UNL     1      -0.715  14.076  22.448  0.00  0.00    +0.000 A 
ATOM     10  C   UNL     1       0.050  13.248  21.565  0.00  0.00    +0.000 A 
BRANCH  10  11
ATOM     11  C   UNL     1       1.179  13.774  20.715  0.00  0.00    +0.000 A 
ATOM     12  C   UNL     1       1.005  14.205  19.388  0.00  0.00    +0.000 A 
ATOM     13  C   UNL     1       2.084  14.559  18.574  0.00  0.00    +0.000 A 
ATOM     14  C   UNL     1       3.346  14.569  19.129  0.00  0.00    +0.000 A 
ATOM     15  N   UNL     1       3.579  14.214  20.406  0.00  0.00    +0.000 NA
ATOM     16  C   UNL     1       2.513  13.798  21.139  0.00  0.00    +0.000 A 
ENDBRANCH  10  11
BRANCH   9  17
ATOM     17  C   UNL     1      -0.568  15.582  22.557  0.00  0.00    +0.000 C 
ATOM     18  F   UNL     1      -0.812  16.229  21.378  0.00  0.00    +0.000 F 
ATOM     19  F   UNL     1      -1.440  16.139  23.441  0.00  0.00    +0.000 F 
ATOM     20  F   UNL     1       0.678  15.979  22.929  0.00  0.00    +0.000 F 
ENDBRANCH   9  17
ENDBRANCH   3   5
BRANCH   2  21
ATOM     21  C   UNL     1       1.532   8.910  20.066  0.00  0.00    +0.000 A 
ATOM     22  C   UNL     1       1.624   9.269  18.719  0.00  0.00    +0.000 A 
ATOM     23  C   UNL     1       2.013   8.318  17.773  0.00  0.00    +0.000 A 
ATOM     24  C   UNL     1       2.316   7.012  18.176  0.00  0.00    +0.000 A 
ATOM     25  C   UNL     1       2.261   6.631  19.528  0.00  0.00    +0.000 A 
ATOM     26  C   UNL     1       1.856   7.603  20.457  0.00  0.00    +0.000 A 
BRANCH  25  27
ATOM     27  C   UNL     1       2.596   5.259  19.958  0.00  0.00    +0.000 A 
ATOM     28  C   UNL     1       1.878   4.591  20.954  0.00  0.00    +0.000 A 
ATOM     29  C   UNL     1       2.212   3.279  21.271  0.00  0.00    +0.000 A 
ATOM     30  C   UNL     1       3.259   2.663  20.600  0.00  0.00    +0.000 A 
ATOM     31  C   UNL     1       3.937   3.394  19.642  0.00  0.00    +0.000 A 
ATOM     32  N   UNL     1       3.632   4.670  19.310  0.00  0.00    +0.000 NA
ENDBRANCH  25  27
ENDBRANCH   2  21
TORSDOF 5
ENDMDL
