MODEL 1
REMARK VINA RESULT:      -7.2      0.000      0.000
REMARK  Name = 
REMARK  3 active torsions:
REMARK  status: ('A' for Active; 'I' for Inactive)
REMARK    1  A    between atoms: O_1  and  N_2
REMARK    2  A    between atoms: C_5  and  C_6
REMARK    3  A    between atoms: C_13  and  C_14
REMARK                            x       y       z     vdW  Elec       q    Type
REMARK                         _______ _______ _______ _____ _____    ______ ____
ROOT
ATOM      1  N   UNL     1       3.370   2.453  21.437  0.00  0.00    +0.000 NA
ATOM      2  C   UNL     1       2.909   2.311  20.226  0.00  0.00    +0.000 C 
ATOM      3  C   UNL     1       1.484   2.616  19.804  0.00  0.00    +0.000 C 
ATOM      4  C   UNL     1       1.409   3.632  18.665  0.00  0.00    +0.000 C 
ATOM      5  S   UNL     1       2.296   2.984  17.196  0.00  0.00    +0.000 S 
ATOM      6  C   UNL     1       3.963   2.609  17.905  0.00  0.00    +0.000 C 
ATOM      7  C   UNL     1       3.850   1.759  19.176  0.00  0.00    +0.000 C 
ENDROOT
BRANCH   4   8
ATOM      8  C   UNL     1       1.717   5.089  18.986  0.00  0.00    +0.000 A 
ATOM      9  C   UNL     1       1.606   5.642  20.270  0.00  0.00    +0.000 A 
ATOM     10  C   UNL     1       1.916   6.977  20.533  0.00  0.00    +0.000 A 
ATOM     11  C   UNL     1       2.315   7.810  19.498  0.00  0.00    +0.000 A 
ATOM     12  C   UNL     1       2.401   7.302  18.206  0.00  0.00    +0.000 A 
ATOM     13  C   UNL     1       2.111   5.956  17.952  0.00  0.00    +0.000 A 
ENDBRANCH   4   8
BRANCH   6  14
ATOM     14  C   UNL     1       4.843   3.853  17.904  0.00  0.00    +0.000 A 
ATOM     15  C   UNL     1       5.384   4.428  19.060  0.00  0.00    +0.000 A 
ATOM     16  C   UNL     1       6.049   5.660  19.000  0.00  0.00    +0.000 A 
ATOM     17  C   UNL     1       6.225   6.310  17.780  0.00  0.00    +0.000 A 
ATOM     18  C   UNL     1       5.779   5.708  16.610  0.00  0.00    +0.000 A 
ATOM     19  C   UNL     1       5.108   4.487  16.672  0.00  0.00    +0.000 A 
ENDBRANCH   6  14
BRANCH   1  20
ATOM     20  O   UNL     1       2.395   2.957  22.308  0.00  0.00    +0.000 OA
ATOM     21  H   UNL     1       1.567   2.589  21.943  0.00  0.00    +0.000 HD
ENDBRANCH   1  20
TORSDOF 3
ENDMDL
MODEL 2
REMARK VINA RESULT:      -7.2      0.076      1.073
REMARK  Name = 
REMARK  3 active torsions:
REMARK  status: ('A' for Active; 'I' for Inactive)
REMARK    1  A    between atoms: O_1  and  N_2
REMARK    2  A    between atoms: C_5  and  C_6
REMARK    3  A    between atoms: C_13  and  C_14
REMARK                            x       y       z     vdW  Elec       q    Type
REMARK                         _______ _______ _______ _____ _____    ______ ____
ROOT
ATOM      1  N   UNL     1       3.390   2.461  21.425  0.00  0.00    +0.000 NA
ATOM      2  C   UNL     1       2.924   2.316  20.216  0.00  0.00    +0.000 C 
ATOM      3  C   UNL     1       1.495   2.613  19.802  0.00  0.00    +0.000 C 
ATOM      4  C   UNL     1       1.410   3.628  18.662  0.00  0.00    +0.000 C 
ATOM      5  S   UNL     1       2.293   2.983  17.190  0.00  0.00    +0.000 S 
ATOM      6  C   UNL     1       3.966   2.618  17.891  0.00  0.00    +0.000 C 
ATOM      7  C   UNL     1       3.863   1.768  19.162  0.00  0.00    +0.000 C 
ENDROOT
BRANCH   4   8
ATOM      8  C   UNL     1       1.711   5.087  18.981  0.00  0.00    +0.000 A 
ATOM      9  C   UNL     1       2.155   6.015  18.029  0.00  0.00    +0.000 A 
ATOM     10  C   UNL     1       2.403   7.350  18.352  0.00  0.00    +0.000 A 
ATOM     11  C   UNL     1       2.242   7.785  19.659  0.00  0.00    +0.000 A 
ATOM     12  C   UNL     1       1.836   6.881  20.636  0.00  0.00    +0.000 A 
ATOM     13  C   UNL     1       1.569   5.549  20.302  0.00  0.00    +0.000 A 
ENDBRANCH   4   8
BRANCH   6  14
ATOM     14  C   UNL     1       4.838   3.866  17.885  0.00  0.00    +0.000 A 
ATOM     15  C   UNL     1       5.401   4.432  19.035  0.00  0.00    +0.000 A 
ATOM     16  C   UNL     1       6.059   5.668  18.975  0.00  0.00    +0.000 A 
ATOM     17  C   UNL     1       6.204   6.332  17.759  0.00  0.00    +0.000 A 
ATOM     18  C   UNL     1       5.736   5.741  16.592  0.00  0.00    +0.000 A 
ATOM     19  C   UNL     1       5.073   4.516  16.655  0.00  0.00    +0.000 A 
ENDBRANCH   6  14
BRANCH   1  20
ATOM     20  O   UNL     1       2.416   2.960  22.301  0.00  0.00    +0.000 OA
ATOM     21  H   UNL     1       2.385   2.281  23.001  0.00  0.00    +0.000 HD
ENDBRANCH   1  20
TORSDOF 3
ENDMDL
MODEL 3
REMARK VINA RESULT:      -7.0      0.213      1.094
REMARK  Name = 
REMARK  3 active torsions:
REMARK  status: ('A' for Active; 'I' for Inactive)
REMARK    1  A    between atoms: O_1  and  N_2
REMARK    2  A    between atoms: C_5  and  C_6
REMARK    3  A    between atoms: C_13  and  C_14
REMARK                            x       y       z     vdW  Elec       q    Type
REMARK                         _______ _______ _______ _____ _____    ______ ____
ROOT
ATOM      1  N   UNL     1       3.382   2.502  21.447  0.00  0.00    +0.000 NA
ATOM      2  C   UNL     1       2.936   2.359  20.231  0.00  0.00    +0.000 C 
ATOM      3  C   UNL     1       1.513   2.652  19.794  0.00  0.00    +0.000 C 
ATOM      4  C   UNL     1       1.442   3.671  18.658  0.00  0.00    +0.000 C 
ATOM      5  S   UNL     1       2.351   3.035  17.197  0.00  0.00    +0.000 S 
ATOM      6  C   UNL     1       4.014   2.674  17.923  0.00  0.00    +0.000 C 
ATOM      7  C   UNL     1       3.894   1.819  19.190  0.00  0.00    +0.000 C 
ENDROOT
BRANCH   4   8
ATOM      8  C   UNL     1       1.732   5.130  18.987  0.00  0.00    +0.000 A 
ATOM      9  C   UNL     1       1.596   5.678  20.269  0.00  0.00    +0.000 A 
ATOM     10  C   UNL     1       1.890   7.016  20.541  0.00  0.00    +0.000 A 
ATOM     11  C   UNL     1       2.299   7.854  19.514  0.00  0.00    +0.000 A 
ATOM     12  C   UNL     1       2.410   7.349  18.222  0.00  0.00    +0.000 A 
ATOM     13  C   UNL     1       2.135   6.002  17.961  0.00  0.00    +0.000 A 
ENDBRANCH   4   8
BRANCH   6  14
ATOM     14  C   UNL     1       4.881   3.926  17.936  0.00  0.00    +0.000 A 
ATOM     15  C   UNL     1       5.259   4.627  16.784  0.00  0.00    +0.000 A 
ATOM     16  C   UNL     1       6.186   5.674  16.858  0.00  0.00    +0.000 A 
ATOM     17  C   UNL     1       6.714   6.066  18.086  0.00  0.00    +0.000 A 
ATOM     18  C   UNL     1       6.278   5.446  19.251  0.00  0.00    +0.000 A 
ATOM     19  C   UNL     1       5.363   4.397  19.175  0.00  0.00    +0.000 A 
ENDBRANCH   6  14
BRANCH   1  20
ATOM     20  O   UNL     1       2.393   2.993  22.309  0.00  0.00    +0.000 OA
ATOM     21  H   UNL     1       1.750   3.396  21.695  0.00  0.00    +0.000 HD
ENDBRANCH   1  20
TORSDOF 3
ENDMDL
MODEL 4
REMARK VINA RESULT:      -7.0      0.228      1.531
REMARK  Name = 
REMARK  3 active torsions:
REMARK  status: ('A' for Active; 'I' for Inactive)
REMARK    1  A    between atoms: O_1  and  N_2
REMARK    2  A    between atoms: C_5  and  C_6
REMARK    3  A    between atoms: C_13  and  C_14
REMARK                            x       y       z     vdW  Elec       q    Type
REMARK                         _______ _______ _______ _____ _____    ______ ____
ROOT
ATOM      1  N   UNL     1       3.384   2.498  21.428  0.00  0.00    +0.000 NA
ATOM      2  C   UNL     1       2.936   2.365  20.211  0.00  0.00    +0.000 C 
ATOM      3  C   UNL     1       1.510   2.656  19.781  0.00  0.00    +0.000 C 
ATOM      4  C   UNL     1       1.432   3.684  18.653  0.00  0.00    +0.000 C 
ATOM      5  S   UNL     1       2.340   3.065  17.185  0.00  0.00    +0.000 S 
ATOM      6  C   UNL     1       4.006   2.705  17.904  0.00  0.00    +0.000 C 
ATOM      7  C   UNL     1       3.893   1.837  19.163  0.00  0.00    +0.000 C 
ENDROOT
BRANCH   4   8
ATOM      8  C   UNL     1       1.717   5.141  18.995  0.00  0.00    +0.000 A 
ATOM      9  C   UNL     1       2.199   6.076  18.069  0.00  0.00    +0.000 A 
ATOM     10  C   UNL     1       2.430   7.410  18.410  0.00  0.00    +0.000 A 
ATOM     11  C   UNL     1       2.214   7.835  19.713  0.00  0.00    +0.000 A 
ATOM     12  C   UNL     1       1.769   6.924  20.666  0.00  0.00    +0.000 A 
ATOM     13  C   UNL     1       1.518   5.593  20.311  0.00  0.00    +0.000 A 
ENDBRANCH   4   8
BRANCH   6  14
ATOM     14  C   UNL     1       4.868   3.960  17.926  0.00  0.00    +0.000 A 
ATOM     15  C   UNL     1       5.217   4.688  16.782  0.00  0.00    +0.000 A 
ATOM     16  C   UNL     1       6.142   5.737  16.858  0.00  0.00    +0.000 A 
ATOM     17  C   UNL     1       6.695   6.104  18.083  0.00  0.00    +0.000 A 
ATOM     18  C   UNL     1       6.288   5.456  19.243  0.00  0.00    +0.000 A 
ATOM     19  C   UNL     1       5.375   4.405  19.164  0.00  0.00    +0.000 A 
ENDBRANCH   6  14
BRANCH   1  20
ATOM     20  O   UNL     1       2.395   2.978  22.296  0.00  0.00    +0.000 OA
ATOM     21  H   UNL     1       2.876   3.638  22.831  0.00  0.00    +0.000 HD
ENDBRANCH   1  20
TORSDOF 3
ENDMDL
MODEL 5
REMARK VINA RESULT:      -5.6     10.105     11.702
REMARK  Name = 
REMARK  3 active torsions:
REMARK  status: ('A' for Active; 'I' for Inactive)
REMARK    1  A    between atoms: O_1  and  N_2
REMARK    2  A    between atoms: C_5  and  C_6
REMARK    3  A    between atoms: C_13  and  C_14
REMARK                            x       y       z     vdW  Elec       q    Type
REMARK                         _______ _______ _______ _____ _____    ______ ____
ROOT
ATOM      1  N   UNL     1       9.692  10.527  19.497  0.00  0.00    +0.000 NA
ATOM      2  C   UNL     1      10.582  11.346  19.010  0.00  0.00    +0.000 C 
ATOM      3  C   UNL     1      10.651  11.781  17.559  0.00  0.00    +0.000 C 
ATOM      4  C   UNL     1      10.590  13.299  17.393  0.00  0.00    +0.000 C 
ATOM      5  S   UNL     1      11.999  14.076  18.272  0.00  0.00    +0.000 S 
ATOM      6  C   UNL     1      11.795  13.389  19.979  0.00  0.00    +0.000 C 
ATOM      7  C   UNL     1      11.650  11.863  19.951  0.00  0.00    +0.000 C 
ENDROOT
BRANCH   4   8
ATOM      8  C   UNL     1       9.252  13.989  17.625  0.00  0.00    +0.000 A 
ATOM      9  C   UNL     1       8.014  13.342  17.512  0.00  0.00    +0.000 A 
ATOM     10  C   UNL     1       6.806  14.001  17.752  0.00  0.00    +0.000 A 
ATOM     11  C   UNL     1       6.809  15.348  18.081  0.00  0.00    +0.000 A 
ATOM     12  C   UNL     1       8.020  16.029  18.167  0.00  0.00    +0.000 A 
ATOM     13  C   UNL     1       9.228  15.358  17.947  0.00  0.00    +0.000 A 
ENDBRANCH   4   8
BRANCH   6  14
ATOM     14  C   UNL     1      10.812  14.227  20.784  0.00  0.00    +0.000 A 
ATOM     15  C   UNL     1       9.605  13.737  21.299  0.00  0.00    +0.000 A 
ATOM     16  C   UNL     1       8.678  14.604  21.892  0.00  0.00    +0.000 A 
ATOM     17  C   UNL     1       8.962  15.962  22.021  0.00  0.00    +0.000 A 
ATOM     18  C   UNL     1      10.194  16.450  21.603  0.00  0.00    +0.000 A 
ATOM     19  C   UNL     1      11.112  15.588  21.004  0.00  0.00    +0.000 A 
ENDBRANCH   6  14
BRANCH   1  20
ATOM     20  O   UNL     1       8.777  10.115  18.520  0.00  0.00    +0.000 OA
ATOM     21  H   UNL     1       7.972  10.616  18.751  0.00  0.00    +0.000 HD
ENDBRANCH   1  20
TORSDOF 3
ENDMDL
MODEL 6
REMARK VINA RESULT:      -5.5      9.797     11.344
REMARK  Name = 
REMARK  3 active torsions:
REMARK  status: ('A' for Active; 'I' for Inactive)
REMARK    1  A    between atoms: O_1  and  N_2
REMARK    2  A    between atoms: C_5  and  C_6
REMARK    3  A    between atoms: C_13  and  C_14
REMARK                            x       y       z     vdW  Elec       q    Type
REMARK                         _______ _______ _______ _____ _____    ______ ____
ROOT
ATOM      1  N   UNL     1       9.233  10.281  19.294  0.00  0.00    +0.000 NA
ATOM      2  C   UNL     1      10.197  11.118  19.032  0.00  0.00    +0.000 C 
ATOM      3  C   UNL     1      10.492  11.692  17.659  0.00  0.00    +0.000 C 
ATOM      4  C   UNL     1      10.478  13.220  17.642  0.00  0.00    +0.000 C 
ATOM      5  S   UNL     1      11.748  13.865  18.797  0.00  0.00    +0.000 S 
ATOM      6  C   UNL     1      11.278  13.020  20.375  0.00  0.00    +0.000 C 
ATOM      7  C   UNL     1      11.117  11.509  20.170  0.00  0.00    +0.000 C 
ENDROOT
BRANCH   4   8
ATOM      8  C   UNL     1       9.130  13.923  17.740  0.00  0.00    +0.000 A 
ATOM      9  C   UNL     1       8.981  15.271  18.093  0.00  0.00    +0.000 A 
ATOM     10  C   UNL     1       7.731  15.890  18.154  0.00  0.00    +0.000 A 
ATOM     11  C   UNL     1       6.584  15.154  17.893  0.00  0.00    +0.000 A 
ATOM     12  C   UNL     1       6.695  13.804  17.575  0.00  0.00    +0.000 A 
ATOM     13  C   UNL     1       7.952  13.195  17.494  0.00  0.00    +0.000 A 
ENDBRANCH   4   8
BRANCH   6  14
ATOM     14  C   UNL     1      10.195  13.803  21.105  0.00  0.00    +0.000 A 
ATOM     15  C   UNL     1       8.916  13.302  21.375  0.00  0.00    +0.000 A 
ATOM     16  C   UNL     1       7.922  14.133  21.908  0.00  0.00    +0.000 A 
ATOM     17  C   UNL     1       8.204  15.461  22.222  0.00  0.00    +0.000 A 
ATOM     18  C   UNL     1       9.493  15.949  22.051  0.00  0.00    +0.000 A 
ATOM     19  C   UNL     1      10.479  15.124  21.511  0.00  0.00    +0.000 A 
ENDBRANCH   6  14
BRANCH   1  20
ATOM     20  O   UNL     1       8.471   9.994  18.154  0.00  0.00    +0.000 OA
ATOM     21  H   UNL     1       7.619  10.431  18.346  0.00  0.00    +0.000 HD
ENDBRANCH   1  20
TORSDOF 3
ENDMDL
MODEL 7
REMARK VINA RESULT:      -5.5      9.949     11.507
REMARK  Name = 
REMARK  3 active torsions:
REMARK  status: ('A' for Active; 'I' for Inactive)
REMARK    1  A    between atoms: O_1  and  N_2
REMARK    2  A    between atoms: C_5  and  C_6
REMARK    3  A    between atoms: C_13  and  C_14
REMARK                            x       y       z     vdW  Elec       q    Type
REMARK                         _______ _______ _______ _____ _____    ______ ____
ROOT
ATOM      1  N   UNL     1       9.533  10.377  19.467  0.00  0.00    +0.000 NA
ATOM      2  C   UNL     1      10.445  11.205  19.042  0.00  0.00    +0.000 C 
ATOM      3  C   UNL     1      10.582  11.675  17.606  0.00  0.00    +0.000 C 
ATOM      4  C   UNL     1      10.531  13.197  17.475  0.00  0.00    +0.000 C 
ATOM      5  S   UNL     1      11.900  13.947  18.437  0.00  0.00    +0.000 S 
ATOM      6  C   UNL     1      11.617  13.220  20.115  0.00  0.00    +0.000 C 
ATOM      7  C   UNL     1      11.471  11.695  20.042  0.00  0.00    +0.000 C 
ENDROOT
BRANCH   4   8
ATOM      8  C   UNL     1       9.186  13.885  17.663  0.00  0.00    +0.000 A 
ATOM      9  C   UNL     1       7.953  13.243  17.486  0.00  0.00    +0.000 A 
ATOM     10  C   UNL     1       6.737  13.899  17.686  0.00  0.00    +0.000 A 
ATOM     11  C   UNL     1       6.727  15.240  18.041  0.00  0.00    +0.000 A 
ATOM     12  C   UNL     1       7.933  15.917  18.190  0.00  0.00    +0.000 A 
ATOM     13  C   UNL     1       9.149  15.248  18.009  0.00  0.00    +0.000 A 
ENDBRANCH   4   8
BRANCH   6  14
ATOM     14  C   UNL     1      10.600  14.041  20.895  0.00  0.00    +0.000 A 
ATOM     15  C   UNL     1      10.758  15.399  21.197  0.00  0.00    +0.000 A 
ATOM     16  C   UNL     1       9.859  16.049  22.053  0.00  0.00    +0.000 A 
ATOM     17  C   UNL     1       8.766  15.366  22.582  0.00  0.00    +0.000 A 
ATOM     18  C   UNL     1       8.540  14.044  22.218  0.00  0.00    +0.000 A 
ATOM     19  C   UNL     1       9.440  13.395  21.374  0.00  0.00    +0.000 A 
ENDBRANCH   6  14
BRANCH   1  20
ATOM     20  O   UNL     1       8.662   9.991  18.439  0.00  0.00    +0.000 OA
ATOM     21  H   UNL     1       9.212   9.390  17.902  0.00  0.00    +0.000 HD
ENDBRANCH   1  20
TORSDOF 3
ENDMDL
MODEL 8
REMARK VINA RESULT:      -5.4     10.240     11.964
REMARK  Name = 
REMARK  3 active torsions:
REMARK  status: ('A' for Active; 'I' for Inactive)
REMARK    1  A    between atoms: O_1  and  N_2
REMARK    2  A    between atoms: C_5  and  C_6
REMARK    3  A    between atoms: C_13  and  C_14
REMARK                            x       y       z     vdW  Elec       q    Type
REMARK                         _______ _______ _______ _____ _____    ______ ____
ROOT
ATOM      1  N   UNL     1      10.031  10.738  19.870  0.00  0.00    +0.000 NA
ATOM      2  C   UNL     1      10.888  11.397  19.142  0.00  0.00    +0.000 C 
ATOM      3  C   UNL     1      10.785  11.578  17.640  0.00  0.00    +0.000 C 
ATOM      4  C   UNL     1      10.780  13.048  17.220  0.00  0.00    +0.000 C 
ATOM      5  S   UNL     1      12.332  13.855  17.771  0.00  0.00    +0.000 S 
ATOM      6  C   UNL     1      12.323  13.479  19.582  0.00  0.00    +0.000 C 
ATOM      7  C   UNL     1      12.098  11.984  19.840  0.00  0.00    +0.000 C 
ENDROOT
BRANCH   4   8
ATOM      8  C   UNL     1       9.523  13.863  17.491  0.00  0.00    +0.000 A 
ATOM      9  C   UNL     1       9.528  15.245  17.726  0.00  0.00    +0.000 A 
ATOM     10  C   UNL     1       8.354  15.966  17.951  0.00  0.00    +0.000 A 
ATOM     11  C   UNL     1       7.134  15.305  17.980  0.00  0.00    +0.000 A 
ATOM     12  C   UNL     1       7.097  13.928  17.787  0.00  0.00    +0.000 A 
ATOM     13  C   UNL     1       8.276  13.215  17.540  0.00  0.00    +0.000 A 
ENDBRANCH   4   8
BRANCH   6  14
ATOM     14  C   UNL     1      11.501  14.509  20.344  0.00  0.00    +0.000 A 
ATOM     15  C   UNL     1      11.782  15.881  20.355  0.00  0.00    +0.000 A 
ATOM     16  C   UNL     1      11.080  16.747  21.203  0.00  0.00    +0.000 A 
ATOM     17  C   UNL     1      10.058  16.264  22.018  0.00  0.00    +0.000 A 
ATOM     18  C   UNL     1       9.700  14.923  21.950  0.00  0.00    +0.000 A 
ATOM     19  C   UNL     1      10.406  14.060  21.113  0.00  0.00    +0.000 A 
ENDBRANCH   6  14
BRANCH   1  20
ATOM     20  O   UNL     1       8.973  10.237  19.100  0.00  0.00    +0.000 OA
ATOM     21  H   UNL     1       8.522  11.048  18.797  0.00  0.00    +0.000 HD
ENDBRANCH   1  20
TORSDOF 3
ENDMDL
MODEL 9
REMARK VINA RESULT:      -5.4      2.991      4.702
REMARK  Name = 
REMARK  3 active torsions:
REMARK  status: ('A' for Active; 'I' for Inactive)
REMARK    1  A    between atoms: O_1  and  N_2
REMARK    2  A    between atoms: C_5  and  C_6
REMARK    3  A    between atoms: C_13  and  C_14
REMARK                            x       y       z     vdW  Elec       q    Type
REMARK                         _______ _______ _______ _____ _____    ______ ____
ROOT
ATOM      1  N   UNL     1       5.100   5.563  14.855  0.00  0.00    +0.000 NA
ATOM      2  C   UNL     1       5.662   5.208  15.977  0.00  0.00    +0.000 C 
ATOM      3  C   UNL     1       6.285   6.169  16.972  0.00  0.00    +0.000 C 
ATOM      4  C   UNL     1       5.679   6.047  18.369  0.00  0.00    +0.000 C 
ATOM      5  S   UNL     1       5.931   4.346  19.008  0.00  0.00    +0.000 S 
ATOM      6  C   UNL     1       5.184   3.327  17.656  0.00  0.00    +0.000 C 
ATOM      7  C   UNL     1       5.741   3.727  16.285  0.00  0.00    +0.000 C 
ENDROOT
BRANCH   4   8
ATOM      8  C   UNL     1       4.274   6.594  18.589  0.00  0.00    +0.000 A 
ATOM      9  C   UNL     1       3.672   7.545  17.754  0.00  0.00    +0.000 A 
ATOM     10  C   UNL     1       2.374   8.011  17.973  0.00  0.00    +0.000 A 
ATOM     11  C   UNL     1       1.653   7.554  19.067  0.00  0.00    +0.000 A 
ATOM     12  C   UNL     1       2.235   6.637  19.935  0.00  0.00    +0.000 A 
ATOM     13  C   UNL     1       3.528   6.157  19.698  0.00  0.00    +0.000 A 
ENDBRANCH   4   8
BRANCH   6  14
ATOM     14  C   UNL     1       3.679   3.192  17.850  0.00  0.00    +0.000 A 
ATOM     15  C   UNL     1       2.730   3.940  17.142  0.00  0.00    +0.000 A 
ATOM     16  C   UNL     1       1.373   3.877  17.485  0.00  0.00    +0.000 A 
ATOM     17  C   UNL     1       0.939   3.035  18.507  0.00  0.00    +0.000 A 
ATOM     18  C   UNL     1       1.854   2.215  19.156  0.00  0.00    +0.000 A 
ATOM     19  C   UNL     1       3.206   2.285  18.821  0.00  0.00    +0.000 A 
ENDBRANCH   6  14
BRANCH   1  20
ATOM     20  O   UNL     1       5.108   6.954  14.688  0.00  0.00    +0.000 OA
ATOM     21  H   UNL     1       4.201   7.141  14.382  0.00  0.00    +0.000 HD
ENDBRANCH   1  20
TORSDOF 3
ENDMDL
