MODEL 1
REMARK VINA RESULT:      -8.3      0.000      0.000
REMARK  Name = 
REMARK  5 active torsions:
REMARK  status: ('A' for Active; 'I' for Inactive)
REMARK    1  A    between atoms: C_14  and  N_15
REMARK    2  A    between atoms: N_15  and  C_16
REMARK    3  A    between atoms: C_16  and  C_17
REMARK    4  A    between atoms: C_19  and  O_20
REMARK    5  A    between atoms: C_21  and  C_22
REMARK                            x       y       z     vdW  Elec       q    Type
REMARK                         _______ _______ _______ _____ _____    ______ ____
ROOT
ATOM      1  N   UNL     1       1.714   8.166  20.343  0.00  0.00    +0.000 N 
ATOM      2  H   UNL     1       2.569   8.730  20.474  0.00  0.00    +0.000 HD
ENDROOT
BRANCH   1  16
ATOM      3  O   UNL     1       1.614  10.411  21.927  0.00  0.00    +0.000 OA
ATOM      4  C   UNL     1       0.503  10.569  21.434  0.00  0.00    +0.000 C 
ATOM      5  N   UNL     1      -0.427  11.363  22.050  0.00  0.00    +0.000 N 
ATOM      6  C   UNL     1      -1.504  11.968  21.459  0.00  0.00    +0.000 C 
ATOM      7  O   UNL     1      -2.137  12.846  22.037  0.00  0.00    +0.000 OA
ATOM      8  C   UNL     1      -1.840  11.560  20.076  0.00  0.00    +0.000 A 
ATOM      9  C   UNL     1      -2.903  12.209  19.429  0.00  0.00    +0.000 A 
ATOM     10  C   UNL     1      -3.238  11.868  18.120  0.00  0.00    +0.000 A 
ATOM     11  C   UNL     1      -2.507  10.882  17.463  0.00  0.00    +0.000 A 
ATOM     12  I   UNL     1      -2.999  10.372  15.508  0.00  0.00    +0.000 I 
ATOM     13  C   UNL     1      -1.442  10.237  18.103  0.00  0.00    +0.000 A 
ATOM     14  C   UNL     1      -1.097  10.561  19.428  0.00  0.00    +0.000 A 
ATOM     15  C   UNL     1       0.046   9.947  20.146  0.00  0.00    +0.000 C 
ATOM     16  C   UNL     1       0.652   8.809  19.757  0.00  0.00    +0.000 C 
ATOM     17  H   UNL     1      -0.144  11.748  22.938  0.00  0.00    +0.000 HD
ENDBRANCH   1  16
BRANCH   1  18
ATOM     18  C   UNL     1       1.920   6.743  20.527  0.00  0.00    +0.000 C 
BRANCH  18  19
ATOM     19  C   UNL     1       2.868   6.176  19.480  0.00  0.00    +0.000 A 
ATOM     20  C   UNL     1       3.531   4.978  19.729  0.00  0.00    +0.000 A 
ATOM     21  C   UNL     1       4.461   4.522  18.795  0.00  0.00    +0.000 A 
ATOM     22  C   UNL     1       4.716   5.244  17.624  0.00  0.00    +0.000 A 
ATOM     23  C   UNL     1       3.966   6.402  17.446  0.00  0.00    +0.000 A 
ATOM     24  N   UNL     1       3.064   6.881  18.337  0.00  0.00    +0.000 NA
BRANCH  22  25
ATOM     25  C   UNL     1       5.728   4.883  16.643  0.00  0.00    +0.000 A 
ATOM     26  C   UNL     1       5.595   4.433  15.298  0.00  0.00    +0.000 A 
ATOM     27  C   UNL     1       6.868   4.322  14.792  0.00  0.00    +0.000 A 
ATOM     28  O   UNL     1       7.783   4.677  15.728  0.00  0.00    +0.000 OA
ATOM     29  C   UNL     1       7.088   5.020  16.843  0.00  0.00    +0.000 A 
ENDBRANCH  22  25
BRANCH  21  30
ATOM     30  O   UNL     1       5.128   3.351  19.043  0.00  0.00    +0.000 OA
ATOM     31  H   UNL     1       4.773   2.932  19.843  0.00  0.00    +0.000 HD
ENDBRANCH  21  30
ENDBRANCH  18  19
ENDBRANCH   1  18
TORSDOF 5
ENDMDL
MODEL 2
REMARK VINA RESULT:      -8.1      1.277      1.544
REMARK  Name = 
REMARK  5 active torsions:
REMARK  status: ('A' for Active; 'I' for Inactive)
REMARK    1  A    between atoms: C_14  and  N_15
REMARK    2  A    between atoms: N_15  and  C_16
REMARK    3  A    between atoms: C_16  and  C_17
REMARK    4  A    between atoms: C_19  and  O_20
REMARK    5  A    between atoms: C_21  and  C_22
REMARK                            x       y       z     vdW  Elec       q    Type
REMARK                         _______ _______ _______ _____ _____    ______ ____
ROOT
ATOM      1  N   UNL     1       1.371   9.353  19.143  0.00  0.00    +0.000 N 
ATOM      2  H   UNL     1       2.140  10.029  19.009  0.00  0.00    +0.000 HD
ENDROOT
BRANCH   1  16
ATOM      3  O   UNL     1       0.561  11.570  20.552  0.00  0.00    +0.000 OA
ATOM      4  C   UNL     1      -0.523  11.375  20.012  0.00  0.00    +0.000 C 
ATOM      5  N   UNL     1      -1.669  11.908  20.537  0.00  0.00    +0.000 N 
ATOM      6  C   UNL     1      -2.841  12.144  19.868  0.00  0.00    +0.000 C 
ATOM      7  O   UNL     1      -3.725  12.840  20.359  0.00  0.00    +0.000 OA
ATOM      8  C   UNL     1      -2.976  11.573  18.509  0.00  0.00    +0.000 A 
ATOM      9  C   UNL     1      -4.142  11.851  17.781  0.00  0.00    +0.000 A 
ATOM     10  C   UNL     1      -4.299  11.349  16.491  0.00  0.00    +0.000 A 
ATOM     11  C   UNL     1      -3.287  10.573  15.933  0.00  0.00    +0.000 A 
ATOM     12  I   UNL     1      -3.512   9.824  14.006  0.00  0.00    +0.000 I 
ATOM     13  C   UNL     1      -2.118  10.298  16.653  0.00  0.00    +0.000 A 
ATOM     14  C   UNL     1      -1.948  10.788  17.962  0.00  0.00    +0.000 A 
ATOM     15  C   UNL     1      -0.718  10.570  18.760  0.00  0.00    +0.000 C 
ATOM     16  C   UNL     1       0.203   9.629  18.477  0.00  0.00    +0.000 C 
ATOM     17  H   UNL     1      -1.553  12.412  21.404  0.00  0.00    +0.000 HD
ENDBRANCH   1  16
BRANCH   1  18
ATOM     18  C   UNL     1       1.788   8.108  19.758  0.00  0.00    +0.000 C 
BRANCH  18  19
ATOM     19  C   UNL     1       2.682   7.299  18.829  0.00  0.00    +0.000 A 
ATOM     20  C   UNL     1       2.882   5.944  19.074  0.00  0.00    +0.000 A 
ATOM     21  C   UNL     1       3.774   5.242  18.263  0.00  0.00    +0.000 A 
ATOM     22  C   UNL     1       4.446   5.880  17.215  0.00  0.00    +0.000 A 
ATOM     23  C   UNL     1       4.141   7.223  17.022  0.00  0.00    +0.000 A 
ATOM     24  N   UNL     1       3.290   7.939  17.797  0.00  0.00    +0.000 NA
BRANCH  22  25
ATOM     25  C   UNL     1       5.453   5.243  16.379  0.00  0.00    +0.000 A 
ATOM     26  C   UNL     1       5.317   4.494  15.175  0.00  0.00    +0.000 A 
ATOM     27  C   UNL     1       6.591   4.198  14.749  0.00  0.00    +0.000 A 
ATOM     28  O   UNL     1       7.508   4.717  15.604  0.00  0.00    +0.000 OA
ATOM     29  C   UNL     1       6.815   5.351  16.583  0.00  0.00    +0.000 A 
ENDBRANCH  22  25
BRANCH  21  30
ATOM     30  O   UNL     1       3.985   3.910  18.510  0.00  0.00    +0.000 OA
ATOM     31  H   UNL     1       4.534   3.805  19.303  0.00  0.00    +0.000 HD
ENDBRANCH  21  30
ENDBRANCH  18  19
ENDBRANCH   1  18
TORSDOF 5
ENDMDL
MODEL 3
REMARK VINA RESULT:      -8.0      3.320      4.828
REMARK  Name = 
REMARK  5 active torsions:
REMARK  status: ('A' for Active; 'I' for Inactive)
REMARK    1  A    between atoms: C_14  and  N_15
REMARK    2  A    between atoms: N_15  and  C_16
REMARK    3  A    between atoms: C_16  and  C_17
REMARK    4  A    between atoms: C_19  and  O_20
REMARK    5  A    between atoms: C_21  and  C_22
REMARK                            x       y       z     vdW  Elec       q    Type
REMARK                         _______ _______ _______ _____ _____    ______ ____
ROOT
ATOM      1  N   UNL     1      -0.362  11.552  18.250  0.00  0.00    +0.000 N 
ATOM      2  H   UNL     1      -0.601  11.105  17.350  0.00  0.00    +0.000 HD
ENDROOT
BRANCH   1  16
ATOM      3  O   UNL     1      -2.433  10.737  16.636  0.00  0.00    +0.000 OA
ATOM      4  C   UNL     1      -3.125  11.438  17.366  0.00  0.00    +0.000 C 
ATOM      5  N   UNL     1      -4.351  11.882  16.948  0.00  0.00    +0.000 N 
ATOM      6  C   UNL     1      -5.388  12.287  17.746  0.00  0.00    +0.000 C 
ATOM      7  O   UNL     1      -6.519  12.438  17.292  0.00  0.00    +0.000 OA
ATOM      8  C   UNL     1      -5.104  12.482  19.185  0.00  0.00    +0.000 A 
ATOM      9  C   UNL     1      -6.164  12.839  20.033  0.00  0.00    +0.000 A 
ATOM     10  C   UNL     1      -5.942  13.012  21.397  0.00  0.00    +0.000 A 
ATOM     11  C   UNL     1      -4.661  12.825  21.909  0.00  0.00    +0.000 A 
ATOM     12  I   UNL     1      -4.323  13.078  23.945  0.00  0.00    +0.000 I 
ATOM     13  C   UNL     1      -3.602  12.463  21.069  0.00  0.00    +0.000 A 
ATOM     14  C   UNL     1      -3.806  12.294  19.686  0.00  0.00    +0.000 A 
ATOM     15  C   UNL     1      -2.737  11.869  18.750  0.00  0.00    +0.000 C 
ATOM     16  C   UNL     1      -1.423  11.925  19.037  0.00  0.00    +0.000 C 
ATOM     17  H   UNL     1      -4.600  11.635  16.002  0.00  0.00    +0.000 HD
ENDBRANCH   1  16
BRANCH   1  18
ATOM     18  C   UNL     1       1.033  11.413  18.619  0.00  0.00    +0.000 C 
BRANCH  18  19
ATOM     19  C   UNL     1       1.450   9.951  18.680  0.00  0.00    +0.000 A 
ATOM     20  C   UNL     1       1.315   9.246  19.873  0.00  0.00    +0.000 A 
ATOM     21  C   UNL     1       1.785   7.934  19.931  0.00  0.00    +0.000 A 
ATOM     22  C   UNL     1       2.370   7.330  18.813  0.00  0.00    +0.000 A 
ATOM     23  C   UNL     1       2.414   8.101  17.656  0.00  0.00    +0.000 A 
ATOM     24  N   UNL     1       1.979   9.382  17.567  0.00  0.00    +0.000 NA
BRANCH  22  25
ATOM     25  C   UNL     1       2.960   6.000  18.815  0.00  0.00    +0.000 A 
ATOM     26  C   UNL     1       2.417   4.746  18.414  0.00  0.00    +0.000 A 
ATOM     27  C   UNL     1       3.428   3.822  18.535  0.00  0.00    +0.000 A 
ATOM     28  O   UNL     1       4.563   4.417  18.980  0.00  0.00    +0.000 OA
ATOM     29  C   UNL     1       4.276   5.734  19.142  0.00  0.00    +0.000 A 
ENDBRANCH  22  25
BRANCH  21  30
ATOM     30  O   UNL     1       1.667   7.241  21.108  0.00  0.00    +0.000 OA
ATOM     31  H   UNL     1       1.449   7.851  21.830  0.00  0.00    +0.000 HD
ENDBRANCH  21  30
ENDBRANCH  18  19
ENDBRANCH   1  18
TORSDOF 5
ENDMDL
MODEL 4
REMARK VINA RESULT:      -7.9      3.499      4.764
REMARK  Name = 
REMARK  5 active torsions:
REMARK  status: ('A' for Active; 'I' for Inactive)
REMARK    1  A    between atoms: C_14  and  N_15
REMARK    2  A    between atoms: N_15  and  C_16
REMARK    3  A    between atoms: C_16  and  C_17
REMARK    4  A    between atoms: C_19  and  O_20
REMARK    5  A    between atoms: C_21  and  C_22
REMARK                            x       y       z     vdW  Elec       q    Type
REMARK                         _______ _______ _______ _____ _____    ______ ____
ROOT
ATOM      1  N   UNL     1       0.463  10.250  17.771  0.00  0.00    +0.000 N 
ATOM      2  H   UNL     1       0.045   9.676  17.021  0.00  0.00    +0.000 HD
ENDROOT
BRANCH   1  16
ATOM      3  O   UNL     1      -1.904   9.421  16.644  0.00  0.00    +0.000 OA
ATOM      4  C   UNL     1      -2.391  10.370  17.248  0.00  0.00    +0.000 C 
ATOM      5  N   UNL     1      -3.598  10.893  16.868  0.00  0.00    +0.000 N 
ATOM      6  C   UNL     1      -4.451  11.628  17.648  0.00  0.00    +0.000 C 
ATOM      7  O   UNL     1      -5.606  11.846  17.296  0.00  0.00    +0.000 OA
ATOM      8  C   UNL     1      -3.941  12.102  18.954  0.00  0.00    +0.000 A 
ATOM      9  C   UNL     1      -4.816  12.806  19.796  0.00  0.00    +0.000 A 
ATOM     10  C   UNL     1      -4.380  13.252  21.042  0.00  0.00    +0.000 A 
ATOM     11  C   UNL     1      -3.073  12.989  21.442  0.00  0.00    +0.000 A 
ATOM     12  I   UNL     1      -2.418  13.648  23.303  0.00  0.00    +0.000 I 
ATOM     13  C   UNL     1      -2.199  12.282  20.609  0.00  0.00    +0.000 A 
ATOM     14  C   UNL     1      -2.619  11.833  19.342  0.00  0.00    +0.000 A 
ATOM     15  C   UNL     1      -1.757  11.042  18.431  0.00  0.00    +0.000 C 
ATOM     16  C   UNL     1      -0.419  10.956  18.551  0.00  0.00    +0.000 C 
ATOM     17  H   UNL     1      -4.008  10.477  16.046  0.00  0.00    +0.000 HD
ENDBRANCH   1  16
BRANCH   1  18
ATOM     18  C   UNL     1       1.857   9.949  18.028  0.00  0.00    +0.000 C 
BRANCH  18  19
ATOM     19  C   UNL     1       2.027   8.560  18.626  0.00  0.00    +0.000 A 
ATOM     20  C   UNL     1       2.550   7.534  17.844  0.00  0.00    +0.000 A 
ATOM     21  C   UNL     1       2.615   6.249  18.383  0.00  0.00    +0.000 A 
ATOM     22  C   UNL     1       2.177   5.995  19.687  0.00  0.00    +0.000 A 
ATOM     23  C   UNL     1       1.717   7.095  20.402  0.00  0.00    +0.000 A 
ATOM     24  N   UNL     1       1.628   8.354  19.907  0.00  0.00    +0.000 NA
BRANCH  22  25
ATOM     25  C   UNL     1       2.132   4.672  20.292  0.00  0.00    +0.000 A 
ATOM     26  C   UNL     1       1.025   3.821  20.576  0.00  0.00    +0.000 A 
ATOM     27  C   UNL     1       1.547   2.647  21.066  0.00  0.00    +0.000 A 
ATOM     28  O   UNL     1       2.901   2.709  21.101  0.00  0.00    +0.000 OA
ATOM     29  C   UNL     1       3.249   3.932  20.628  0.00  0.00    +0.000 A 
ENDBRANCH  22  25
BRANCH  21  30
ATOM     30  O   UNL     1       3.115   5.233  17.612  0.00  0.00    +0.000 OA
ATOM     31  H   UNL     1       3.438   5.587  16.768  0.00  0.00    +0.000 HD
ENDBRANCH  21  30
ENDBRANCH  18  19
ENDBRANCH   1  18
TORSDOF 5
ENDMDL
MODEL 5
REMARK VINA RESULT:      -7.9      3.073      4.234
REMARK  Name = 
REMARK  5 active torsions:
REMARK  status: ('A' for Active; 'I' for Inactive)
REMARK    1  A    between atoms: C_14  and  N_15
REMARK    2  A    between atoms: N_15  and  C_16
REMARK    3  A    between atoms: C_16  and  C_17
REMARK    4  A    between atoms: C_19  and  O_20
REMARK    5  A    between atoms: C_21  and  C_22
REMARK                            x       y       z     vdW  Elec       q    Type
REMARK                         _______ _______ _______ _____ _____    ______ ____
ROOT
ATOM      1  N   UNL     1       0.431  10.193  17.807  0.00  0.00    +0.000 N 
ATOM      2  H   UNL     1       0.024   9.480  17.180  0.00  0.00    +0.000 HD
ENDROOT
BRANCH   1  16
ATOM      3  O   UNL     1      -1.917   9.406  16.611  0.00  0.00    +0.000 OA
ATOM      4  C   UNL     1      -2.407  10.355  17.213  0.00  0.00    +0.000 C 
ATOM      5  N   UNL     1      -3.597  10.896  16.808  0.00  0.00    +0.000 N 
ATOM      6  C   UNL     1      -4.461  11.634  17.574  0.00  0.00    +0.000 C 
ATOM      7  O   UNL     1      -5.604  11.870  17.196  0.00  0.00    +0.000 OA
ATOM      8  C   UNL     1      -3.979  12.088  18.898  0.00  0.00    +0.000 A 
ATOM      9  C   UNL     1      -4.866  12.794  19.725  0.00  0.00    +0.000 A 
ATOM     10  C   UNL     1      -4.457  13.221  20.987  0.00  0.00    +0.000 A 
ATOM     11  C   UNL     1      -3.164  12.937  21.417  0.00  0.00    +0.000 A 
ATOM     12  I   UNL     1      -2.549  13.568  23.302  0.00  0.00    +0.000 I 
ATOM     13  C   UNL     1      -2.278  12.227  20.599  0.00  0.00    +0.000 A 
ATOM     14  C   UNL     1      -2.670  11.798  19.317  0.00  0.00    +0.000 A 
ATOM     15  C   UNL     1      -1.796  11.006  18.419  0.00  0.00    +0.000 C 
ATOM     16  C   UNL     1      -0.462  10.902  18.572  0.00  0.00    +0.000 C 
ATOM     17  H   UNL     1      -3.992  10.495  15.971  0.00  0.00    +0.000 HD
ENDBRANCH   1  16
BRANCH   1  18
ATOM     18  C   UNL     1       1.867  10.080  17.965  0.00  0.00    +0.000 C 
BRANCH  18  19
ATOM     19  C   UNL     1       2.281   8.656  18.306  0.00  0.00    +0.000 A 
ATOM     20  C   UNL     1       1.867   8.088  19.507  0.00  0.00    +0.000 A 
ATOM     21  C   UNL     1       2.330   6.814  19.839  0.00  0.00    +0.000 A 
ATOM     22  C   UNL     1       3.182   6.113  18.979  0.00  0.00    +0.000 A 
ATOM     23  C   UNL     1       3.498   6.747  17.782  0.00  0.00    +0.000 A 
ATOM     24  N   UNL     1       3.077   7.987  17.432  0.00  0.00    +0.000 NA
BRANCH  22  25
ATOM     25  C   UNL     1       3.775   4.821  19.289  0.00  0.00    +0.000 A 
ATOM     26  C   UNL     1       3.165   3.560  19.546  0.00  0.00    +0.000 A 
ATOM     27  C   UNL     1       4.186   2.650  19.691  0.00  0.00    +0.000 A 
ATOM     28  O   UNL     1       5.388   3.259  19.536  0.00  0.00    +0.000 OA
ATOM     29  C   UNL     1       5.134   4.569  19.288  0.00  0.00    +0.000 A 
ENDBRANCH  22  25
BRANCH  21  30
ATOM     30  O   UNL     1       1.937   6.257  21.028  0.00  0.00    +0.000 OA
ATOM     31  H   UNL     1       1.692   6.956  21.655  0.00  0.00    +0.000 HD
ENDBRANCH  21  30
ENDBRANCH  18  19
ENDBRANCH   1  18
TORSDOF 5
ENDMDL
MODEL 6
REMARK VINA RESULT:      -7.9      1.273      1.502
REMARK  Name = 
REMARK  5 active torsions:
REMARK  status: ('A' for Active; 'I' for Inactive)
REMARK    1  A    between atoms: C_14  and  N_15
REMARK    2  A    between atoms: N_15  and  C_16
REMARK    3  A    between atoms: C_16  and  C_17
REMARK    4  A    between atoms: C_19  and  O_20
REMARK    5  A    between atoms: C_21  and  C_22
REMARK                            x       y       z     vdW  Elec       q    Type
REMARK                         _______ _______ _______ _____ _____    ______ ____
ROOT
ATOM      1  N   UNL     1       1.586   7.328  20.929  0.00  0.00    +0.000 N 
ATOM      2  H   UNL     1       2.383   7.774  21.412  0.00  0.00    +0.000 HD
ENDROOT
BRANCH   1  16
ATOM      3  O   UNL     1       1.825   9.424  22.692  0.00  0.00    +0.000 OA
ATOM      4  C   UNL     1       0.762   9.799  22.210  0.00  0.00    +0.000 C 
ATOM      5  N   UNL     1      -0.037  10.682  22.887  0.00  0.00    +0.000 N 
ATOM      6  C   UNL     1      -0.993  11.499  22.344  0.00  0.00    +0.000 C 
ATOM      7  O   UNL     1      -1.485  12.419  22.991  0.00  0.00    +0.000 OA
ATOM      8  C   UNL     1      -1.368  11.264  20.932  0.00  0.00    +0.000 A 
ATOM      9  C   UNL     1      -2.301  12.127  20.337  0.00  0.00    +0.000 A 
ATOM     10  C   UNL     1      -2.665  11.952  19.004  0.00  0.00    +0.000 A 
ATOM     11  C   UNL     1      -2.093  10.917  18.270  0.00  0.00    +0.000 A 
ATOM     12  I   UNL     1      -2.629  10.653  16.278  0.00  0.00    +0.000 I 
ATOM     13  C   UNL     1      -1.156  10.058  18.857  0.00  0.00    +0.000 A 
ATOM     14  C   UNL     1      -0.785  10.213  20.206  0.00  0.00    +0.000 A 
ATOM     15  C   UNL     1       0.232   9.366  20.874  0.00  0.00    +0.000 C 
ATOM     16  C   UNL     1       0.652   8.179  20.395  0.00  0.00    +0.000 C 
ATOM     17  H   UNL     1       0.290  10.942  23.805  0.00  0.00    +0.000 HD
ENDBRANCH   1  16
BRANCH   1  18
ATOM     18  C   UNL     1       1.784   5.917  20.657  0.00  0.00    +0.000 C 
BRANCH  18  19
ATOM     19  C   UNL     1       2.857   5.698  19.601  0.00  0.00    +0.000 A 
ATOM     20  C   UNL     1       3.093   6.681  18.644  0.00  0.00    +0.000 A 
ATOM     21  C   UNL     1       4.019   6.422  17.634  0.00  0.00    +0.000 A 
ATOM     22  C   UNL     1       4.709   5.206  17.586  0.00  0.00    +0.000 A 
ATOM     23  C   UNL     1       4.439   4.310  18.615  0.00  0.00    +0.000 A 
ATOM     24  N   UNL     1       3.537   4.523  19.605  0.00  0.00    +0.000 NA
BRANCH  22  25
ATOM     25  C   UNL     1       5.626   4.826  16.522  0.00  0.00    +0.000 A 
ATOM     26  C   UNL     1       5.377   4.202  15.265  0.00  0.00    +0.000 A 
ATOM     27  C   UNL     1       6.582   4.153  14.605  0.00  0.00    +0.000 A 
ATOM     28  O   UNL     1       7.560   4.707  15.363  0.00  0.00    +0.000 OA
ATOM     29  C   UNL     1       6.976   5.117  16.518  0.00  0.00    +0.000 A 
ENDBRANCH  22  25
BRANCH  21  30
ATOM     30  O   UNL     1       4.243   7.381  16.681  0.00  0.00    +0.000 OA
ATOM     31  H   UNL     1       4.335   8.250  17.102  0.00  0.00    +0.000 HD
ENDBRANCH  21  30
ENDBRANCH  18  19
ENDBRANCH   1  18
TORSDOF 5
ENDMDL
MODEL 7
REMARK VINA RESULT:      -7.7      3.680      8.615
REMARK  Name = 
REMARK  5 active torsions:
REMARK  status: ('A' for Active; 'I' for Inactive)
REMARK    1  A    between atoms: C_14  and  N_15
REMARK    2  A    between atoms: N_15  and  C_16
REMARK    3  A    between atoms: C_16  and  C_17
REMARK    4  A    between atoms: C_19  and  O_20
REMARK    5  A    between atoms: C_21  and  C_22
REMARK                            x       y       z     vdW  Elec       q    Type
REMARK                         _______ _______ _______ _____ _____    ______ ____
ROOT
ATOM      1  N   UNL     1       3.530   2.885  18.581  0.00  0.00    +0.000 N 
ATOM      2  H   UNL     1       3.887   2.037  19.050  0.00  0.00    +0.000 HD
ENDROOT
BRANCH   1  16
ATOM      3  O   UNL     1       5.707   4.262  19.540  0.00  0.00    +0.000 OA
ATOM      4  C   UNL     1       5.818   4.661  18.386  0.00  0.00    +0.000 C 
ATOM      5  N   UNL     1       6.535   5.794  18.106  0.00  0.00    +0.000 N 
ATOM      6  C   UNL     1       7.097   6.127  16.903  0.00  0.00    +0.000 C 
ATOM      7  O   UNL     1       7.915   7.037  16.813  0.00  0.00    +0.000 OA
ATOM      8  C   UNL     1       6.720   5.312  15.726  0.00  0.00    +0.000 A 
ATOM      9  C   UNL     1       7.329   5.597  14.494  0.00  0.00    +0.000 A 
ATOM     10  C   UNL     1       7.017   4.840  13.367  0.00  0.00    +0.000 A 
ATOM     11  C   UNL     1       6.099   3.799  13.477  0.00  0.00    +0.000 A 
ATOM     12  I   UNL     1       5.632   2.662  11.799  0.00  0.00    +0.000 I 
ATOM     13  C   UNL     1       5.494   3.507  14.705  0.00  0.00    +0.000 A 
ATOM     14  C   UNL     1       5.790   4.268  15.852  0.00  0.00    +0.000 A 
ATOM     15  C   UNL     1       5.217   3.983  17.189  0.00  0.00    +0.000 C 
ATOM     16  C   UNL     1       4.131   3.214  17.392  0.00  0.00    +0.000 C 
ATOM     17  H   UNL     1       6.903   6.280  18.909  0.00  0.00    +0.000 HD
ENDBRANCH   1  16
BRANCH   1  18
ATOM     18  C   UNL     1       2.275   3.367  19.124  0.00  0.00    +0.000 C 
BRANCH  18  19
ATOM     19  C   UNL     1       2.202   4.886  19.096  0.00  0.00    +0.000 A 
ATOM     20  C   UNL     1       2.121   5.594  20.292  0.00  0.00    +0.000 A 
ATOM     21  C   UNL     1       1.966   6.979  20.240  0.00  0.00    +0.000 A 
ATOM     22  C   UNL     1       1.907   7.650  19.014  0.00  0.00    +0.000 A 
ATOM     23  C   UNL     1       2.046   6.859  17.878  0.00  0.00    +0.000 A 
ATOM     24  N   UNL     1       2.185   5.511  17.890  0.00  0.00    +0.000 NA
BRANCH  22  25
ATOM     25  C   UNL     1       1.662   9.077  18.872  0.00  0.00    +0.000 A 
ATOM     26  C   UNL     1       0.785   9.942  19.588  0.00  0.00    +0.000 A 
ATOM     27  C   UNL     1       1.012  11.213  19.115  0.00  0.00    +0.000 A 
ATOM     28  O   UNL     1       1.973  11.197  18.158  0.00  0.00    +0.000 OA
ATOM     29  C   UNL     1       2.366   9.906  18.020  0.00  0.00    +0.000 A 
ENDBRANCH  22  25
BRANCH  21  30
ATOM     30  O   UNL     1       1.871   7.678  21.415  0.00  0.00    +0.000 OA
ATOM     31  H   UNL     1       1.032   8.165  21.443  0.00  0.00    +0.000 HD
ENDBRANCH  21  30
ENDBRANCH  18  19
ENDBRANCH   1  18
TORSDOF 5
ENDMDL
MODEL 8
REMARK VINA RESULT:      -7.7      1.949      2.920
REMARK  Name = 
REMARK  5 active torsions:
REMARK  status: ('A' for Active; 'I' for Inactive)
REMARK    1  A    between atoms: C_14  and  N_15
REMARK    2  A    between atoms: N_15  and  C_16
REMARK    3  A    between atoms: C_16  and  C_17
REMARK    4  A    between atoms: C_19  and  O_20
REMARK    5  A    between atoms: C_21  and  C_22
REMARK                            x       y       z     vdW  Elec       q    Type
REMARK                         _______ _______ _______ _____ _____    ______ ____
ROOT
ATOM      1  N   UNL     1       1.389   9.624  18.593  0.00  0.00    +0.000 N 
ATOM      2  H   UNL     1       1.498   9.973  19.559  0.00  0.00    +0.000 HD
ENDROOT
BRANCH   1  16
ATOM      3  O   UNL     1       0.530  11.755  20.102  0.00  0.00    +0.000 OA
ATOM      4  C   UNL     1      -0.572  11.497  19.630  0.00  0.00    +0.000 C 
ATOM      5  N   UNL     1      -1.713  11.942  20.241  0.00  0.00    +0.000 N 
ATOM      6  C   UNL     1      -2.940  12.111  19.656  0.00  0.00    +0.000 C 
ATOM      7  O   UNL     1      -3.833  12.736  20.219  0.00  0.00    +0.000 OA
ATOM      8  C   UNL     1      -3.127  11.557  18.296  0.00  0.00    +0.000 A 
ATOM      9  C   UNL     1      -4.356  11.770  17.652  0.00  0.00    +0.000 A 
ATOM     10  C   UNL     1      -4.565  11.282  16.364  0.00  0.00    +0.000 A 
ATOM     11  C   UNL     1      -3.543  10.586  15.724  0.00  0.00    +0.000 A 
ATOM     12  I   UNL     1      -3.846   9.859  13.799  0.00  0.00    +0.000 I 
ATOM     13  C   UNL     1      -2.313  10.378  16.359  0.00  0.00    +0.000 A 
ATOM     14  C   UNL     1      -2.089  10.854  17.665  0.00  0.00    +0.000 A 
ATOM     15  C   UNL     1      -0.796  10.704  18.376  0.00  0.00    +0.000 C 
ATOM     16  C   UNL     1       0.164   9.833  18.011  0.00  0.00    +0.000 C 
ATOM     17  H   UNL     1      -1.573  12.436  21.110  0.00  0.00    +0.000 HD
ENDBRANCH   1  16
BRANCH   1  18
ATOM     18  C   UNL     1       2.642   9.263  17.959  0.00  0.00    +0.000 C 
BRANCH  18  19
ATOM     19  C   UNL     1       2.974   7.794  18.175  0.00  0.00    +0.000 A 
ATOM     20  C   UNL     1       3.896   7.167  17.342  0.00  0.00    +0.000 A 
ATOM     21  C   UNL     1       4.120   5.799  17.502  0.00  0.00    +0.000 A 
ATOM     22  C   UNL     1       3.444   5.071  18.487  0.00  0.00    +0.000 A 
ATOM     23  C   UNL     1       2.581   5.799  19.299  0.00  0.00    +0.000 A 
ATOM     24  N   UNL     1       2.329   7.124  19.164  0.00  0.00    +0.000 NA
BRANCH  22  25
ATOM     25  C   UNL     1       3.557   3.631  18.663  0.00  0.00    +0.000 A 
ATOM     26  C   UNL     1       2.938   2.561  17.955  0.00  0.00    +0.000 A 
ATOM     27  C   UNL     1       3.461   1.396  18.467  0.00  0.00    +0.000 A 
ATOM     28  O   UNL     1       4.364   1.671  19.440  0.00  0.00    +0.000 OA
ATOM     29  C   UNL     1       4.422   3.022  19.551  0.00  0.00    +0.000 A 
ENDBRANCH  22  25
BRANCH  21  30
ATOM     30  O   UNL     1       5.017   5.175  16.674  0.00  0.00    +0.000 OA
ATOM     31  H   UNL     1       5.359   4.374  17.102  0.00  0.00    +0.000 HD
ENDBRANCH  21  30
ENDBRANCH  18  19
ENDBRANCH   1  18
TORSDOF 5
ENDMDL
MODEL 9
REMARK VINA RESULT:      -7.7      2.386      3.096
REMARK  Name = 
REMARK  5 active torsions:
REMARK  status: ('A' for Active; 'I' for Inactive)
REMARK    1  A    between atoms: C_14  and  N_15
REMARK    2  A    between atoms: N_15  and  C_16
REMARK    3  A    between atoms: C_16  and  C_17
REMARK    4  A    between atoms: C_19  and  O_20
REMARK    5  A    between atoms: C_21  and  C_22
REMARK                            x       y       z     vdW  Elec       q    Type
REMARK                         _______ _______ _______ _____ _____    ______ ____
ROOT
ATOM      1  N   UNL     1       0.913   9.937  19.987  0.00  0.00    +0.000 N 
ATOM      2  H   UNL     1       1.770  10.430  19.688  0.00  0.00    +0.000 HD
ENDROOT
BRANCH   1  16
ATOM      3  O   UNL     1      -0.171  12.158  21.191  0.00  0.00    +0.000 OA
ATOM      4  C   UNL     1      -1.177  11.872  20.552  0.00  0.00    +0.000 C 
ATOM      5  N   UNL     1      -2.402  12.354  20.926  0.00  0.00    +0.000 N 
ATOM      6  C   UNL     1      -3.507  12.487  20.127  0.00  0.00    +0.000 C 
ATOM      7  O   UNL     1      -4.477  13.146  20.488  0.00  0.00    +0.000 OA
ATOM      8  C   UNL     1      -3.462  11.851  18.792  0.00  0.00    +0.000 A 
ATOM      9  C   UNL     1      -4.557  12.024  17.933  0.00  0.00    +0.000 A 
ATOM     10  C   UNL     1      -4.545  11.458  16.660  0.00  0.00    +0.000 A 
ATOM     11  C   UNL     1      -3.436  10.724  16.250  0.00  0.00    +0.000 A 
ATOM     12  I   UNL     1      -3.409   9.880  14.349  0.00  0.00    +0.000 I 
ATOM     13  C   UNL     1      -2.337  10.554  17.101  0.00  0.00    +0.000 A 
ATOM     14  C   UNL     1      -2.337  11.109  18.395  0.00  0.00    +0.000 A 
ATOM     15  C   UNL     1      -1.190  11.003  19.327  0.00  0.00    +0.000 C 
ATOM     16  C   UNL     1      -0.191  10.111  19.189  0.00  0.00    +0.000 C 
ATOM     17  H   UNL     1      -2.409  12.901  21.774  0.00  0.00    +0.000 HD
ENDBRANCH   1  16
BRANCH   1  18
ATOM     18  C   UNL     1       1.142   8.932  21.006  0.00  0.00    +0.000 C 
BRANCH  18  19
ATOM     19  C   UNL     1       1.649   7.631  20.403  0.00  0.00    +0.000 A 
ATOM     20  C   UNL     1       2.418   7.663  19.243  0.00  0.00    +0.000 A 
ATOM     21  C   UNL     1       2.797   6.454  18.659  0.00  0.00    +0.000 A 
ATOM     22  C   UNL     1       2.426   5.233  19.230  0.00  0.00    +0.000 A 
ATOM     23  C   UNL     1       1.700   5.308  20.414  0.00  0.00    +0.000 A 
ATOM     24  N   UNL     1       1.304   6.462  21.002  0.00  0.00    +0.000 NA
BRANCH  22  25
ATOM     25  C   UNL     1       2.708   3.933  18.639  0.00  0.00    +0.000 A 
ATOM     26  C   UNL     1       3.930   3.206  18.541  0.00  0.00    +0.000 A 
ATOM     27  C   UNL     1       3.621   1.994  17.971  0.00  0.00    +0.000 A 
ATOM     28  O   UNL     1       2.292   1.916  17.711  0.00  0.00    +0.000 OA
ATOM     29  C   UNL     1       1.745   3.088  18.122  0.00  0.00    +0.000 A 
ENDBRANCH  22  25
BRANCH  21  30
ATOM     30  O   UNL     1       3.542   6.482  17.508  0.00  0.00    +0.000 OA
ATOM     31  H   UNL     1       4.487   6.482  17.727  0.00  0.00    +0.000 HD
ENDBRANCH  21  30
ENDBRANCH  18  19
ENDBRANCH   1  18
TORSDOF 5
ENDMDL
