MODEL 1
REMARK VINA RESULT:      -6.7      0.000      0.000
REMARK  Name = 
REMARK  6 active torsions:
REMARK  status: ('A' for Active; 'I' for Inactive)
REMARK    1  A    between atoms: C_1  and  O_2
REMARK    2  A    between atoms: O_2  and  C_3
REMARK    3  A    between atoms: C_7  and  O_8
REMARK    4  A    between atoms: O_8  and  C_9
REMARK    5  A    between atoms: C_9  and  C_10
REMARK    6  A    between atoms: N_12  and  C_13
REMARK                            x       y       z     vdW  Elec       q    Type
REMARK                         _______ _______ _______ _____ _____    ______ ____
ROOT
ATOM      1  C   UNL     1       8.263   9.232  17.859  0.00  0.00    +0.000 C 
ENDROOT
BRANCH   1   2
ATOM      2  C   UNL     1       7.802   7.783  17.901  0.00  0.00    +0.000 C 
ATOM      3  O   UNL     1       8.260   7.016  18.746  0.00  0.00    +0.000 OA
ATOM      4  N   UNL     1       6.849   7.478  16.943  0.00  0.00    +0.000 N 
ATOM      5  H   UNL     1       6.707   8.190  16.232  0.00  0.00    +0.000 HD
BRANCH   4   6
ATOM      6  C   UNL     1       6.253   6.218  16.745  0.00  0.00    +0.000 A 
ATOM      7  C   UNL     1       6.847   5.216  15.984  0.00  0.00    +0.000 A 
ATOM      8  C   UNL     1       6.150   4.042  15.774  0.00  0.00    +0.000 A 
ATOM      9  N   UNL     1       4.922   3.797  16.278  0.00  0.00    +0.000 NA
ATOM     10  C   UNL     1       4.382   4.768  17.044  0.00  0.00    +0.000 A 
ATOM     11  C   UNL     1       5.007   5.976  17.318  0.00  0.00    +0.000 A 
ENDBRANCH   4   6
ENDBRANCH   1   2
BRANCH   1  12
ATOM     12  O   UNL     1       8.819   9.614  19.111  0.00  0.00    +0.000 OA
BRANCH  12  17
ATOM     13  C   UNL     1      11.047  12.398  18.067  0.00  0.00    +0.000 A 
ATOM     14  C   UNL     1      11.410  12.849  19.339  0.00  0.00    +0.000 A 
ATOM     15  C   UNL     1      10.902  12.234  20.482  0.00  0.00    +0.000 A 
ATOM     16  C   UNL     1      10.031  11.155  20.357  0.00  0.00    +0.000 A 
ATOM     17  C   UNL     1       9.665  10.689  19.094  0.00  0.00    +0.000 A 
ATOM     18  C   UNL     1      10.168  11.317  17.950  0.00  0.00    +0.000 A 
BRANCH  13  20
ATOM     19  C   UNL     1      11.459  14.499  17.033  0.00  0.00    +0.000 C 
ATOM     20  O   UNL     1      11.616  13.084  17.032  0.00  0.00    +0.000 OA
ENDBRANCH  13  20
ENDBRANCH  12  17
ENDBRANCH   1  12
TORSDOF 5
ENDMDL
MODEL 2
REMARK VINA RESULT:      -6.6      6.075      8.883
REMARK  Name = 
REMARK  6 active torsions:
REMARK  status: ('A' for Active; 'I' for Inactive)
REMARK    1  A    between atoms: C_1  and  O_2
REMARK    2  A    between atoms: O_2  and  C_3
REMARK    3  A    between atoms: C_7  and  O_8
REMARK    4  A    between atoms: O_8  and  C_9
REMARK    5  A    between atoms: C_9  and  C_10
REMARK    6  A    between atoms: N_12  and  C_13
REMARK                            x       y       z     vdW  Elec       q    Type
REMARK                         _______ _______ _______ _____ _____    ______ ____
ROOT
ATOM      1  C   UNL     1       6.081   5.089  18.200  0.00  0.00    +0.000 C 
ENDROOT
BRANCH   1   2
ATOM      2  C   UNL     1       6.839   4.741  16.928  0.00  0.00    +0.000 C 
ATOM      3  O   UNL     1       7.998   4.332  16.995  0.00  0.00    +0.000 OA
ATOM      4  N   UNL     1       6.092   4.911  15.774  0.00  0.00    +0.000 N 
ATOM      5  H   UNL     1       5.213   5.405  15.898  0.00  0.00    +0.000 HD
BRANCH   4   6
ATOM      6  C   UNL     1       6.538   4.675  14.459  0.00  0.00    +0.000 A 
ATOM      7  C   UNL     1       7.554   5.417  13.865  0.00  0.00    +0.000 A 
ATOM      8  C   UNL     1       7.868   5.170  12.543  0.00  0.00    +0.000 A 
ATOM      9  N   UNL     1       7.255   4.235  11.787  0.00  0.00    +0.000 NA
ATOM     10  C   UNL     1       6.299   3.503  12.395  0.00  0.00    +0.000 A 
ATOM     11  C   UNL     1       5.920   3.670  13.719  0.00  0.00    +0.000 A 
ENDBRANCH   4   6
ENDBRANCH   1   2
BRANCH   1  12
ATOM     12  O   UNL     1       5.696   3.906  18.889  0.00  0.00    +0.000 OA
BRANCH  12  17
ATOM     13  C   UNL     1       2.117   3.369  19.728  0.00  0.00    +0.000 A 
ATOM     14  C   UNL     1       1.707   2.822  18.510  0.00  0.00    +0.000 A 
ATOM     15  C   UNL     1       2.613   2.663  17.463  0.00  0.00    +0.000 A 
ATOM     16  C   UNL     1       3.940   3.046  17.634  0.00  0.00    +0.000 A 
ATOM     17  C   UNL     1       4.366   3.588  18.847  0.00  0.00    +0.000 A 
ATOM     18  C   UNL     1       3.450   3.757  19.890  0.00  0.00    +0.000 A 
BRANCH  13  20
ATOM     19  C   UNL     1       1.288   2.680  21.848  0.00  0.00    +0.000 C 
ATOM     20  O   UNL     1       1.133   3.469  20.672  0.00  0.00    +0.000 OA
ENDBRANCH  13  20
ENDBRANCH  12  17
ENDBRANCH   1  12
TORSDOF 5
ENDMDL
MODEL 3
REMARK VINA RESULT:      -6.6      6.335      8.350
REMARK  Name = 
REMARK  6 active torsions:
REMARK  status: ('A' for Active; 'I' for Inactive)
REMARK    1  A    between atoms: C_1  and  O_2
REMARK    2  A    between atoms: O_2  and  C_3
REMARK    3  A    between atoms: C_7  and  O_8
REMARK    4  A    between atoms: O_8  and  C_9
REMARK    5  A    between atoms: C_9  and  C_10
REMARK    6  A    between atoms: N_12  and  C_13
REMARK                            x       y       z     vdW  Elec       q    Type
REMARK                         _______ _______ _______ _____ _____    ______ ____
ROOT
ATOM      1  C   UNL     1       6.612   4.571  16.992  0.00  0.00    +0.000 C 
ENDROOT
BRANCH   1   2
ATOM      2  C   UNL     1       5.900   4.534  18.336  0.00  0.00    +0.000 C 
ATOM      3  O   UNL     1       6.505   4.843  19.361  0.00  0.00    +0.000 OA
ATOM      4  N   UNL     1       4.570   4.157  18.247  0.00  0.00    +0.000 N 
ATOM      5  H   UNL     1       4.285   3.787  17.344  0.00  0.00    +0.000 HD
BRANCH   4   6
ATOM      6  C   UNL     1       3.674   4.030  19.326  0.00  0.00    +0.000 A 
ATOM      7  C   UNL     1       2.921   5.096  19.809  0.00  0.00    +0.000 A 
ATOM      8  C   UNL     1       2.132   4.897  20.925  0.00  0.00    +0.000 A 
ATOM      9  N   UNL     1       2.033   3.719  21.575  0.00  0.00    +0.000 NA
ATOM     10  C   UNL     1       2.743   2.690  21.067  0.00  0.00    +0.000 A 
ATOM     11  C   UNL     1       3.556   2.789  19.947  0.00  0.00    +0.000 A 
ENDBRANCH   4   6
ENDBRANCH   1   2
BRANCH   1  12
ATOM     12  O   UNL     1       5.713   4.964  15.963  0.00  0.00    +0.000 OA
BRANCH  12  17
ATOM     13  C   UNL     1       5.855   3.510  12.547  0.00  0.00    +0.000 A 
ATOM     14  C   UNL     1       7.052   4.099  12.131  0.00  0.00    +0.000 A 
ATOM     15  C   UNL     1       7.755   4.954  12.978  0.00  0.00    +0.000 A 
ATOM     16  C   UNL     1       7.264   5.219  14.253  0.00  0.00    +0.000 A 
ATOM     17  C   UNL     1       6.074   4.634  14.686  0.00  0.00    +0.000 A 
ATOM     18  C   UNL     1       5.367   3.786  13.828  0.00  0.00    +0.000 A 
BRANCH  13  20
ATOM     19  C   UNL     1       3.980   3.074  11.151  0.00  0.00    +0.000 C 
ATOM     20  O   UNL     1       5.267   2.691  11.625  0.00  0.00    +0.000 OA
ENDBRANCH  13  20
ENDBRANCH  12  17
ENDBRANCH   1  12
TORSDOF 5
ENDMDL
MODEL 4
REMARK VINA RESULT:      -6.5      6.463      8.450
REMARK  Name = 
REMARK  6 active torsions:
REMARK  status: ('A' for Active; 'I' for Inactive)
REMARK    1  A    between atoms: C_1  and  O_2
REMARK    2  A    between atoms: O_2  and  C_3
REMARK    3  A    between atoms: C_7  and  O_8
REMARK    4  A    between atoms: O_8  and  C_9
REMARK    5  A    between atoms: C_9  and  C_10
REMARK    6  A    between atoms: N_12  and  C_13
REMARK                            x       y       z     vdW  Elec       q    Type
REMARK                         _______ _______ _______ _____ _____    ______ ____
ROOT
ATOM      1  C   UNL     1       5.064   5.552  16.266  0.00  0.00    +0.000 C 
ENDROOT
BRANCH   1   2
ATOM      2  C   UNL     1       4.333   4.612  17.211  0.00  0.00    +0.000 C 
ATOM      3  O   UNL     1       4.605   3.413  17.219  0.00  0.00    +0.000 OA
ATOM      4  N   UNL     1       3.405   5.250  18.018  0.00  0.00    +0.000 N 
ATOM      5  H   UNL     1       3.201   6.213  17.764  0.00  0.00    +0.000 HD
BRANCH   4   6
ATOM      6  C   UNL     1       2.580   4.631  18.977  0.00  0.00    +0.000 A 
ATOM      7  C   UNL     1       2.778   4.778  20.347  0.00  0.00    +0.000 A 
ATOM      8  C   UNL     1       1.972   4.066  21.213  0.00  0.00    +0.000 A 
ATOM      9  N   UNL     1       0.985   3.238  20.811  0.00  0.00    +0.000 NA
ATOM     10  C   UNL     1       0.787   3.140  19.480  0.00  0.00    +0.000 A 
ATOM     11  C   UNL     1       1.538   3.821  18.533  0.00  0.00    +0.000 A 
ENDBRANCH   4   6
ENDBRANCH   1   2
BRANCH   1  12
ATOM     12  O   UNL     1       6.329   5.012  15.907  0.00  0.00    +0.000 OA
BRANCH  12  17
ATOM     13  C   UNL     1       5.998   3.507  12.526  0.00  0.00    +0.000 A 
ATOM     14  C   UNL     1       7.067   4.165  11.911  0.00  0.00    +0.000 A 
ATOM     15  C   UNL     1       7.841   5.079  12.622  0.00  0.00    +0.000 A 
ATOM     16  C   UNL     1       7.553   5.336  13.959  0.00  0.00    +0.000 A 
ATOM     17  C   UNL     1       6.494   4.683  14.589  0.00  0.00    +0.000 A 
ATOM     18  C   UNL     1       5.712   3.774  13.868  0.00  0.00    +0.000 A 
BRANCH  13  20
ATOM     19  C   UNL     1       4.081   3.083  11.184  0.00  0.00    +0.000 C 
ATOM     20  O   UNL     1       5.322   2.634  11.721  0.00  0.00    +0.000 OA
ENDBRANCH  13  20
ENDBRANCH  12  17
ENDBRANCH   1  12
TORSDOF 5
ENDMDL
MODEL 5
REMARK VINA RESULT:      -6.5      6.083      8.097
REMARK  Name = 
REMARK  6 active torsions:
REMARK  status: ('A' for Active; 'I' for Inactive)
REMARK    1  A    between atoms: C_1  and  O_2
REMARK    2  A    between atoms: O_2  and  C_3
REMARK    3  A    between atoms: C_7  and  O_8
REMARK    4  A    between atoms: O_8  and  C_9
REMARK    5  A    between atoms: C_9  and  C_10
REMARK    6  A    between atoms: N_12  and  C_13
REMARK                            x       y       z     vdW  Elec       q    Type
REMARK                         _______ _______ _______ _____ _____    ______ ____
ROOT
ATOM      1  C   UNL     1       7.335   4.626  16.746  0.00  0.00    +0.000 C 
ENDROOT
BRANCH   1   2
ATOM      2  C   UNL     1       6.488   4.587  18.008  0.00  0.00    +0.000 C 
ATOM      3  O   UNL     1       6.934   5.039  19.062  0.00  0.00    +0.000 OA
ATOM      4  N   UNL     1       5.232   4.036  17.815  0.00  0.00    +0.000 N 
ATOM      5  H   UNL     1       5.096   3.574  16.921  0.00  0.00    +0.000 HD
BRANCH   4   6
ATOM      6  C   UNL     1       4.244   3.866  18.804  0.00  0.00    +0.000 A 
ATOM      7  C   UNL     1       4.239   2.788  19.684  0.00  0.00    +0.000 A 
ATOM      8  C   UNL     1       3.184   2.658  20.566  0.00  0.00    +0.000 A 
ATOM      9  N   UNL     1       2.155   3.528  20.639  0.00  0.00    +0.000 NA
ATOM     10  C   UNL     1       2.200   4.585  19.803  0.00  0.00    +0.000 A 
ATOM     11  C   UNL     1       3.220   4.807  18.889  0.00  0.00    +0.000 A 
ENDBRANCH   4   6
ENDBRANCH   1   2
BRANCH   1  12
ATOM     12  O   UNL     1       6.715   5.437  15.756  0.00  0.00    +0.000 OA
BRANCH  12  17
ATOM     13  C   UNL     1       6.029   3.558  12.624  0.00  0.00    +0.000 A 
ATOM     14  C   UNL     1       7.033   4.120  11.832  0.00  0.00    +0.000 A 
ATOM     15  C   UNL     1       7.883   5.096  12.350  0.00  0.00    +0.000 A 
ATOM     16  C   UNL     1       7.735   5.510  13.670  0.00  0.00    +0.000 A 
ATOM     17  C   UNL     1       6.742   4.954  14.475  0.00  0.00    +0.000 A 
ATOM     18  C   UNL     1       5.884   3.984  13.948  0.00  0.00    +0.000 A 
BRANCH  13  20
ATOM     19  C   UNL     1       4.173   3.079  11.216  0.00  0.00    +0.000 C 
ATOM     20  O   UNL     1       5.267   2.612  11.999  0.00  0.00    +0.000 OA
ENDBRANCH  13  20
ENDBRANCH  12  17
ENDBRANCH   1  12
TORSDOF 5
ENDMDL
MODEL 6
REMARK VINA RESULT:      -6.4      6.534      8.503
REMARK  Name = 
REMARK  6 active torsions:
REMARK  status: ('A' for Active; 'I' for Inactive)
REMARK    1  A    between atoms: C_1  and  O_2
REMARK    2  A    between atoms: O_2  and  C_3
REMARK    3  A    between atoms: C_7  and  O_8
REMARK    4  A    between atoms: O_8  and  C_9
REMARK    5  A    between atoms: C_9  and  C_10
REMARK    6  A    between atoms: N_12  and  C_13
REMARK                            x       y       z     vdW  Elec       q    Type
REMARK                         _______ _______ _______ _____ _____    ______ ____
ROOT
ATOM      1  C   UNL     1       6.274   4.183  16.719  0.00  0.00    +0.000 C 
ENDROOT
BRANCH   1   2
ATOM      2  C   UNL     1       4.880   4.370  17.297  0.00  0.00    +0.000 C 
ATOM      3  O   UNL     1       4.230   5.378  17.025  0.00  0.00    +0.000 OA
ATOM      4  N   UNL     1       4.465   3.315  18.093  0.00  0.00    +0.000 N 
ATOM      5  H   UNL     1       5.191   2.645  18.335  0.00  0.00    +0.000 HD
BRANCH   4   6
ATOM      6  C   UNL     1       3.230   3.221  18.762  0.00  0.00    +0.000 A 
ATOM      7  C   UNL     1       3.057   3.624  20.083  0.00  0.00    +0.000 A 
ATOM      8  C   UNL     1       1.830   3.417  20.683  0.00  0.00    +0.000 A 
ATOM      9  N   UNL     1       0.774   2.855  20.059  0.00  0.00    +0.000 NA
ATOM     10  C   UNL     1       0.954   2.506  18.769  0.00  0.00    +0.000 A 
ATOM     11  C   UNL     1       2.143   2.682  18.077  0.00  0.00    +0.000 A 
ENDBRANCH   4   6
ENDBRANCH   1   2
BRANCH   1  12
ATOM     12  O   UNL     1       6.550   5.188  15.751  0.00  0.00    +0.000 OA
BRANCH  12  17
ATOM     13  C   UNL     1       6.052   3.420  12.521  0.00  0.00    +0.000 A 
ATOM     14  C   UNL     1       7.041   4.075  11.783  0.00  0.00    +0.000 A 
ATOM     15  C   UNL     1       7.820   5.073  12.366  0.00  0.00    +0.000 A 
ATOM     16  C   UNL     1       7.615   5.417  13.700  0.00  0.00    +0.000 A 
ATOM     17  C   UNL     1       6.636   4.768  14.452  0.00  0.00    +0.000 A 
ATOM     18  C   UNL     1       5.850   3.775  13.858  0.00  0.00    +0.000 A 
BRANCH  13  20
ATOM     19  C   UNL     1       6.129   1.416  11.244  0.00  0.00    +0.000 C 
ATOM     20  O   UNL     1       5.363   2.461  11.834  0.00  0.00    +0.000 OA
ENDBRANCH  13  20
ENDBRANCH  12  17
ENDBRANCH   1  12
TORSDOF 5
ENDMDL
MODEL 7
REMARK VINA RESULT:      -6.4      6.348      8.369
REMARK  Name = 
REMARK  6 active torsions:
REMARK  status: ('A' for Active; 'I' for Inactive)
REMARK    1  A    between atoms: C_1  and  O_2
REMARK    2  A    between atoms: O_2  and  C_3
REMARK    3  A    between atoms: C_7  and  O_8
REMARK    4  A    between atoms: O_8  and  C_9
REMARK    5  A    between atoms: C_9  and  C_10
REMARK    6  A    between atoms: N_12  and  C_13
REMARK                            x       y       z     vdW  Elec       q    Type
REMARK                         _______ _______ _______ _____ _____    ______ ____
ROOT
ATOM      1  C   UNL     1       5.255   5.917  16.301  0.00  0.00    +0.000 C 
ENDROOT
BRANCH   1   2
ATOM      2  C   UNL     1       4.248   5.626  17.403  0.00  0.00    +0.000 C 
ATOM      3  O   UNL     1       3.814   6.543  18.098  0.00  0.00    +0.000 OA
ATOM      4  N   UNL     1       3.897   4.289  17.492  0.00  0.00    +0.000 N 
ATOM      5  H   UNL     1       4.472   3.653  16.945  0.00  0.00    +0.000 HD
BRANCH   4   6
ATOM      6  C   UNL     1       2.997   3.732  18.420  0.00  0.00    +0.000 A 
ATOM      7  C   UNL     1       1.644   3.554  18.144  0.00  0.00    +0.000 A 
ATOM      8  C   UNL     1       0.820   3.078  19.145  0.00  0.00    +0.000 A 
ATOM      9  N   UNL     1       1.251   2.758  20.383  0.00  0.00    +0.000 NA
ATOM     10  C   UNL     1       2.571   2.903  20.617  0.00  0.00    +0.000 A 
ATOM     11  C   UNL     1       3.479   3.365  19.674  0.00  0.00    +0.000 A 
ENDBRANCH   4   6
ENDBRANCH   1   2
BRANCH   1  12
ATOM     12  O   UNL     1       6.027   4.758  16.013  0.00  0.00    +0.000 OA
BRANCH  12  17
ATOM     13  C   UNL     1       5.918   3.467  12.531  0.00  0.00    +0.000 A 
ATOM     14  C   UNL     1       7.023   4.159  12.028  0.00  0.00    +0.000 A 
ATOM     15  C   UNL     1       7.749   5.026  12.843  0.00  0.00    +0.000 A 
ATOM     16  C   UNL     1       7.374   5.200  14.173  0.00  0.00    +0.000 A 
ATOM     17  C   UNL     1       6.278   4.511  14.691  0.00  0.00    +0.000 A 
ATOM     18  C   UNL     1       5.545   3.651  13.866  0.00  0.00    +0.000 A 
BRANCH  13  20
ATOM     19  C   UNL     1       4.045   3.091  11.115  0.00  0.00    +0.000 C 
ATOM     20  O   UNL     1       5.296   2.648  11.631  0.00  0.00    +0.000 OA
ENDBRANCH  13  20
ENDBRANCH  12  17
ENDBRANCH   1  12
TORSDOF 5
ENDMDL
MODEL 8
REMARK VINA RESULT:      -6.4      5.624      7.478
REMARK  Name = 
REMARK  6 active torsions:
REMARK  status: ('A' for Active; 'I' for Inactive)
REMARK    1  A    between atoms: C_1  and  O_2
REMARK    2  A    between atoms: O_2  and  C_3
REMARK    3  A    between atoms: C_7  and  O_8
REMARK    4  A    between atoms: O_8  and  C_9
REMARK    5  A    between atoms: C_9  and  C_10
REMARK    6  A    between atoms: N_12  and  C_13
REMARK                            x       y       z     vdW  Elec       q    Type
REMARK                         _______ _______ _______ _____ _____    ______ ____
ROOT
ATOM      1  C   UNL     1       3.606   3.955  19.745  0.00  0.00    +0.000 C 
ENDROOT
BRANCH   1   2
ATOM      2  C   UNL     1       2.610   5.018  19.306  0.00  0.00    +0.000 C 
ATOM      3  O   UNL     1       1.585   4.691  18.709  0.00  0.00    +0.000 OA
ATOM      4  N   UNL     1       2.979   6.304  19.665  0.00  0.00    +0.000 N 
ATOM      5  H   UNL     1       3.930   6.400  20.011  0.00  0.00    +0.000 HD
BRANCH   4   6
ATOM      6  C   UNL     1       2.256   7.479  19.383  0.00  0.00    +0.000 A 
ATOM      7  C   UNL     1       2.228   8.060  18.119  0.00  0.00    +0.000 A 
ATOM      8  C   UNL     1       1.561   9.258  17.955  0.00  0.00    +0.000 A 
ATOM      9  N   UNL     1       0.916   9.900  18.951  0.00  0.00    +0.000 NA
ATOM     10  C   UNL     1       0.924   9.300  20.159  0.00  0.00    +0.000 A 
ATOM     11  C   UNL     1       1.558   8.094  20.420  0.00  0.00    +0.000 A 
ENDBRANCH   4   6
ENDBRANCH   1   2
BRANCH   1  12
ATOM     12  O   UNL     1       4.305   3.434  18.622  0.00  0.00    +0.000 OA
BRANCH  12  17
ATOM     13  C   UNL     1       6.269   5.445  16.193  0.00  0.00    +0.000 A 
ATOM     14  C   UNL     1       7.200   5.981  17.086  0.00  0.00    +0.000 A 
ATOM     15  C   UNL     1       7.140   5.673  18.444  0.00  0.00    +0.000 A 
ATOM     16  C   UNL     1       6.147   4.818  18.915  0.00  0.00    +0.000 A 
ATOM     17  C   UNL     1       5.215   4.270  18.035  0.00  0.00    +0.000 A 
ATOM     18  C   UNL     1       5.272   4.591  16.674  0.00  0.00    +0.000 A 
BRANCH  13  20
ATOM     19  C   UNL     1       7.124   4.908  14.040  0.00  0.00    +0.000 C 
ATOM     20  O   UNL     1       6.440   5.822  14.891  0.00  0.00    +0.000 OA
ENDBRANCH  13  20
ENDBRANCH  12  17
ENDBRANCH   1  12
TORSDOF 5
ENDMDL
MODEL 9
REMARK VINA RESULT:      -6.3      6.021      8.170
REMARK  Name = 
REMARK  6 active torsions:
REMARK  status: ('A' for Active; 'I' for Inactive)
REMARK    1  A    between atoms: C_1  and  O_2
REMARK    2  A    between atoms: O_2  and  C_3
REMARK    3  A    between atoms: C_7  and  O_8
REMARK    4  A    between atoms: O_8  and  C_9
REMARK    5  A    between atoms: C_9  and  C_10
REMARK    6  A    between atoms: N_12  and  C_13
REMARK                            x       y       z     vdW  Elec       q    Type
REMARK                         _______ _______ _______ _____ _____    ______ ____
ROOT
ATOM      1  C   UNL     1       5.702   6.054  16.198  0.00  0.00    +0.000 C 
ENDROOT
BRANCH   1   2
ATOM      2  C   UNL     1       5.052   5.249  17.313  0.00  0.00    +0.000 C 
ATOM      3  O   UNL     1       5.633   5.106  18.388  0.00  0.00    +0.000 OA
ATOM      4  N   UNL     1       3.800   4.758  16.983  0.00  0.00    +0.000 N 
ATOM      5  H   UNL     1       3.548   4.839  16.002  0.00  0.00    +0.000 HD
BRANCH   4   6
ATOM      6  C   UNL     1       2.975   3.975  17.814  0.00  0.00    +0.000 A 
ATOM      7  C   UNL     1       1.961   4.520  18.595  0.00  0.00    +0.000 A 
ATOM      8  C   UNL     1       1.258   3.687  19.444  0.00  0.00    +0.000 A 
ATOM      9  N   UNL     1       1.486   2.361  19.553  0.00  0.00    +0.000 NA
ATOM     10  C   UNL     1       2.448   1.849  18.759  0.00  0.00    +0.000 A 
ATOM     11  C   UNL     1       3.201   2.602  17.870  0.00  0.00    +0.000 A 
ENDBRANCH   4   6
ENDBRANCH   1   2
BRANCH   1  12
ATOM     12  O   UNL     1       6.885   5.410  15.744  0.00  0.00    +0.000 OA
BRANCH  12  17
ATOM     13  C   UNL     1       6.082   3.558  12.624  0.00  0.00    +0.000 A 
ATOM     14  C   UNL     1       7.051   4.133  11.797  0.00  0.00    +0.000 A 
ATOM     15  C   UNL     1       7.916   5.108  12.290  0.00  0.00    +0.000 A 
ATOM     16  C   UNL     1       7.820   5.510  13.619  0.00  0.00    +0.000 A 
ATOM     17  C   UNL     1       6.862   4.941  14.459  0.00  0.00    +0.000 A 
ATOM     18  C   UNL     1       5.989   3.970  13.957  0.00  0.00    +0.000 A 
BRANCH  13  20
ATOM     19  C   UNL     1       4.178   3.083  11.281  0.00  0.00    +0.000 C 
ATOM     20  O   UNL     1       5.301   2.614  12.021  0.00  0.00    +0.000 OA
ENDBRANCH  13  20
ENDBRANCH  12  17
ENDBRANCH   1  12
TORSDOF 5
ENDMDL
