MODEL 1
REMARK VINA RESULT:      -7.1      0.000      0.000
REMARK  Name = 
REMARK  7 active torsions:
REMARK  status: ('A' for Active; 'I' for Inactive)
REMARK    1  A    between atoms: C_1  and  C_2
REMARK    2  A    between atoms: C_2  and  C_3
REMARK    3  A    between atoms: C_3  and  C_4
REMARK    4  A    between atoms: C_3  and  N_7
REMARK    5  A    between atoms: C_9  and  C_10
REMARK    6  A    between atoms: C_14  and  O_15
REMARK    7  A    between atoms: O_15  and  C_16
REMARK                            x       y       z     vdW  Elec       q    Type
REMARK                         _______ _______ _______ _____ _____    ______ ____
ROOT
ATOM      1  N   UNL     1       2.478   3.967  18.946  0.00  0.00    +0.000 N 
ATOM      2  C   UNL     1       3.725   3.258  19.120  0.00  0.00    +0.000 C 
ATOM      3  C   UNL     1       4.180   2.945  17.692  0.00  0.00    +0.000 C 
ATOM      4  C   UNL     1       2.861   2.843  16.919  0.00  0.00    +0.000 C 
ATOM      5  C   UNL     1       1.938   3.755  17.689  0.00  0.00    +0.000 C 
ATOM      6  O   UNL     1       0.860   4.168  17.290  0.00  0.00    +0.000 OA
ENDROOT
BRANCH   3   7
ATOM      7  C   UNL     1       5.108   4.003  17.106  0.00  0.00    +0.000 A 
ATOM      8  C   UNL     1       5.226   4.212  15.725  0.00  0.00    +0.000 A 
ATOM      9  C   UNL     1       6.107   5.168  15.218  0.00  0.00    +0.000 A 
ATOM     10  C   UNL     1       6.888   5.920  16.090  0.00  0.00    +0.000 A 
ATOM     11  C   UNL     1       6.789   5.732  17.470  0.00  0.00    +0.000 A 
ATOM     12  C   UNL     1       5.898   4.782  17.973  0.00  0.00    +0.000 A 
BRANCH  11  13
ATOM     13  O   UNL     1       7.620   6.527  18.209  0.00  0.00    +0.000 OA
ATOM     14  C   UNL     1       7.799   7.864  17.761  0.00  0.00    +0.000 C 
ENDBRANCH  11  13
ENDBRANCH   3   7
BRANCH   1  15
ATOM     15  C   UNL     1       1.892   4.777  20.032  0.00  0.00    +0.000 C 
BRANCH  15  16
ATOM     16  C   UNL     1       2.339   6.254  19.975  0.00  0.00    +0.000 C 
ATOM     17  N   UNL     1       1.824   7.104  20.907  0.00  0.00    +0.000 N 
ATOM     18  O   UNL     1       3.032   6.698  19.060  0.00  0.00    +0.000 OA
ATOM     19  H   UNL     1       1.035   6.821  21.487  0.00  0.00    +0.000 HD
ATOM     20  H   UNL     1       2.007   8.091  20.805  0.00  0.00    +0.000 HD
ENDBRANCH  15  16
BRANCH  15  22
ATOM     21  C   UNL     1       1.370   2.843  21.624  0.00  0.00    +0.000 C 
ATOM     22  C   UNL     1       2.145   4.136  21.405  0.00  0.00    +0.000 C 
ENDBRANCH  15  22
ENDBRANCH   1  15
TORSDOF 5
ENDMDL
MODEL 2
REMARK VINA RESULT:      -7.1      2.037      3.280
REMARK  Name = 
REMARK  7 active torsions:
REMARK  status: ('A' for Active; 'I' for Inactive)
REMARK    1  A    between atoms: C_1  and  C_2
REMARK    2  A    between atoms: C_2  and  C_3
REMARK    3  A    between atoms: C_3  and  C_4
REMARK    4  A    between atoms: C_3  and  N_7
REMARK    5  A    between atoms: C_9  and  C_10
REMARK    6  A    between atoms: C_14  and  O_15
REMARK    7  A    between atoms: O_15  and  C_16
REMARK                            x       y       z     vdW  Elec       q    Type
REMARK                         _______ _______ _______ _____ _____    ______ ____
ROOT
ATOM      1  N   UNL     1       3.381   4.234  18.965  0.00  0.00    +0.000 N 
ATOM      2  C   UNL     1       4.091   4.070  17.717  0.00  0.00    +0.000 C 
ATOM      3  C   UNL     1       4.385   5.502  17.261  0.00  0.00    +0.000 C 
ATOM      4  C   UNL     1       3.228   6.306  17.866  0.00  0.00    +0.000 C 
ATOM      5  C   UNL     1       2.861   5.511  19.095  0.00  0.00    +0.000 C 
ATOM      6  O   UNL     1       2.157   5.912  20.009  0.00  0.00    +0.000 OA
ENDROOT
BRANCH   3   7
ATOM      7  C   UNL     1       5.743   6.017  17.721  0.00  0.00    +0.000 A 
ATOM      8  C   UNL     1       6.535   5.317  18.642  0.00  0.00    +0.000 A 
ATOM      9  C   UNL     1       7.761   5.831  19.068  0.00  0.00    +0.000 A 
ATOM     10  C   UNL     1       8.204   7.056  18.581  0.00  0.00    +0.000 A 
ATOM     11  C   UNL     1       7.436   7.773  17.662  0.00  0.00    +0.000 A 
ATOM     12  C   UNL     1       6.215   7.250  17.231  0.00  0.00    +0.000 A 
BRANCH  11  13
ATOM     13  O   UNL     1       7.982   8.964  17.276  0.00  0.00    +0.000 OA
ATOM     14  C   UNL     1       8.674   9.708  18.270  0.00  0.00    +0.000 C 
ENDBRANCH  11  13
ENDBRANCH   3   7
BRANCH   1  15
ATOM     15  C   UNL     1       3.239   3.123  19.925  0.00  0.00    +0.000 C 
BRANCH  15  16
ATOM     16  C   UNL     1       4.233   1.974  19.649  0.00  0.00    +0.000 C 
ATOM     17  N   UNL     1       3.933   1.111  18.637  0.00  0.00    +0.000 N 
ATOM     18  O   UNL     1       5.199   1.748  20.377  0.00  0.00    +0.000 OA
ATOM     19  H   UNL     1       3.005   1.109  18.216  0.00  0.00    +0.000 HD
ATOM     20  H   UNL     1       4.504   0.286  18.529  0.00  0.00    +0.000 HD
ENDBRANCH  15  16
BRANCH  15  22
ATOM     21  C   UNL     1       1.176   2.777  21.398  0.00  0.00    +0.000 C 
ATOM     22  C   UNL     1       1.784   2.639  20.007  0.00  0.00    +0.000 C 
ENDBRANCH  15  22
ENDBRANCH   1  15
TORSDOF 5
ENDMDL
MODEL 3
REMARK VINA RESULT:      -7.0      1.057      1.858
REMARK  Name = 
REMARK  7 active torsions:
REMARK  status: ('A' for Active; 'I' for Inactive)
REMARK    1  A    between atoms: C_1  and  C_2
REMARK    2  A    between atoms: C_2  and  C_3
REMARK    3  A    between atoms: C_3  and  C_4
REMARK    4  A    between atoms: C_3  and  N_7
REMARK    5  A    between atoms: C_9  and  C_10
REMARK    6  A    between atoms: C_14  and  O_15
REMARK    7  A    between atoms: O_15  and  C_16
REMARK                            x       y       z     vdW  Elec       q    Type
REMARK                         _______ _______ _______ _____ _____    ______ ____
ROOT
ATOM      1  N   UNL     1       2.553   3.996  19.059  0.00  0.00    +0.000 N 
ATOM      2  C   UNL     1       3.759   3.239  19.303  0.00  0.00    +0.000 C 
ATOM      3  C   UNL     1       4.388   3.079  17.916  0.00  0.00    +0.000 C 
ATOM      4  C   UNL     1       3.177   3.100  16.978  0.00  0.00    +0.000 C 
ATOM      5  C   UNL     1       2.174   3.942  17.728  0.00  0.00    +0.000 C 
ATOM      6  O   UNL     1       1.160   4.426  17.248  0.00  0.00    +0.000 OA
ENDROOT
BRANCH   3   7
ATOM      7  C   UNL     1       5.395   4.172  17.577  0.00  0.00    +0.000 A 
ATOM      8  C   UNL     1       5.790   5.140  18.511  0.00  0.00    +0.000 A 
ATOM      9  C   UNL     1       6.690   6.147  18.161  0.00  0.00    +0.000 A 
ATOM     10  C   UNL     1       7.200   6.200  16.867  0.00  0.00    +0.000 A 
ATOM     11  C   UNL     1       6.824   5.247  15.919  0.00  0.00    +0.000 A 
ATOM     12  C   UNL     1       5.931   4.235  16.277  0.00  0.00    +0.000 A 
BRANCH  11  13
ATOM     13  O   UNL     1       7.389   5.423  14.687  0.00  0.00    +0.000 OA
ATOM     14  C   UNL     1       6.945   4.564  13.646  0.00  0.00    +0.000 C 
ENDBRANCH  11  13
ENDBRANCH   3   7
BRANCH   1  15
ATOM     15  C   UNL     1       1.844   4.692  20.149  0.00  0.00    +0.000 C 
BRANCH  15  16
ATOM     16  C   UNL     1       2.150   6.205  20.182  0.00  0.00    +0.000 C 
ATOM     17  N   UNL     1       1.527   6.954  21.136  0.00  0.00    +0.000 N 
ATOM     18  O   UNL     1       2.826   6.760  19.317  0.00  0.00    +0.000 OA
ATOM     19  H   UNL     1       0.751   6.567  21.673  0.00  0.00    +0.000 HD
ATOM     20  H   UNL     1       1.618   7.957  21.090  0.00  0.00    +0.000 HD
ENDBRANCH  15  16
BRANCH  15  22
ATOM     21  C   UNL     1       1.334   2.699  21.671  0.00  0.00    +0.000 C 
ATOM     22  C   UNL     1       2.093   4.010  21.503  0.00  0.00    +0.000 C 
ENDBRANCH  15  22
ENDBRANCH   1  15
TORSDOF 5
ENDMDL
MODEL 4
REMARK VINA RESULT:      -7.0      2.739      6.059
REMARK  Name = 
REMARK  7 active torsions:
REMARK  status: ('A' for Active; 'I' for Inactive)
REMARK    1  A    between atoms: C_1  and  C_2
REMARK    2  A    between atoms: C_2  and  C_3
REMARK    3  A    between atoms: C_3  and  C_4
REMARK    4  A    between atoms: C_3  and  N_7
REMARK    5  A    between atoms: C_9  and  C_10
REMARK    6  A    between atoms: C_14  and  O_15
REMARK    7  A    between atoms: O_15  and  C_16
REMARK                            x       y       z     vdW  Elec       q    Type
REMARK                         _______ _______ _______ _____ _____    ______ ____
ROOT
ATOM      1  N   UNL     1       5.350   5.639  17.834  0.00  0.00    +0.000 N 
ATOM      2  C   UNL     1       4.038   5.538  17.238  0.00  0.00    +0.000 C 
ATOM      3  C   UNL     1       3.111   5.239  18.419  0.00  0.00    +0.000 C 
ATOM      4  C   UNL     1       4.023   4.495  19.400  0.00  0.00    +0.000 C 
ATOM      5  C   UNL     1       5.392   5.046  19.085  0.00  0.00    +0.000 C 
ATOM      6  O   UNL     1       6.383   4.918  19.788  0.00  0.00    +0.000 OA
ENDROOT
BRANCH   3   7
ATOM      7  C   UNL     1       2.500   6.490  19.040  0.00  0.00    +0.000 A 
ATOM      8  C   UNL     1       2.041   6.518  20.364  0.00  0.00    +0.000 A 
ATOM      9  C   UNL     1       1.457   7.669  20.895  0.00  0.00    +0.000 A 
ATOM     10  C   UNL     1       1.320   8.804  20.102  0.00  0.00    +0.000 A 
ATOM     11  C   UNL     1       1.770   8.803  18.780  0.00  0.00    +0.000 A 
ATOM     12  C   UNL     1       2.363   7.652  18.257  0.00  0.00    +0.000 A 
BRANCH  11  13
ATOM     13  O   UNL     1       1.562   9.976  18.112  0.00  0.00    +0.000 OA
ATOM     14  C   UNL     1       0.398  10.715  18.454  0.00  0.00    +0.000 C 
ENDBRANCH  11  13
ENDBRANCH   3   7
BRANCH   1  15
ATOM     15  C   UNL     1       6.474   6.282  17.126  0.00  0.00    +0.000 C 
BRANCH  15  16
ATOM     16  C   UNL     1       7.251   5.293  16.230  0.00  0.00    +0.000 C 
ATOM     17  N   UNL     1       7.882   4.251  16.841  0.00  0.00    +0.000 N 
ATOM     18  O   UNL     1       7.414   5.483  15.025  0.00  0.00    +0.000 OA
ATOM     19  H   UNL     1       8.000   4.239  17.854  0.00  0.00    +0.000 HD
ATOM     20  H   UNL     1       8.495   3.674  16.286  0.00  0.00    +0.000 HD
ENDBRANCH  15  16
BRANCH  15  22
ATOM     21  C   UNL     1       7.824   8.406  17.587  0.00  0.00    +0.000 C 
ATOM     22  C   UNL     1       7.389   7.039  18.101  0.00  0.00    +0.000 C 
ENDBRANCH  15  22
ENDBRANCH   1  15
TORSDOF 5
ENDMDL
MODEL 5
REMARK VINA RESULT:      -6.9      2.484      5.499
REMARK  Name = 
REMARK  7 active torsions:
REMARK  status: ('A' for Active; 'I' for Inactive)
REMARK    1  A    between atoms: C_1  and  C_2
REMARK    2  A    between atoms: C_2  and  C_3
REMARK    3  A    between atoms: C_3  and  C_4
REMARK    4  A    between atoms: C_3  and  N_7
REMARK    5  A    between atoms: C_9  and  C_10
REMARK    6  A    between atoms: C_14  and  O_15
REMARK    7  A    between atoms: O_15  and  C_16
REMARK                            x       y       z     vdW  Elec       q    Type
REMARK                         _______ _______ _______ _____ _____    ______ ____
ROOT
ATOM      1  N   UNL     1       5.079   4.372  17.328  0.00  0.00    +0.000 N 
ATOM      2  C   UNL     1       3.659   4.115  17.242  0.00  0.00    +0.000 C 
ATOM      3  C   UNL     1       3.164   4.260  18.684  0.00  0.00    +0.000 C 
ATOM      4  C   UNL     1       4.388   3.863  19.516  0.00  0.00    +0.000 C 
ATOM      5  C   UNL     1       5.548   4.235  18.624  0.00  0.00    +0.000 C 
ATOM      6  O   UNL     1       6.712   4.321  18.981  0.00  0.00    +0.000 OA
ENDROOT
BRANCH   3   7
ATOM      7  C   UNL     1       2.675   5.664  19.017  0.00  0.00    +0.000 A 
ATOM      8  C   UNL     1       2.124   5.987  20.265  0.00  0.00    +0.000 A 
ATOM      9  C   UNL     1       1.656   7.275  20.529  0.00  0.00    +0.000 A 
ATOM     10  C   UNL     1       1.728   8.253  19.543  0.00  0.00    +0.000 A 
ATOM     11  C   UNL     1       2.272   7.958  18.292  0.00  0.00    +0.000 A 
ATOM     12  C   UNL     1       2.749   6.671  18.036  0.00  0.00    +0.000 A 
BRANCH  11  13
ATOM     13  O   UNL     1       2.270   9.005  17.413  0.00  0.00    +0.000 OA
ATOM     14  C   UNL     1       1.914  10.279  17.932  0.00  0.00    +0.000 C 
ENDBRANCH  11  13
ENDBRANCH   3   7
BRANCH   1  15
ATOM     15  C   UNL     1       5.877   4.704  16.133  0.00  0.00    +0.000 C 
BRANCH  15  16
ATOM     16  C   UNL     1       6.217   6.208  16.048  0.00  0.00    +0.000 C 
ATOM     17  N   UNL     1       7.390   6.621  16.605  0.00  0.00    +0.000 N 
ATOM     18  O   UNL     1       5.422   7.041  15.614  0.00  0.00    +0.000 OA
ATOM     19  H   UNL     1       7.919   6.001  17.218  0.00  0.00    +0.000 HD
ATOM     20  H   UNL     1       7.564   7.613  16.670  0.00  0.00    +0.000 HD
ENDBRANCH  15  16
BRANCH  15  22
ATOM     21  C   UNL     1       6.196   3.930  13.715  0.00  0.00    +0.000 C 
ATOM     22  C   UNL     1       5.213   4.176  14.852  0.00  0.00    +0.000 C 
ENDBRANCH  15  22
ENDBRANCH   1  15
TORSDOF 5
ENDMDL
MODEL 6
REMARK VINA RESULT:      -6.9      2.652      4.813
REMARK  Name = 
REMARK  7 active torsions:
REMARK  status: ('A' for Active; 'I' for Inactive)
REMARK    1  A    between atoms: C_1  and  C_2
REMARK    2  A    between atoms: C_2  and  C_3
REMARK    3  A    between atoms: C_3  and  C_4
REMARK    4  A    between atoms: C_3  and  N_7
REMARK    5  A    between atoms: C_9  and  C_10
REMARK    6  A    between atoms: C_14  and  O_15
REMARK    7  A    between atoms: O_15  and  C_16
REMARK                            x       y       z     vdW  Elec       q    Type
REMARK                         _______ _______ _______ _____ _____    ______ ____
ROOT
ATOM      1  N   UNL     1       3.805   4.078  18.922  0.00  0.00    +0.000 N 
ATOM      2  C   UNL     1       4.630   5.223  19.233  0.00  0.00    +0.000 C 
ATOM      3  C   UNL     1       4.324   6.222  18.114  0.00  0.00    +0.000 C 
ATOM      4  C   UNL     1       3.954   5.319  16.932  0.00  0.00    +0.000 C 
ATOM      5  C   UNL     1       3.393   4.088  17.599  0.00  0.00    +0.000 C 
ATOM      6  O   UNL     1       2.750   3.213  17.040  0.00  0.00    +0.000 OA
ENDROOT
BRANCH   3   7
ATOM      7  C   UNL     1       3.207   7.198  18.461  0.00  0.00    +0.000 A 
ATOM      8  C   UNL     1       2.780   8.193  17.572  0.00  0.00    +0.000 A 
ATOM      9  C   UNL     1       1.775   9.092  17.931  0.00  0.00    +0.000 A 
ATOM     10  C   UNL     1       1.191   9.009  19.191  0.00  0.00    +0.000 A 
ATOM     11  C   UNL     1       1.597   8.027  20.096  0.00  0.00    +0.000 A 
ATOM     12  C   UNL     1       2.595   7.123  19.727  0.00  0.00    +0.000 A 
BRANCH  11  13
ATOM     13  O   UNL     1       0.951   8.065  21.300  0.00  0.00    +0.000 OA
ATOM     14  C   UNL     1       1.227   9.175  22.143  0.00  0.00    +0.000 C 
ENDBRANCH  11  13
ENDBRANCH   3   7
BRANCH   1  15
ATOM     15  C   UNL     1       3.505   3.044  19.930  0.00  0.00    +0.000 C 
BRANCH  15  16
ATOM     16  C   UNL     1       4.421   1.808  19.800  0.00  0.00    +0.000 C 
ATOM     17  N   UNL     1       4.192   0.961  18.757  0.00  0.00    +0.000 N 
ATOM     18  O   UNL     1       5.251   1.508  20.658  0.00  0.00    +0.000 OA
ATOM     19  H   UNL     1       3.336   1.036  18.208  0.00  0.00    +0.000 HD
ATOM     20  H   UNL     1       4.696   0.088  18.732  0.00  0.00    +0.000 HD
ENDBRANCH  15  16
BRANCH  15  22
ATOM     21  C   UNL     1       1.117   3.775  20.484  0.00  0.00    +0.000 C 
ATOM     22  C   UNL     1       2.014   2.677  19.927  0.00  0.00    +0.000 C 
ENDBRANCH  15  22
ENDBRANCH   1  15
TORSDOF 5
ENDMDL
MODEL 7
REMARK VINA RESULT:      -6.9      2.571      5.621
REMARK  Name = 
REMARK  7 active torsions:
REMARK  status: ('A' for Active; 'I' for Inactive)
REMARK    1  A    between atoms: C_1  and  C_2
REMARK    2  A    between atoms: C_2  and  C_3
REMARK    3  A    between atoms: C_3  and  C_4
REMARK    4  A    between atoms: C_3  and  N_7
REMARK    5  A    between atoms: C_9  and  C_10
REMARK    6  A    between atoms: C_14  and  O_15
REMARK    7  A    between atoms: O_15  and  C_16
REMARK                            x       y       z     vdW  Elec       q    Type
REMARK                         _______ _______ _______ _____ _____    ______ ____
ROOT
ATOM      1  N   UNL     1       4.975   4.470  17.578  0.00  0.00    +0.000 N 
ATOM      2  C   UNL     1       3.561   4.280  17.353  0.00  0.00    +0.000 C 
ATOM      3  C   UNL     1       2.921   4.586  18.711  0.00  0.00    +0.000 C 
ATOM      4  C   UNL     1       4.020   4.205  19.709  0.00  0.00    +0.000 C 
ATOM      5  C   UNL     1       5.291   4.430  18.926  0.00  0.00    +0.000 C 
ATOM      6  O   UNL     1       6.413   4.489  19.404  0.00  0.00    +0.000 OA
ENDROOT
BRANCH   3   7
ATOM      7  C   UNL     1       2.487   6.039  18.862  0.00  0.00    +0.000 A 
ATOM      8  C   UNL     1       2.494   6.937  17.787  0.00  0.00    +0.000 A 
ATOM      9  C   UNL     1       2.121   8.270  17.964  0.00  0.00    +0.000 A 
ATOM     10  C   UNL     1       1.742   8.720  19.225  0.00  0.00    +0.000 A 
ATOM     11  C   UNL     1       1.725   7.846  20.313  0.00  0.00    +0.000 A 
ATOM     12  C   UNL     1       2.089   6.510  20.128  0.00  0.00    +0.000 A 
BRANCH  11  13
ATOM     13  O   UNL     1       1.346   8.420  21.494  0.00  0.00    +0.000 OA
ATOM     14  C   UNL     1       0.466   9.533  21.415  0.00  0.00    +0.000 C 
ENDBRANCH  11  13
ENDBRANCH   3   7
BRANCH   1  15
ATOM     15  C   UNL     1       5.919   4.646  16.457  0.00  0.00    +0.000 C 
BRANCH  15  16
ATOM     16  C   UNL     1       6.231   6.133  16.177  0.00  0.00    +0.000 C 
ATOM     17  N   UNL     1       7.454   6.601  16.554  0.00  0.00    +0.000 N 
ATOM     18  O   UNL     1       5.385   6.915  15.746  0.00  0.00    +0.000 OA
ATOM     19  H   UNL     1       8.054   6.049  17.167  0.00  0.00    +0.000 HD
ATOM     20  H   UNL     1       7.624   7.594  16.493  0.00  0.00    +0.000 HD
ENDBRANCH  15  16
BRANCH  15  22
ATOM     21  C   UNL     1       6.342   4.110  13.992  0.00  0.00    +0.000 C 
ATOM     22  C   UNL     1       5.444   3.896  15.204  0.00  0.00    +0.000 C 
ENDBRANCH  15  22
ENDBRANCH   1  15
TORSDOF 5
ENDMDL
MODEL 8
REMARK VINA RESULT:      -6.9      2.745      5.646
REMARK  Name = 
REMARK  7 active torsions:
REMARK  status: ('A' for Active; 'I' for Inactive)
REMARK    1  A    between atoms: C_1  and  C_2
REMARK    2  A    between atoms: C_2  and  C_3
REMARK    3  A    between atoms: C_3  and  C_4
REMARK    4  A    between atoms: C_3  and  N_7
REMARK    5  A    between atoms: C_9  and  C_10
REMARK    6  A    between atoms: C_14  and  O_15
REMARK    7  A    between atoms: O_15  and  C_16
REMARK                            x       y       z     vdW  Elec       q    Type
REMARK                         _______ _______ _______ _____ _____    ______ ____
ROOT
ATOM      1  N   UNL     1       5.691   6.443  17.447  0.00  0.00    +0.000 N 
ATOM      2  C   UNL     1       5.101   6.408  18.766  0.00  0.00    +0.000 C 
ATOM      3  C   UNL     1       3.596   6.316  18.500  0.00  0.00    +0.000 C 
ATOM      4  C   UNL     1       3.434   7.026  17.153  0.00  0.00    +0.000 C 
ATOM      5  C   UNL     1       4.766   6.800  16.480  0.00  0.00    +0.000 C 
ATOM      6  O   UNL     1       4.997   6.980  15.295  0.00  0.00    +0.000 OA
ENDROOT
BRANCH   3   7
ATOM      7  C   UNL     1       3.074   4.884  18.460  0.00  0.00    +0.000 A 
ATOM      8  C   UNL     1       1.782   4.571  18.018  0.00  0.00    +0.000 A 
ATOM      9  C   UNL     1       1.322   3.254  18.022  0.00  0.00    +0.000 A 
ATOM     10  C   UNL     1       2.152   2.234  18.476  0.00  0.00    +0.000 A 
ATOM     11  C   UNL     1       3.444   2.517  18.921  0.00  0.00    +0.000 A 
ATOM     12  C   UNL     1       3.903   3.836  18.905  0.00  0.00    +0.000 A 
BRANCH  11  13
ATOM     13  O   UNL     1       4.146   1.427  19.351  0.00  0.00    +0.000 OA
ATOM     14  C   UNL     1       4.836   1.551  20.587  0.00  0.00    +0.000 C 
ENDBRANCH  11  13
ENDBRANCH   3   7
BRANCH   1  15
ATOM     15  C   UNL     1       7.122   6.154  17.233  0.00  0.00    +0.000 C 
BRANCH  15  16
ATOM     16  C   UNL     1       7.418   4.639  17.189  0.00  0.00    +0.000 C 
ATOM     17  N   UNL     1       6.527   3.842  16.535  0.00  0.00    +0.000 N 
ATOM     18  O   UNL     1       8.346   4.130  17.816  0.00  0.00    +0.000 OA
ATOM     19  H   UNL     1       5.613   4.202  16.261  0.00  0.00    +0.000 HD
ATOM     20  H   UNL     1       6.640   2.842  16.606  0.00  0.00    +0.000 HD
ENDBRANCH  15  16
BRANCH  15  22
ATOM     21  C   UNL     1       8.146   8.385  17.955  0.00  0.00    +0.000 C 
ATOM     22  C   UNL     1       8.000   6.897  18.251  0.00  0.00    +0.000 C 
ENDBRANCH  15  22
ENDBRANCH   1  15
TORSDOF 5
ENDMDL
MODEL 9
REMARK VINA RESULT:      -6.9      2.477      5.839
REMARK  Name = 
REMARK  7 active torsions:
REMARK  status: ('A' for Active; 'I' for Inactive)
REMARK    1  A    between atoms: C_1  and  C_2
REMARK    2  A    between atoms: C_2  and  C_3
REMARK    3  A    between atoms: C_3  and  C_4
REMARK    4  A    between atoms: C_3  and  N_7
REMARK    5  A    between atoms: C_9  and  C_10
REMARK    6  A    between atoms: C_14  and  O_15
REMARK    7  A    between atoms: O_15  and  C_16
REMARK                            x       y       z     vdW  Elec       q    Type
REMARK                         _______ _______ _______ _____ _____    ______ ____
ROOT
ATOM      1  N   UNL     1       5.720   6.382  17.514  0.00  0.00    +0.000 N 
ATOM      2  C   UNL     1       5.155   6.262  18.839  0.00  0.00    +0.000 C 
ATOM      3  C   UNL     1       3.648   6.151  18.596  0.00  0.00    +0.000 C 
ATOM      4  C   UNL     1       3.446   6.931  17.292  0.00  0.00    +0.000 C 
ATOM      5  C   UNL     1       4.770   6.770  16.585  0.00  0.00    +0.000 C 
ATOM      6  O   UNL     1       4.975   7.019  15.407  0.00  0.00    +0.000 OA
ENDROOT
BRANCH   3   7
ATOM      7  C   UNL     1       3.156   4.713  18.486  0.00  0.00    +0.000 A 
ATOM      8  C   UNL     1       3.085   4.039  17.259  0.00  0.00    +0.000 A 
ATOM      9  C   UNL     1       2.600   2.732  17.187  0.00  0.00    +0.000 A 
ATOM     10  C   UNL     1       2.175   2.088  18.345  0.00  0.00    +0.000 A 
ATOM     11  C   UNL     1       2.236   2.736  19.579  0.00  0.00    +0.000 A 
ATOM     12  C   UNL     1       2.732   4.040  19.647  0.00  0.00    +0.000 A 
BRANCH  11  13
ATOM     13  O   UNL     1       1.776   1.994  20.630  0.00  0.00    +0.000 OA
ATOM     14  C   UNL     1       1.347   2.706  21.783  0.00  0.00    +0.000 C 
ENDBRANCH  11  13
ENDBRANCH   3   7
BRANCH   1  15
ATOM     15  C   UNL     1       7.152   6.136  17.260  0.00  0.00    +0.000 C 
BRANCH  15  16
ATOM     16  C   UNL     1       7.489   4.631  17.184  0.00  0.00    +0.000 C 
ATOM     17  N   UNL     1       6.681   3.842  16.420  0.00  0.00    +0.000 N 
ATOM     18  O   UNL     1       8.369   4.116  17.873  0.00  0.00    +0.000 OA
ATOM     19  H   UNL     1       5.787   4.194  16.079  0.00  0.00    +0.000 HD
ATOM     20  H   UNL     1       6.812   2.843  16.463  0.00  0.00    +0.000 HD
ENDBRANCH  15  16
BRANCH  15  22
ATOM     21  C   UNL     1       8.154   8.379  17.975  0.00  0.00    +0.000 C 
ATOM     22  C   UNL     1       8.036   6.888  18.266  0.00  0.00    +0.000 C 
ENDBRANCH  15  22
ENDBRANCH   1  15
TORSDOF 5
ENDMDL
