MODEL 1
REMARK VINA RESULT:      -9.2      0.000      0.000
REMARK  Name = 
REMARK  5 active torsions:
REMARK  status: ('A' for Active; 'I' for Inactive)
REMARK    1  A    between atoms: C_11  and  C_12
REMARK    2  A    between atoms: C_16  and  C_17
REMARK    3  A    between atoms: C_18  and  C_19
REMARK    4  A    between atoms: C_22  and  C_23
REMARK    5  A    between atoms: C_23  and  O_25
REMARK                            x       y       z     vdW  Elec       q    Type
REMARK                         _______ _______ _______ _____ _____    ______ ____
ROOT
ATOM      1  C   UNL     1       0.866   9.932  20.018  0.00  0.00    +0.000 A 
ATOM      2  C   UNL     1       1.348   9.931  18.706  0.00  0.00    +0.000 A 
ATOM      3  C   UNL     1       2.001   8.807  18.171  0.00  0.00    +0.000 A 
ATOM      4  C   UNL     1       2.175   7.667  18.982  0.00  0.00    +0.000 A 
ATOM      5  C   UNL     1       2.730   6.352  18.835  0.00  0.00    +0.000 A 
ATOM      6  N   UNL     1       2.632   5.655  19.982  0.00  0.00    +0.000 NA
ATOM      7  N   UNL     1       2.036   6.502  20.832  0.00  0.00    +0.000 N 
ATOM      8  C   UNL     1       1.717   7.716  20.295  0.00  0.00    +0.000 A 
ATOM      9  C   UNL     1       1.065   8.827  20.850  0.00  0.00    +0.000 A 
ATOM     10  H   UNL     1       1.865   6.184  21.777  0.00  0.00    +0.000 HD
ENDROOT
BRANCH   1  21
ATOM     11  O   UNL     1      -1.273  13.565  21.225  0.00  0.00    +0.000 OA
ATOM     12  C   UNL     1      -1.668  12.807  20.361  0.00  0.00    +0.000 C 
ATOM     13  N   UNL     1      -2.763  12.977  19.528  0.00  0.00    +0.000 N 
ATOM     14  C   UNL     1      -2.910  11.902  18.657  0.00  0.00    +0.000 A 
ATOM     15  C   UNL     1      -3.900  11.745  17.705  0.00  0.00    +0.000 A 
ATOM     16  C   UNL     1      -3.881  10.573  16.948  0.00  0.00    +0.000 A 
ATOM     17  C   UNL     1      -2.894   9.596  17.163  0.00  0.00    +0.000 A 
ATOM     18  C   UNL     1      -1.899   9.779  18.132  0.00  0.00    +0.000 A 
ATOM     19  C   UNL     1      -1.905  10.950  18.869  0.00  0.00    +0.000 A 
ATOM     20  C   UNL     1      -1.059  11.496  19.938  0.00  0.00    +0.000 C 
ATOM     21  C   UNL     1       0.098  11.089  20.481  0.00  0.00    +0.000 C 
ATOM     22  H   UNL     1      -3.361  13.788  19.572  0.00  0.00    +0.000 HD
ENDBRANCH   1  21
BRANCH   5  23
ATOM     23  C   UNL     1       3.323   5.818  17.641  0.00  0.00    +0.000 C 
ATOM     24  C   UNL     1       4.651   5.699  17.436  0.00  0.00    +0.000 C 
BRANCH  24  25
ATOM     25  C   UNL     1       5.285   5.228  16.195  0.00  0.00    +0.000 A 
ATOM     26  C   UNL     1       4.557   4.371  15.359  0.00  0.00    +0.000 A 
ATOM     27  C   UNL     1       5.118   3.885  14.174  0.00  0.00    +0.000 A 
ATOM     28  C   UNL     1       6.412   4.258  13.793  0.00  0.00    +0.000 A 
ATOM     29  C   UNL     1       7.139   5.130  14.611  0.00  0.00    +0.000 A 
ATOM     30  C   UNL     1       6.573   5.614  15.800  0.00  0.00    +0.000 A 
BRANCH  28  31
ATOM     31  C   UNL     1       6.918   3.739  12.493  0.00  0.00    +0.000 C 
ATOM     32  O   UNL     1       7.561   4.432  11.722  0.00  0.00    +0.000 OA
BRANCH  31  33
ATOM     33  O   UNL     1       6.581   2.464  12.213  0.00  0.00    +0.000 OA
ATOM     34  H   UNL     1       7.270   1.917  11.798  0.00  0.00    +0.000 HD
ENDBRANCH  31  33
ENDBRANCH  28  31
ENDBRANCH  24  25
ENDBRANCH   5  23
TORSDOF 5
ENDMDL
MODEL 2
REMARK VINA RESULT:      -9.0      3.368     11.247
REMARK  Name = 
REMARK  5 active torsions:
REMARK  status: ('A' for Active; 'I' for Inactive)
REMARK    1  A    between atoms: C_11  and  C_12
REMARK    2  A    between atoms: C_16  and  C_17
REMARK    3  A    between atoms: C_18  and  C_19
REMARK    4  A    between atoms: C_22  and  C_23
REMARK    5  A    between atoms: C_23  and  O_25
REMARK                            x       y       z     vdW  Elec       q    Type
REMARK                         _______ _______ _______ _____ _____    ______ ____
ROOT
ATOM      1  C   UNL     1       2.178   6.442  19.042  0.00  0.00    +0.000 A 
ATOM      2  C   UNL     1       1.844   6.782  20.356  0.00  0.00    +0.000 A 
ATOM      3  C   UNL     1       1.463   8.093  20.694  0.00  0.00    +0.000 A 
ATOM      4  C   UNL     1       1.429   9.077  19.685  0.00  0.00    +0.000 A 
ATOM      5  C   UNL     1       1.082  10.466  19.588  0.00  0.00    +0.000 A 
ATOM      6  N   UNL     1       1.253  10.920  18.333  0.00  0.00    +0.000 NA
ATOM      7  N   UNL     1       1.695   9.853  17.654  0.00  0.00    +0.000 N 
ATOM      8  C   UNL     1       1.805   8.712  18.396  0.00  0.00    +0.000 A 
ATOM      9  C   UNL     1       2.190   7.412  18.036  0.00  0.00    +0.000 A 
ATOM     10  H   UNL     1       1.900   9.968  16.669  0.00  0.00    +0.000 HD
ENDROOT
BRANCH   1  21
ATOM     11  O   UNL     1       2.881   2.278  17.859  0.00  0.00    +0.000 OA
ATOM     12  C   UNL     1       3.690   3.169  17.696  0.00  0.00    +0.000 C 
ATOM     13  N   UNL     1       4.901   3.094  17.028  0.00  0.00    +0.000 N 
ATOM     14  C   UNL     1       5.565   4.318  17.039  0.00  0.00    +0.000 A 
ATOM     15  C   UNL     1       6.797   4.590  16.476  0.00  0.00    +0.000 A 
ATOM     16  C   UNL     1       7.298   5.884  16.624  0.00  0.00    +0.000 A 
ATOM     17  C   UNL     1       6.571   6.858  17.330  0.00  0.00    +0.000 A 
ATOM     18  C   UNL     1       5.322   6.560  17.889  0.00  0.00    +0.000 A 
ATOM     19  C   UNL     1       4.815   5.282  17.725  0.00  0.00    +0.000 A 
ATOM     20  C   UNL     1       3.583   4.603  18.146  0.00  0.00    +0.000 C 
ATOM     21  C   UNL     1       2.458   5.039  18.733  0.00  0.00    +0.000 C 
ATOM     22  H   UNL     1       5.236   2.246  16.598  0.00  0.00    +0.000 HD
ENDBRANCH   1  21
BRANCH   5  23
ATOM     23  C   UNL     1       0.619  11.294  20.666  0.00  0.00    +0.000 C 
ATOM     24  C   UNL     1      -0.680  11.494  20.971  0.00  0.00    +0.000 C 
BRANCH  24  25
ATOM     25  C   UNL     1      -1.182  12.396  22.019  0.00  0.00    +0.000 A 
ATOM     26  C   UNL     1      -2.376  12.062  22.670  0.00  0.00    +0.000 A 
ATOM     27  C   UNL     1      -2.903  12.892  23.664  0.00  0.00    +0.000 A 
ATOM     28  C   UNL     1      -2.237  14.065  24.039  0.00  0.00    +0.000 A 
ATOM     29  C   UNL     1      -1.032  14.396  23.409  0.00  0.00    +0.000 A 
ATOM     30  C   UNL     1      -0.508  13.561  22.411  0.00  0.00    +0.000 A 
BRANCH  28  31
ATOM     31  C   UNL     1      -2.835  14.867  25.141  0.00  0.00    +0.000 C 
ATOM     32  O   UNL     1      -2.185  15.233  26.106  0.00  0.00    +0.000 OA
BRANCH  31  33
ATOM     33  O   UNL     1      -4.152  15.125  25.015  0.00  0.00    +0.000 OA
ATOM     34  H   UNL     1      -4.715  14.877  25.769  0.00  0.00    +0.000 HD
ENDBRANCH  31  33
ENDBRANCH  28  31
ENDBRANCH  24  25
ENDBRANCH   5  23
TORSDOF 5
ENDMDL
MODEL 3
REMARK VINA RESULT:      -8.9      3.054     11.127
REMARK  Name = 
REMARK  5 active torsions:
REMARK  status: ('A' for Active; 'I' for Inactive)
REMARK    1  A    between atoms: C_11  and  C_12
REMARK    2  A    between atoms: C_16  and  C_17
REMARK    3  A    between atoms: C_18  and  C_19
REMARK    4  A    between atoms: C_22  and  C_23
REMARK    5  A    between atoms: C_23  and  O_25
REMARK                            x       y       z     vdW  Elec       q    Type
REMARK                         _______ _______ _______ _____ _____    ______ ____
ROOT
ATOM      1  C   UNL     1       2.606   7.828  18.401  0.00  0.00    +0.000 A 
ATOM      2  C   UNL     1       1.784   8.846  17.911  0.00  0.00    +0.000 A 
ATOM      3  C   UNL     1       0.930   9.567  18.765  0.00  0.00    +0.000 A 
ATOM      4  C   UNL     1       0.903   9.245  20.137  0.00  0.00    +0.000 A 
ATOM      5  C   UNL     1       0.237   9.726  21.313  0.00  0.00    +0.000 A 
ATOM      6  N   UNL     1       0.594   9.013  22.397  0.00  0.00    +0.000 NA
ATOM      7  N   UNL     1       1.460   8.106  21.924  0.00  0.00    +0.000 N 
ATOM      8  C   UNL     1       1.706   8.200  20.584  0.00  0.00    +0.000 A 
ATOM      9  C   UNL     1       2.563   7.466  19.751  0.00  0.00    +0.000 A 
ATOM     10  H   UNL     1       1.860   7.446  22.578  0.00  0.00    +0.000 HD
ENDROOT
BRANCH   1  21
ATOM     11  O   UNL     1       5.635   5.915  15.872  0.00  0.00    +0.000 OA
ATOM     12  C   UNL     1       4.779   5.301  16.478  0.00  0.00    +0.000 C 
ATOM     13  N   UNL     1       4.651   3.926  16.593  0.00  0.00    +0.000 N 
ATOM     14  C   UNL     1       3.548   3.581  17.368  0.00  0.00    +0.000 A 
ATOM     15  C   UNL     1       3.126   2.301  17.673  0.00  0.00    +0.000 A 
ATOM     16  C   UNL     1       1.973   2.174  18.450  0.00  0.00    +0.000 A 
ATOM     17  C   UNL     1       1.275   3.312  18.887  0.00  0.00    +0.000 A 
ATOM     18  C   UNL     1       1.724   4.600  18.568  0.00  0.00    +0.000 A 
ATOM     19  C   UNL     1       2.879   4.727  17.816  0.00  0.00    +0.000 A 
ATOM     20  C   UNL     1       3.646   5.865  17.295  0.00  0.00    +0.000 C 
ATOM     21  C   UNL     1       3.552   7.190  17.485  0.00  0.00    +0.000 C 
ATOM     22  H   UNL     1       5.291   3.280  16.156  0.00  0.00    +0.000 HD
ENDBRANCH   1  21
BRANCH   5  23
ATOM     23  C   UNL     1      -0.698  10.816  21.364  0.00  0.00    +0.000 C 
ATOM     24  C   UNL     1      -1.271  11.277  22.494  0.00  0.00    +0.000 C 
BRANCH  24  25
ATOM     25  C   UNL     1      -2.287  12.339  22.564  0.00  0.00    +0.000 A 
ATOM     26  C   UNL     1      -3.230  12.291  23.598  0.00  0.00    +0.000 A 
ATOM     27  C   UNL     1      -4.224  13.269  23.703  0.00  0.00    +0.000 A 
ATOM     28  C   UNL     1      -4.285  14.323  22.784  0.00  0.00    +0.000 A 
ATOM     29  C   UNL     1      -3.334  14.391  21.759  0.00  0.00    +0.000 A 
ATOM     30  C   UNL     1      -2.340  13.407  21.658  0.00  0.00    +0.000 A 
BRANCH  28  31
ATOM     31  C   UNL     1      -5.340  15.352  22.993  0.00  0.00    +0.000 C 
ATOM     32  O   UNL     1      -5.762  16.046  22.084  0.00  0.00    +0.000 OA
BRANCH  31  33
ATOM     33  O   UNL     1      -5.767  15.486  24.265  0.00  0.00    +0.000 OA
ATOM     34  H   UNL     1      -5.840  14.667  24.785  0.00  0.00    +0.000 HD
ENDBRANCH  31  33
ENDBRANCH  28  31
ENDBRANCH  24  25
ENDBRANCH   5  23
TORSDOF 5
ENDMDL
MODEL 4
REMARK VINA RESULT:      -8.8      0.897      1.134
REMARK  Name = 
REMARK  5 active torsions:
REMARK  status: ('A' for Active; 'I' for Inactive)
REMARK    1  A    between atoms: C_11  and  C_12
REMARK    2  A    between atoms: C_16  and  C_17
REMARK    3  A    between atoms: C_18  and  C_19
REMARK    4  A    between atoms: C_22  and  C_23
REMARK    5  A    between atoms: C_23  and  O_25
REMARK                            x       y       z     vdW  Elec       q    Type
REMARK                         _______ _______ _______ _____ _____    ______ ____
ROOT
ATOM      1  C   UNL     1       0.216  10.580  20.250  0.00  0.00    +0.000 A 
ATOM      2  C   UNL     1       0.718  10.640  18.948  0.00  0.00    +0.000 A 
ATOM      3  C   UNL     1       1.503   9.598  18.421  0.00  0.00    +0.000 A 
ATOM      4  C   UNL     1       1.788   8.481  19.232  0.00  0.00    +0.000 A 
ATOM      5  C   UNL     1       2.489   7.236  19.091  0.00  0.00    +0.000 A 
ATOM      6  N   UNL     1       2.449   6.527  20.234  0.00  0.00    +0.000 NA
ATOM      7  N   UNL     1       1.746   7.298  21.076  0.00  0.00    +0.000 N 
ATOM      8  C   UNL     1       1.304   8.471  20.536  0.00  0.00    +0.000 A 
ATOM      9  C   UNL     1       0.522   9.500  21.083  0.00  0.00    +0.000 A 
ATOM     10  H   UNL     1       1.595   6.958  22.016  0.00  0.00    +0.000 HD
ENDROOT
BRANCH   1  21
ATOM     11  O   UNL     1      -2.337  13.946  21.430  0.00  0.00    +0.000 OA
ATOM     12  C   UNL     1      -2.627  13.156  20.553  0.00  0.00    +0.000 C 
ATOM     13  N   UNL     1      -3.715  13.212  19.697  0.00  0.00    +0.000 N 
ATOM     14  C   UNL     1      -3.724  12.134  18.816  0.00  0.00    +0.000 A 
ATOM     15  C   UNL     1      -4.670  11.877  17.842  0.00  0.00    +0.000 A 
ATOM     16  C   UNL     1      -4.505  10.720  17.078  0.00  0.00    +0.000 A 
ATOM     17  C   UNL     1      -3.422   9.856  17.310  0.00  0.00    +0.000 A 
ATOM     18  C   UNL     1      -2.474  10.139  18.302  0.00  0.00    +0.000 A 
ATOM     19  C   UNL     1      -2.625  11.297  19.045  0.00  0.00    +0.000 A 
ATOM     20  C   UNL     1      -1.868  11.923  20.136  0.00  0.00    +0.000 C 
ATOM     21  C   UNL     1      -0.685  11.642  20.702  0.00  0.00    +0.000 C 
ATOM     22  H   UNL     1      -4.400  13.951  19.732  0.00  0.00    +0.000 HD
ENDBRANCH   1  21
BRANCH   5  23
ATOM     23  C   UNL     1       3.160   6.778  17.906  0.00  0.00    +0.000 C 
ATOM     24  C   UNL     1       3.906   5.657  17.838  0.00  0.00    +0.000 C 
BRANCH  24  25
ATOM     25  C   UNL     1       4.664   5.207  16.660  0.00  0.00    +0.000 A 
ATOM     26  C   UNL     1       5.039   6.160  15.704  0.00  0.00    +0.000 A 
ATOM     27  C   UNL     1       5.749   5.783  14.561  0.00  0.00    +0.000 A 
ATOM     28  C   UNL     1       6.114   4.447  14.358  0.00  0.00    +0.000 A 
ATOM     29  C   UNL     1       5.763   3.490  15.318  0.00  0.00    +0.000 A 
ATOM     30  C   UNL     1       5.049   3.874  16.463  0.00  0.00    +0.000 A 
BRANCH  28  31
ATOM     31  C   UNL     1       6.914   4.134  13.143  0.00  0.00    +0.000 C 
ATOM     32  O   UNL     1       7.742   4.908  12.692  0.00  0.00    +0.000 OA
BRANCH  31  33
ATOM     33  O   UNL     1       6.631   2.954  12.556  0.00  0.00    +0.000 OA
ATOM     34  H   UNL     1       7.392   2.402  12.308  0.00  0.00    +0.000 HD
ENDBRANCH  31  33
ENDBRANCH  28  31
ENDBRANCH  24  25
ENDBRANCH   5  23
TORSDOF 5
ENDMDL
MODEL 5
REMARK VINA RESULT:      -8.7      2.976     10.880
REMARK  Name = 
REMARK  5 active torsions:
REMARK  status: ('A' for Active; 'I' for Inactive)
REMARK    1  A    between atoms: C_11  and  C_12
REMARK    2  A    between atoms: C_16  and  C_17
REMARK    3  A    between atoms: C_18  and  C_19
REMARK    4  A    between atoms: C_22  and  C_23
REMARK    5  A    between atoms: C_23  and  O_25
REMARK                            x       y       z     vdW  Elec       q    Type
REMARK                         _______ _______ _______ _____ _____    ______ ____
ROOT
ATOM      1  C   UNL     1       2.844   7.463  18.306  0.00  0.00    +0.000 A 
ATOM      2  C   UNL     1       2.207   8.515  17.643  0.00  0.00    +0.000 A 
ATOM      3  C   UNL     1       1.346   9.391  18.326  0.00  0.00    +0.000 A 
ATOM      4  C   UNL     1       1.121   9.192  19.703  0.00  0.00    +0.000 A 
ATOM      5  C   UNL     1       0.378   9.839  20.748  0.00  0.00    +0.000 A 
ATOM      6  N   UNL     1       0.522   9.189  21.917  0.00  0.00    +0.000 NA
ATOM      7  N   UNL     1       1.329   8.159  21.625  0.00  0.00    +0.000 N 
ATOM      8  C   UNL     1       1.741   8.112  20.324  0.00  0.00    +0.000 A 
ATOM      9  C   UNL     1       2.602   7.225  19.662  0.00  0.00    +0.000 A 
ATOM     10  H   UNL     1       1.572   7.520  22.370  0.00  0.00    +0.000 HD
ENDROOT
BRANCH   1  21
ATOM     11  O   UNL     1       5.917   5.040  16.326  0.00  0.00    +0.000 OA
ATOM     12  C   UNL     1       4.940   4.570  16.875  0.00  0.00    +0.000 C 
ATOM     13  N   UNL     1       4.658   3.231  17.088  0.00  0.00    +0.000 N 
ATOM     14  C   UNL     1       3.446   3.067  17.753  0.00  0.00    +0.000 A 
ATOM     15  C   UNL     1       2.861   1.867  18.112  0.00  0.00    +0.000 A 
ATOM     16  C   UNL     1       1.623   1.924  18.753  0.00  0.00    +0.000 A 
ATOM     17  C   UNL     1       1.003   3.160  19.008  0.00  0.00    +0.000 A 
ATOM     18  C   UNL     1       1.617   4.363  18.637  0.00  0.00    +0.000 A 
ATOM     19  C   UNL     1       2.855   4.308  18.020  0.00  0.00    +0.000 A 
ATOM     20  C   UNL     1       3.789   5.314  17.500  0.00  0.00    +0.000 C 
ATOM     21  C   UNL     1       3.814   6.654  17.565  0.00  0.00    +0.000 C 
ATOM     22  H   UNL     1       5.271   2.489  16.787  0.00  0.00    +0.000 HD
ENDBRANCH   1  21
BRANCH   5  23
ATOM     23  C   UNL     1      -0.426  11.020  20.601  0.00  0.00    +0.000 C 
ATOM     24  C   UNL     1      -1.182  11.555  21.581  0.00  0.00    +0.000 C 
BRANCH  24  25
ATOM     25  C   UNL     1      -2.073  12.717  21.434  0.00  0.00    +0.000 A 
ATOM     26  C   UNL     1      -1.553  13.888  20.870  0.00  0.00    +0.000 A 
ATOM     27  C   UNL     1      -2.353  15.025  20.720  0.00  0.00    +0.000 A 
ATOM     28  C   UNL     1      -3.695  15.007  21.117  0.00  0.00    +0.000 A 
ATOM     29  C   UNL     1      -4.230  13.834  21.663  0.00  0.00    +0.000 A 
ATOM     30  C   UNL     1      -3.422  12.698  21.812  0.00  0.00    +0.000 A 
BRANCH  28  31
ATOM     31  C   UNL     1      -4.495  16.239  20.876  0.00  0.00    +0.000 C 
ATOM     32  O   UNL     1      -5.157  16.767  21.754  0.00  0.00    +0.000 OA
BRANCH  31  33
ATOM     33  O   UNL     1      -4.465  16.705  19.611  0.00  0.00    +0.000 OA
ATOM     34  H   UNL     1      -4.604  16.050  18.906  0.00  0.00    +0.000 HD
ENDBRANCH  31  33
ENDBRANCH  28  31
ENDBRANCH  24  25
ENDBRANCH   5  23
TORSDOF 5
ENDMDL
MODEL 6
REMARK VINA RESULT:      -8.7      6.487      9.212
REMARK  Name = 
REMARK  5 active torsions:
REMARK  status: ('A' for Active; 'I' for Inactive)
REMARK    1  A    between atoms: C_11  and  C_12
REMARK    2  A    between atoms: C_16  and  C_17
REMARK    3  A    between atoms: C_18  and  C_19
REMARK    4  A    between atoms: C_22  and  C_23
REMARK    5  A    between atoms: C_23  and  O_25
REMARK                            x       y       z     vdW  Elec       q    Type
REMARK                         _______ _______ _______ _____ _____    ______ ____
ROOT
ATOM      1  C   UNL     1       4.853   5.076  17.352  0.00  0.00    +0.000 A 
ATOM      2  C   UNL     1       4.716   6.329  16.750  0.00  0.00    +0.000 A 
ATOM      3  C   UNL     1       5.656   7.351  16.972  0.00  0.00    +0.000 A 
ATOM      4  C   UNL     1       6.750   7.100  17.825  0.00  0.00    +0.000 A 
ATOM      5  C   UNL     1       7.908   7.815  18.281  0.00  0.00    +0.000 A 
ATOM      6  N   UNL     1       8.637   7.064  19.127  0.00  0.00    +0.000 NA
ATOM      7  N   UNL     1       7.963   5.908  19.206  0.00  0.00    +0.000 N 
ATOM      8  C   UNL     1       6.835   5.854  18.438  0.00  0.00    +0.000 A 
ATOM      9  C   UNL     1       5.909   4.822  18.233  0.00  0.00    +0.000 A 
ATOM     10  H   UNL     1       8.334   5.182  19.805  0.00  0.00    +0.000 HD
ENDROOT
BRANCH   1  21
ATOM     11  O   UNL     1       2.220   1.718  16.341  0.00  0.00    +0.000 OA
ATOM     12  C   UNL     1       2.247   2.247  17.436  0.00  0.00    +0.000 C 
ATOM     13  N   UNL     1       1.573   1.849  18.579  0.00  0.00    +0.000 N 
ATOM     14  C   UNL     1       1.846   2.696  19.650  0.00  0.00    +0.000 A 
ATOM     15  C   UNL     1       1.333   2.594  20.929  0.00  0.00    +0.000 A 
ATOM     16  C   UNL     1       1.717   3.567  21.853  0.00  0.00    +0.000 A 
ATOM     17  C   UNL     1       2.583   4.609  21.479  0.00  0.00    +0.000 A 
ATOM     18  C   UNL     1       3.093   4.689  20.177  0.00  0.00    +0.000 A 
ATOM     19  C   UNL     1       2.730   3.712  19.266  0.00  0.00    +0.000 A 
ATOM     20  C   UNL     1       3.043   3.455  17.855  0.00  0.00    +0.000 C 
ATOM     21  C   UNL     1       3.904   4.020  16.996  0.00  0.00    +0.000 C 
ATOM     22  H   UNL     1       0.966   1.045  18.603  0.00  0.00    +0.000 HD
ENDBRANCH   1  21
BRANCH   5  23
ATOM     23  C   UNL     1       8.269   9.155  17.912  0.00  0.00    +0.000 C 
ATOM     24  C   UNL     1       9.290   9.847  18.456  0.00  0.00    +0.000 C 
BRANCH  24  25
ATOM     25  C   UNL     1       9.633  11.245  18.150  0.00  0.00    +0.000 A 
ATOM     26  C   UNL     1       8.591  12.167  17.991  0.00  0.00    +0.000 A 
ATOM     27  C   UNL     1       8.861  13.505  17.688  0.00  0.00    +0.000 A 
ATOM     28  C   UNL     1      10.181  13.951  17.553  0.00  0.00    +0.000 A 
ATOM     29  C   UNL     1      11.230  13.042  17.732  0.00  0.00    +0.000 A 
ATOM     30  C   UNL     1      10.953  11.701  18.035  0.00  0.00    +0.000 A 
BRANCH  28  31
ATOM     31  C   UNL     1      10.388  15.400  17.282  0.00  0.00    +0.000 C 
ATOM     32  O   UNL     1       9.985  16.268  18.038  0.00  0.00    +0.000 OA
BRANCH  31  33
ATOM     33  O   UNL     1      11.017  15.683  16.123  0.00  0.00    +0.000 OA
ATOM     34  H   UNL     1      11.568  14.975  15.747  0.00  0.00    +0.000 HD
ENDBRANCH  31  33
ENDBRANCH  28  31
ENDBRANCH  24  25
ENDBRANCH   5  23
TORSDOF 5
ENDMDL
MODEL 7
REMARK VINA RESULT:      -8.7      6.509      9.213
REMARK  Name = 
REMARK  5 active torsions:
REMARK  status: ('A' for Active; 'I' for Inactive)
REMARK    1  A    between atoms: C_11  and  C_12
REMARK    2  A    between atoms: C_16  and  C_17
REMARK    3  A    between atoms: C_18  and  C_19
REMARK    4  A    between atoms: C_22  and  C_23
REMARK    5  A    between atoms: C_23  and  O_25
REMARK                            x       y       z     vdW  Elec       q    Type
REMARK                         _______ _______ _______ _____ _____    ______ ____
ROOT
ATOM      1  C   UNL     1       4.860   5.028  17.350  0.00  0.00    +0.000 A 
ATOM      2  C   UNL     1       4.778   6.254  16.685  0.00  0.00    +0.000 A 
ATOM      3  C   UNL     1       5.733   7.263  16.898  0.00  0.00    +0.000 A 
ATOM      4  C   UNL     1       6.785   7.028  17.806  0.00  0.00    +0.000 A 
ATOM      5  C   UNL     1       7.941   7.737  18.276  0.00  0.00    +0.000 A 
ATOM      6  N   UNL     1       8.618   7.010  19.185  0.00  0.00    +0.000 NA
ATOM      7  N   UNL     1       7.912   5.875  19.290  0.00  0.00    +0.000 N 
ATOM      8  C   UNL     1       6.815   5.811  18.479  0.00  0.00    +0.000 A 
ATOM      9  C   UNL     1       5.872   4.791  18.284  0.00  0.00    +0.000 A 
ATOM     10  H   UNL     1       8.241   5.170  19.936  0.00  0.00    +0.000 HD
ENDROOT
BRANCH   1  21
ATOM     11  O   UNL     1       2.191   1.687  16.374  0.00  0.00    +0.000 OA
ATOM     12  C   UNL     1       2.223   2.227  17.462  0.00  0.00    +0.000 C 
ATOM     13  N   UNL     1       1.545   1.849  18.609  0.00  0.00    +0.000 N 
ATOM     14  C   UNL     1       1.826   2.704  19.671  0.00  0.00    +0.000 A 
ATOM     15  C   UNL     1       1.311   2.621  20.951  0.00  0.00    +0.000 A 
ATOM     16  C   UNL     1       1.705   3.600  21.864  0.00  0.00    +0.000 A 
ATOM     17  C   UNL     1       2.583   4.628  21.480  0.00  0.00    +0.000 A 
ATOM     18  C   UNL     1       3.094   4.689  20.177  0.00  0.00    +0.000 A 
ATOM     19  C   UNL     1       2.720   3.706  19.277  0.00  0.00    +0.000 A 
ATOM     20  C   UNL     1       3.032   3.431  17.869  0.00  0.00    +0.000 C 
ATOM     21  C   UNL     1       3.900   3.978  17.004  0.00  0.00    +0.000 C 
ATOM     22  H   UNL     1       0.929   1.051  18.641  0.00  0.00    +0.000 HD
ENDBRANCH   1  21
BRANCH   5  23
ATOM     23  C   UNL     1       8.350   9.049  17.860  0.00  0.00    +0.000 C 
ATOM     24  C   UNL     1       9.161   9.857  18.572  0.00  0.00    +0.000 C 
BRANCH  24  25
ATOM     25  C   UNL     1       9.533  11.233  18.206  0.00  0.00    +0.000 A 
ATOM     26  C   UNL     1      10.891  11.539  18.057  0.00  0.00    +0.000 A 
ATOM     27  C   UNL     1      11.298  12.834  17.722  0.00  0.00    +0.000 A 
ATOM     28  C   UNL     1      10.353  13.845  17.513  0.00  0.00    +0.000 A 
ATOM     29  C   UNL     1       8.992  13.544  17.639  0.00  0.00    +0.000 A 
ATOM     30  C   UNL     1       8.589  12.244  17.977  0.00  0.00    +0.000 A 
BRANCH  28  31
ATOM     31  C   UNL     1      10.863  15.184  17.108  0.00  0.00    +0.000 C 
ATOM     32  O   UNL     1      12.053  15.451  17.099  0.00  0.00    +0.000 OA
BRANCH  31  33
ATOM     33  O   UNL     1       9.915  16.088  16.790  0.00  0.00    +0.000 OA
ATOM     34  H   UNL     1       9.013  15.744  16.673  0.00  0.00    +0.000 HD
ENDBRANCH  31  33
ENDBRANCH  28  31
ENDBRANCH  24  25
ENDBRANCH   5  23
TORSDOF 5
ENDMDL
MODEL 8
REMARK VINA RESULT:      -8.7      3.080     10.416
REMARK  Name = 
REMARK  5 active torsions:
REMARK  status: ('A' for Active; 'I' for Inactive)
REMARK    1  A    between atoms: C_11  and  C_12
REMARK    2  A    between atoms: C_16  and  C_17
REMARK    3  A    between atoms: C_18  and  C_19
REMARK    4  A    between atoms: C_22  and  C_23
REMARK    5  A    between atoms: C_23  and  O_25
REMARK                            x       y       z     vdW  Elec       q    Type
REMARK                         _______ _______ _______ _____ _____    ______ ____
ROOT
ATOM      1  C   UNL     1       2.900   7.224  18.271  0.00  0.00    +0.000 A 
ATOM      2  C   UNL     1       2.393   8.315  17.560  0.00  0.00    +0.000 A 
ATOM      3  C   UNL     1       1.609   9.296  18.193  0.00  0.00    +0.000 A 
ATOM      4  C   UNL     1       1.328   9.164  19.568  0.00  0.00    +0.000 A 
ATOM      5  C   UNL     1       0.629   9.916  20.571  0.00  0.00    +0.000 A 
ATOM      6  N   UNL     1       0.673   9.290  21.762  0.00  0.00    +0.000 NA
ATOM      7  N   UNL     1       1.377   8.175  21.523  0.00  0.00    +0.000 N 
ATOM      8  C   UNL     1       1.816   8.046  20.237  0.00  0.00    +0.000 A 
ATOM      9  C   UNL     1       2.598   7.054  19.625  0.00  0.00    +0.000 A 
ATOM     10  H   UNL     1       1.532   7.538  22.293  0.00  0.00    +0.000 HD
ENDROOT
BRANCH   1  21
ATOM     11  O   UNL     1       5.772   4.461  16.441  0.00  0.00    +0.000 OA
ATOM     12  C   UNL     1       4.793   4.099  17.063  0.00  0.00    +0.000 C 
ATOM     13  N   UNL     1       4.450   2.803  17.413  0.00  0.00    +0.000 N 
ATOM     14  C   UNL     1       3.256   2.769  18.128  0.00  0.00    +0.000 A 
ATOM     15  C   UNL     1       2.625   1.642  18.619  0.00  0.00    +0.000 A 
ATOM     16  C   UNL     1       1.415   1.827  19.290  0.00  0.00    +0.000 A 
ATOM     17  C   UNL     1       0.868   3.113  19.443  0.00  0.00    +0.000 A 
ATOM     18  C   UNL     1       1.529   4.240  18.939  0.00  0.00    +0.000 A 
ATOM     19  C   UNL     1       2.739   4.060  18.292  0.00  0.00    +0.000 A 
ATOM     20  C   UNL     1       3.704   4.960  17.649  0.00  0.00    +0.000 C 
ATOM     21  C   UNL     1       3.799   6.297  17.583  0.00  0.00    +0.000 C 
ATOM     22  H   UNL     1       5.013   2.004  17.166  0.00  0.00    +0.000 HD
ENDBRANCH   1  21
BRANCH   5  23
ATOM     23  C   UNL     1      -0.045  11.168  20.367  0.00  0.00    +0.000 C 
ATOM     24  C   UNL     1       0.575  12.328  20.069  0.00  0.00    +0.000 C 
BRANCH  24  25
ATOM     25  C   UNL     1      -0.083  13.636  19.931  0.00  0.00    +0.000 A 
ATOM     26  C   UNL     1       0.443  14.554  19.013  0.00  0.00    +0.000 A 
ATOM     27  C   UNL     1      -0.137  15.816  18.853  0.00  0.00    +0.000 A 
ATOM     28  C   UNL     1      -1.266  16.180  19.596  0.00  0.00    +0.000 A 
ATOM     29  C   UNL     1      -1.812  15.262  20.500  0.00  0.00    +0.000 A 
ATOM     30  C   UNL     1      -1.225  13.998  20.659  0.00  0.00    +0.000 A 
BRANCH  28  31
ATOM     31  C   UNL     1      -1.856  17.520  19.330  0.00  0.00    +0.000 C 
ATOM     32  O   UNL     1      -1.175  18.530  19.268  0.00  0.00    +0.000 OA
BRANCH  31  33
ATOM     33  O   UNL     1      -3.198  17.542  19.200  0.00  0.00    +0.000 OA
ATOM     34  H   UNL     1      -3.574  18.310  18.739  0.00  0.00    +0.000 HD
ENDBRANCH  31  33
ENDBRANCH  28  31
ENDBRANCH  24  25
ENDBRANCH   5  23
TORSDOF 5
ENDMDL
MODEL 9
REMARK VINA RESULT:      -8.6      2.945      4.955
REMARK  Name = 
REMARK  5 active torsions:
REMARK  status: ('A' for Active; 'I' for Inactive)
REMARK    1  A    between atoms: C_11  and  C_12
REMARK    2  A    between atoms: C_16  and  C_17
REMARK    3  A    between atoms: C_18  and  C_19
REMARK    4  A    between atoms: C_22  and  C_23
REMARK    5  A    between atoms: C_23  and  O_25
REMARK                            x       y       z     vdW  Elec       q    Type
REMARK                         _______ _______ _______ _____ _____    ______ ____
ROOT
ATOM      1  C   UNL     1      -3.070  11.803  18.753  0.00  0.00    +0.000 A 
ATOM      2  C   UNL     1      -2.857  10.590  18.093  0.00  0.00    +0.000 A 
ATOM      3  C   UNL     1      -1.560  10.078  17.911  0.00  0.00    +0.000 A 
ATOM      4  C   UNL     1      -0.461  10.811  18.400  0.00  0.00    +0.000 A 
ATOM      5  C   UNL     1       0.964  10.650  18.459  0.00  0.00    +0.000 A 
ATOM      6  N   UNL     1       1.547  11.707  19.055  0.00  0.00    +0.000 NA
ATOM      7  N   UNL     1       0.524  12.515  19.364  0.00  0.00    +0.000 N 
ATOM      8  C   UNL     1      -0.706  12.033  19.019  0.00  0.00    +0.000 A 
ATOM      9  C   UNL     1      -1.990  12.564  19.209  0.00  0.00    +0.000 A 
ATOM     10  H   UNL     1       0.734  13.392  19.824  0.00  0.00    +0.000 HD
ENDROOT
BRANCH   1  21
ATOM     11  O   UNL     1      -7.269  12.794  19.538  0.00  0.00    +0.000 OA
ATOM     12  C   UNL     1      -6.415  12.755  20.401  0.00  0.00    +0.000 C 
ATOM     13  N   UNL     1      -6.593  12.891  21.768  0.00  0.00    +0.000 N 
ATOM     14  C   UNL     1      -5.383  12.789  22.450  0.00  0.00    +0.000 A 
ATOM     15  C   UNL     1      -5.200  12.888  23.816  0.00  0.00    +0.000 A 
ATOM     16  C   UNL     1      -3.894  12.780  24.297  0.00  0.00    +0.000 A 
ATOM     17  C   UNL     1      -2.818  12.590  23.413  0.00  0.00    +0.000 A 
ATOM     18  C   UNL     1      -3.029  12.489  22.032  0.00  0.00    +0.000 A 
ATOM     19  C   UNL     1      -4.326  12.574  21.557  0.00  0.00    +0.000 A 
ATOM     20  C   UNL     1      -4.938  12.516  20.223  0.00  0.00    +0.000 C 
ATOM     21  C   UNL     1      -4.447  12.228  19.008  0.00  0.00    +0.000 C 
ATOM     22  H   UNL     1      -7.496  13.047  22.188  0.00  0.00    +0.000 HD
ENDBRANCH   1  21
BRANCH   5  23
ATOM     23  C   UNL     1       1.705   9.528  17.954  0.00  0.00    +0.000 C 
ATOM     24  C   UNL     1       1.819   8.342  18.586  0.00  0.00    +0.000 C 
BRANCH  24  25
ATOM     25  C   UNL     1       2.633   7.205  18.128  0.00  0.00    +0.000 A 
ATOM     26  C   UNL     1       2.155   5.909  18.355  0.00  0.00    +0.000 A 
ATOM     27  C   UNL     1       2.895   4.794  17.950  0.00  0.00    +0.000 A 
ATOM     28  C   UNL     1       4.123   4.954  17.297  0.00  0.00    +0.000 A 
ATOM     29  C   UNL     1       4.600   6.245  17.047  0.00  0.00    +0.000 A 
ATOM     30  C   UNL     1       3.854   7.361  17.456  0.00  0.00    +0.000 A 
BRANCH  28  31
ATOM     31  C   UNL     1       4.825   3.719  16.852  0.00  0.00    +0.000 C 
ATOM     32  O   UNL     1       5.653   3.728  15.957  0.00  0.00    +0.000 OA
BRANCH  31  33
ATOM     33  O   UNL     1       4.452   2.587  17.483  0.00  0.00    +0.000 OA
ATOM     34  H   UNL     1       4.944   1.781  17.249  0.00  0.00    +0.000 HD
ENDBRANCH  31  33
ENDBRANCH  28  31
ENDBRANCH  24  25
ENDBRANCH   5  23
TORSDOF 5
ENDMDL
