MODEL 1
REMARK VINA RESULT:      -7.2      0.000      0.000
REMARK  Name = 
REMARK  14 active torsions:
REMARK  status: ('A' for Active; 'I' for Inactive)
REMARK    1  A    between atoms: C_1  and  O_2
REMARK    2  A    between atoms: O_2  and  C_3
REMARK    3  A    between atoms: C_3  and  C_5
REMARK    4  A    between atoms: C_8  and  C_9
REMARK    5  A    between atoms: N_11  and  CA_12
REMARK    6  A    between atoms: CA_12  and  CB_13
REMARK    7  A    between atoms: CA_12  and  C_17
REMARK    8  A    between atoms: CB_13  and  CG_14
REMARK    9  A    between atoms: CG_14  and  CD1_15
REMARK   10  A    between atoms: CG_14  and  CD2_16
REMARK   11  A    between atoms: N_19  and  CA_20
REMARK   12  A    between atoms: CA_20  and  C_21
REMARK   13  A    between atoms: CA_20  and  CB_23
REMARK   14  A    between atoms: CB_23  and  CG_24
REMARK                            x       y       z     vdW  Elec       q    Type
REMARK                         _______ _______ _______ _____ _____    ______ ____
ROOT
ATOM      1  CA  LEU A   1       3.246   5.857  18.745  0.00  0.00    +0.000 C 
ENDROOT
BRANCH   1   4
ATOM      2  C   UNK A   0       1.780   7.126  20.376  0.00  0.00    +0.000 C 
ATOM      3  O   UNK A   0       1.535   6.132  21.055  0.00  0.00    +0.000 OA
ATOM      4  N   LEU A   1       2.580   7.061  19.259  0.00  0.00    +0.000 N 
ATOM      5  H   LEU A   1       2.736   7.920  18.735  0.00  0.00    +0.000 HD
BRANCH   2   9
ATOM      6  C   UNK A   0       0.388  10.791  20.572  0.00  0.00    +0.000 A 
ATOM      7  C   UNK A   0       0.379  10.283  21.859  0.00  0.00    +0.000 A 
ATOM      8  C   UNK A   0       0.867   8.942  21.920  0.00  0.00    +0.000 A 
ATOM      9  C   UNK A   0       1.230   8.450  20.681  0.00  0.00    +0.000 A 
ATOM     10  S   UNK A   0       0.971   9.624  19.460  0.00  0.00    +0.000 S 
BRANCH   6  11
ATOM     11  C   UNK A   0      -0.012  12.098  20.078  0.00  0.00    +0.000 C 
ATOM     12  O   UNK A   0      -0.179  13.107  20.750  0.00  0.00    +0.000 OA
BRANCH  11  14
ATOM     13  C   UNK A   0      -1.538  12.192  18.295  0.00  0.00    +0.000 C 
ATOM     14  O   UNK A   0      -0.180  12.050  18.721  0.00  0.00    +0.000 OA
ENDBRANCH  11  14
ENDBRANCH   6  11
ENDBRANCH   2   9
ENDBRANCH   1   4
BRANCH   1  15
ATOM     15  C   LEU A   1       4.263   6.378  17.694  0.00  0.00    +0.000 C 
ATOM     16  O   LEU A   1       3.988   7.302  16.929  0.00  0.00    +0.000 OA
ATOM     17  N   PHE A   2       5.465   5.707  17.624  0.00  0.00    +0.000 N 
ATOM     18  H   PHE A   2       5.774   5.199  18.448  0.00  0.00    +0.000 HD
BRANCH  17  19
ATOM     19  CA  PHE A   2       6.517   6.096  16.679  0.00  0.00    +0.000 C 
BRANCH  19  20
ATOM     20  C   PHE A   2       7.484   7.015  17.414  0.00  0.00    +0.000 C 
ATOM     21  O   PHE A   2       7.889   6.794  18.551  0.00  0.00    +0.000 OA
ENDBRANCH  19  20
BRANCH  19  22
ATOM     22  CB  PHE A   2       7.267   4.867  16.141  0.00  0.00    +0.000 C 
BRANCH  22  23
ATOM     23  CG  PHE A   2       7.055   4.613  14.664  0.00  0.00    +0.000 A 
ATOM     24  CD1 PHE A   2       6.064   3.721  14.229  0.00  0.00    +0.000 A 
ATOM     25  CE1 PHE A   2       5.873   3.480  12.867  0.00  0.00    +0.000 A 
ATOM     26  CZ  PHE A   2       6.665   4.131  11.924  0.00  0.00    +0.000 A 
ATOM     27  CE2 PHE A   2       7.642   5.031  12.342  0.00  0.00    +0.000 A 
ATOM     28  CD2 PHE A   2       7.833   5.276  13.703  0.00  0.00    +0.000 A 
ENDBRANCH  22  23
ENDBRANCH  19  22
ENDBRANCH  17  19
ENDBRANCH   1  15
BRANCH   1  29
ATOM     29  CB  LEU A   1       2.235   4.883  18.106  0.00  0.00    +0.000 C 
BRANCH  29  30
ATOM     30  CG  LEU A   1       2.225   3.442  18.659  0.00  0.00    +0.000 C 
ATOM     31  CD1 LEU A   1       0.893   3.045  19.299  0.00  0.00    +0.000 C 
ATOM     32  CD2 LEU A   1       2.574   2.448  17.545  0.00  0.00    +0.000 C 
ENDBRANCH  29  30
ENDBRANCH   1  29
TORSDOF 11
ENDMDL
MODEL 2
REMARK VINA RESULT:      -7.2      1.109      1.422
REMARK  Name = 
REMARK  14 active torsions:
REMARK  status: ('A' for Active; 'I' for Inactive)
REMARK    1  A    between atoms: C_1  and  O_2
REMARK    2  A    between atoms: O_2  and  C_3
REMARK    3  A    between atoms: C_3  and  C_5
REMARK    4  A    between atoms: C_8  and  C_9
REMARK    5  A    between atoms: N_11  and  CA_12
REMARK    6  A    between atoms: CA_12  and  CB_13
REMARK    7  A    between atoms: CA_12  and  C_17
REMARK    8  A    between atoms: CB_13  and  CG_14
REMARK    9  A    between atoms: CG_14  and  CD1_15
REMARK   10  A    between atoms: CG_14  and  CD2_16
REMARK   11  A    between atoms: N_19  and  CA_20
REMARK   12  A    between atoms: CA_20  and  C_21
REMARK   13  A    between atoms: CA_20  and  CB_23
REMARK   14  A    between atoms: CB_23  and  CG_24
REMARK                            x       y       z     vdW  Elec       q    Type
REMARK                         _______ _______ _______ _____ _____    ______ ____
ROOT
ATOM      1  CA  LEU A   1       2.948   5.191  18.844  0.00  0.00    +0.000 C 
ENDROOT
BRANCH   1   4
ATOM      2  C   UNK A   0       1.821   6.859  20.381  0.00  0.00    +0.000 C 
ATOM      3  O   UNK A   0       1.637   6.036  21.273  0.00  0.00    +0.000 OA
ATOM      4  N   LEU A   1       2.431   6.520  19.197  0.00  0.00    +0.000 N 
ATOM      5  H   LEU A   1       2.545   7.248  18.494  0.00  0.00    +0.000 HD
BRANCH   2   9
ATOM      6  C   UNK A   0       0.809  10.638  20.053  0.00  0.00    +0.000 A 
ATOM      7  C   UNK A   0       0.652  10.290  21.382  0.00  0.00    +0.000 A 
ATOM      8  C   UNK A   0       0.992   8.925  21.632  0.00  0.00    +0.000 A 
ATOM      9  C   UNK A   0       1.392   8.257  20.490  0.00  0.00    +0.000 A 
ATOM     10  S   UNK A   0       1.348   9.298  19.130  0.00  0.00    +0.000 S 
BRANCH   6  11
ATOM     11  C   UNK A   0       0.586  11.909  19.385  0.00  0.00    +0.000 C 
ATOM     12  O   UNK A   0      -0.452  12.274  18.848  0.00  0.00    +0.000 OA
BRANCH  11  14
ATOM     13  C   UNK A   0       2.403  12.792  18.186  0.00  0.00    +0.000 C 
ATOM     14  O   UNK A   0       1.723  12.668  19.438  0.00  0.00    +0.000 OA
ENDBRANCH  11  14
ENDBRANCH   6  11
ENDBRANCH   2   9
ENDBRANCH   1   4
BRANCH   1  15
ATOM     15  C   LEU A   1       4.368   5.450  18.271  0.00  0.00    +0.000 C 
ATOM     16  O   LEU A   1       5.380   5.286  18.953  0.00  0.00    +0.000 OA
ATOM     17  N   PHE A   2       4.428   5.931  16.981  0.00  0.00    +0.000 N 
ATOM     18  H   PHE A   2       3.640   5.744  16.368  0.00  0.00    +0.000 HD
BRANCH  17  19
ATOM     19  CA  PHE A   2       5.704   6.215  16.317  0.00  0.00    +0.000 C 
BRANCH  19  20
ATOM     20  C   PHE A   2       6.521   7.105  17.244  0.00  0.00    +0.000 C 
ATOM     21  O   PHE A   2       7.666   7.468  16.992  0.00  0.00    +0.000 OA
ENDBRANCH  19  20
BRANCH  19  22
ATOM     22  CB  PHE A   2       6.477   4.921  16.017  0.00  0.00    +0.000 C 
BRANCH  22  23
ATOM     23  CG  PHE A   2       6.642   4.629  14.541  0.00  0.00    +0.000 A 
ATOM     24  CD1 PHE A   2       5.832   3.676  13.908  0.00  0.00    +0.000 A 
ATOM     25  CE1 PHE A   2       5.989   3.400  12.548  0.00  0.00    +0.000 A 
ATOM     26  CZ  PHE A   2       6.952   4.078  11.804  0.00  0.00    +0.000 A 
ATOM     27  CE2 PHE A   2       7.753   5.038  12.418  0.00  0.00    +0.000 A 
ATOM     28  CD2 PHE A   2       7.596   5.318  13.777  0.00  0.00    +0.000 A 
ENDBRANCH  22  23
ENDBRANCH  19  22
ENDBRANCH  17  19
ENDBRANCH   1  15
BRANCH   1  29
ATOM     29  CB  LEU A   1       2.048   4.493  17.804  0.00  0.00    +0.000 C 
BRANCH  29  30
ATOM     30  CG  LEU A   1       1.603   3.053  18.135  0.00  0.00    +0.000 C 
ATOM     31  CD1 LEU A   1       2.752   2.042  18.118  0.00  0.00    +0.000 C 
ATOM     32  CD2 LEU A   1       0.910   3.017  19.502  0.00  0.00    +0.000 C 
ENDBRANCH  29  30
ENDBRANCH   1  29
TORSDOF 11
ENDMDL
MODEL 3
REMARK VINA RESULT:      -7.1      1.134      1.691
REMARK  Name = 
REMARK  14 active torsions:
REMARK  status: ('A' for Active; 'I' for Inactive)
REMARK    1  A    between atoms: C_1  and  O_2
REMARK    2  A    between atoms: O_2  and  C_3
REMARK    3  A    between atoms: C_3  and  C_5
REMARK    4  A    between atoms: C_8  and  C_9
REMARK    5  A    between atoms: N_11  and  CA_12
REMARK    6  A    between atoms: CA_12  and  CB_13
REMARK    7  A    between atoms: CA_12  and  C_17
REMARK    8  A    between atoms: CB_13  and  CG_14
REMARK    9  A    between atoms: CG_14  and  CD1_15
REMARK   10  A    between atoms: CG_14  and  CD2_16
REMARK   11  A    between atoms: N_19  and  CA_20
REMARK   12  A    between atoms: CA_20  and  C_21
REMARK   13  A    between atoms: CA_20  and  CB_23
REMARK   14  A    between atoms: CB_23  and  CG_24
REMARK                            x       y       z     vdW  Elec       q    Type
REMARK                         _______ _______ _______ _____ _____    ______ ____
ROOT
ATOM      1  CA  LEU A   1       2.785   5.593  18.653  0.00  0.00    +0.000 C 
ENDROOT
BRANCH   1   4
ATOM      2  C   UNK A   0       1.661   7.321  20.124  0.00  0.00    +0.000 C 
ATOM      3  O   UNK A   0       1.369   6.507  20.996  0.00  0.00    +0.000 OA
ATOM      4  N   LEU A   1       2.328   6.949  18.981  0.00  0.00    +0.000 N 
ATOM      5  H   LEU A   1       2.532   7.671  18.293  0.00  0.00    +0.000 HD
BRANCH   2   9
ATOM      6  C   UNK A   0       0.801  11.132  19.737  0.00  0.00    +0.000 A 
ATOM      7  C   UNK A   0       0.761  10.842  21.089  0.00  0.00    +0.000 A 
ATOM      8  C   UNK A   0       1.058   9.471  21.362  0.00  0.00    +0.000 A 
ATOM      9  C   UNK A   0       1.311   8.742  20.216  0.00  0.00    +0.000 A 
ATOM     10  S   UNK A   0       1.183   9.732  18.823  0.00  0.00    +0.000 S 
BRANCH   6  11
ATOM     11  C   UNK A   0       0.574  12.387  19.040  0.00  0.00    +0.000 C 
ATOM     12  O   UNK A   0      -0.490  12.775  18.574  0.00  0.00    +0.000 OA
BRANCH  11  14
ATOM     13  C   UNK A   0       1.555  14.503  18.766  0.00  0.00    +0.000 C 
ATOM     14  O   UNK A   0       1.739  13.100  18.974  0.00  0.00    +0.000 OA
ENDBRANCH  11  14
ENDBRANCH   6  11
ENDBRANCH   2   9
ENDBRANCH   1   4
BRANCH   1  15
ATOM     15  C   LEU A   1       3.975   5.794  17.676  0.00  0.00    +0.000 C 
ATOM     16  O   LEU A   1       4.090   6.815  16.998  0.00  0.00    +0.000 OA
ATOM     17  N   PHE A   2       4.860   4.743  17.565  0.00  0.00    +0.000 N 
ATOM     18  H   PHE A   2       4.922   4.092  18.343  0.00  0.00    +0.000 HD
BRANCH  17  19
ATOM     19  CA  PHE A   2       6.029   4.801  16.682  0.00  0.00    +0.000 C 
BRANCH  19  20
ATOM     20  C   PHE A   2       7.273   4.713  17.555  0.00  0.00    +0.000 C 
ATOM     21  O   PHE A   2       7.235   4.494  18.762  0.00  0.00    +0.000 OA
ENDBRANCH  19  20
BRANCH  19  22
ATOM     22  CB  PHE A   2       6.019   3.649  15.665  0.00  0.00    +0.000 C 
BRANCH  22  23
ATOM     23  CG  PHE A   2       6.506   4.039  14.286  0.00  0.00    +0.000 A 
ATOM     24  CD1 PHE A   2       7.439   5.074  14.127  0.00  0.00    +0.000 A 
ATOM     25  CE1 PHE A   2       7.883   5.440  12.854  0.00  0.00    +0.000 A 
ATOM     26  CZ  PHE A   2       7.404   4.775  11.728  0.00  0.00    +0.000 A 
ATOM     27  CE2 PHE A   2       6.488   3.736  11.875  0.00  0.00    +0.000 A 
ATOM     28  CD2 PHE A   2       6.045   3.365  13.146  0.00  0.00    +0.000 A 
ENDBRANCH  22  23
ENDBRANCH  19  22
ENDBRANCH  17  19
ENDBRANCH   1  15
BRANCH   1  29
ATOM     29  CB  LEU A   1       1.663   4.761  17.998  0.00  0.00    +0.000 C 
BRANCH  29  30
ATOM     30  CG  LEU A   1       1.512   3.305  18.487  0.00  0.00    +0.000 C 
ATOM     31  CD1 LEU A   1       2.357   2.306  17.695  0.00  0.00    +0.000 C 
ATOM     32  CD2 LEU A   1       1.867   3.210  19.975  0.00  0.00    +0.000 C 
ENDBRANCH  29  30
ENDBRANCH   1  29
TORSDOF 11
ENDMDL
MODEL 4
REMARK VINA RESULT:      -7.1      0.873      1.377
REMARK  Name = 
REMARK  14 active torsions:
REMARK  status: ('A' for Active; 'I' for Inactive)
REMARK    1  A    between atoms: C_1  and  O_2
REMARK    2  A    between atoms: O_2  and  C_3
REMARK    3  A    between atoms: C_3  and  C_5
REMARK    4  A    between atoms: C_8  and  C_9
REMARK    5  A    between atoms: N_11  and  CA_12
REMARK    6  A    between atoms: CA_12  and  CB_13
REMARK    7  A    between atoms: CA_12  and  C_17
REMARK    8  A    between atoms: CB_13  and  CG_14
REMARK    9  A    between atoms: CG_14  and  CD1_15
REMARK   10  A    between atoms: CG_14  and  CD2_16
REMARK   11  A    between atoms: N_19  and  CA_20
REMARK   12  A    between atoms: CA_20  and  C_21
REMARK   13  A    between atoms: CA_20  and  CB_23
REMARK   14  A    between atoms: CB_23  and  CG_24
REMARK                            x       y       z     vdW  Elec       q    Type
REMARK                         _______ _______ _______ _____ _____    ______ ____
ROOT
ATOM      1  CA  LEU A   1       2.997   6.424  18.780  0.00  0.00    +0.000 C 
ENDROOT
BRANCH   1   4
ATOM      2  C   UNK A   0       1.604   8.096  20.076  0.00  0.00    +0.000 C 
ATOM      3  O   UNK A   0       1.533   7.385  21.075  0.00  0.00    +0.000 OA
ATOM      4  N   LEU A   1       2.278   7.693  18.947  0.00  0.00    +0.000 N 
ATOM      5  H   LEU A   1       2.292   8.326  18.149  0.00  0.00    +0.000 HD
BRANCH   2   9
ATOM      6  C   UNK A   0      -0.169  11.495  19.229  0.00  0.00    +0.000 A 
ATOM      7  C   UNK A   0       0.145  11.525  20.576  0.00  0.00    +0.000 A 
ATOM      8  C   UNK A   0       0.800  10.331  21.010  0.00  0.00    +0.000 A 
ATOM      9  C   UNK A   0       0.965   9.413  19.992  0.00  0.00    +0.000 A 
ATOM     10  S   UNK A   0       0.321  10.012  18.521  0.00  0.00    +0.000 S 
BRANCH   6  11
ATOM     11  C   UNK A   0      -0.820  12.492  18.396  0.00  0.00    +0.000 C 
ATOM     12  O   UNK A   0      -0.570  13.690  18.370  0.00  0.00    +0.000 OA
BRANCH  11  14
ATOM     13  C   UNK A   0      -3.041  11.739  18.270  0.00  0.00    +0.000 C 
ATOM     14  O   UNK A   0      -1.777  11.897  17.621  0.00  0.00    +0.000 OA
ENDBRANCH  11  14
ENDBRANCH   6  11
ENDBRANCH   2   9
ENDBRANCH   1   4
BRANCH   1  15
ATOM     15  C   LEU A   1       4.058   6.703  17.682  0.00  0.00    +0.000 C 
ATOM     16  O   LEU A   1       3.826   7.452  16.734  0.00  0.00    +0.000 OA
ATOM     17  N   PHE A   2       5.249   6.018  17.794  0.00  0.00    +0.000 N 
ATOM     18  H   PHE A   2       5.521   5.687  18.716  0.00  0.00    +0.000 HD
BRANCH  17  19
ATOM     19  CA  PHE A   2       6.338   6.190  16.828  0.00  0.00    +0.000 C 
BRANCH  19  20
ATOM     20  C   PHE A   2       7.422   7.024  17.496  0.00  0.00    +0.000 C 
ATOM     21  O   PHE A   2       7.995   6.684  18.527  0.00  0.00    +0.000 OA
ENDBRANCH  19  20
BRANCH  19  22
ATOM     22  CB  PHE A   2       6.915   4.834  16.389  0.00  0.00    +0.000 C 
BRANCH  22  23
ATOM     23  CG  PHE A   2       6.908   4.617  14.891  0.00  0.00    +0.000 A 
ATOM     24  CD1 PHE A   2       7.800   5.316  14.066  0.00  0.00    +0.000 A 
ATOM     25  CE1 PHE A   2       7.789   5.123  12.683  0.00  0.00    +0.000 A 
ATOM     26  CZ  PHE A   2       6.890   4.226  12.109  0.00  0.00    +0.000 A 
ATOM     27  CE2 PHE A   2       6.009   3.514  12.920  0.00  0.00    +0.000 A 
ATOM     28  CD2 PHE A   2       6.020   3.703  14.304  0.00  0.00    +0.000 A 
ENDBRANCH  22  23
ENDBRANCH  19  22
ENDBRANCH  17  19
ENDBRANCH   1  15
BRANCH   1  29
ATOM     29  CB  LEU A   1       2.044   5.287  18.357  0.00  0.00    +0.000 C 
BRANCH  29  30
ATOM     30  CG  LEU A   1       2.493   3.850  18.698  0.00  0.00    +0.000 C 
ATOM     31  CD1 LEU A   1       1.395   3.009  19.352  0.00  0.00    +0.000 C 
ATOM     32  CD2 LEU A   1       2.996   3.142  17.435  0.00  0.00    +0.000 C 
ENDBRANCH  29  30
ENDBRANCH   1  29
TORSDOF 11
ENDMDL
MODEL 5
REMARK VINA RESULT:      -7.1      1.394      1.938
REMARK  Name = 
REMARK  14 active torsions:
REMARK  status: ('A' for Active; 'I' for Inactive)
REMARK    1  A    between atoms: C_1  and  O_2
REMARK    2  A    between atoms: O_2  and  C_3
REMARK    3  A    between atoms: C_3  and  C_5
REMARK    4  A    between atoms: C_8  and  C_9
REMARK    5  A    between atoms: N_11  and  CA_12
REMARK    6  A    between atoms: CA_12  and  CB_13
REMARK    7  A    between atoms: CA_12  and  C_17
REMARK    8  A    between atoms: CB_13  and  CG_14
REMARK    9  A    between atoms: CG_14  and  CD1_15
REMARK   10  A    between atoms: CG_14  and  CD2_16
REMARK   11  A    between atoms: N_19  and  CA_20
REMARK   12  A    between atoms: CA_20  and  C_21
REMARK   13  A    between atoms: CA_20  and  CB_23
REMARK   14  A    between atoms: CB_23  and  CG_24
REMARK                            x       y       z     vdW  Elec       q    Type
REMARK                         _______ _______ _______ _____ _____    ______ ____
ROOT
ATOM      1  CA  LEU A   1       2.923   6.147  19.130  0.00  0.00    +0.000 C 
ENDROOT
BRANCH   1   4
ATOM      2  C   UNK A   0       1.640   8.101  20.107  0.00  0.00    +0.000 C 
ATOM      3  O   UNK A   0       1.601   7.615  21.235  0.00  0.00    +0.000 OA
ATOM      4  N   LEU A   1       2.247   7.449  19.059  0.00  0.00    +0.000 N 
ATOM      5  H   LEU A   1       2.237   7.901  18.148  0.00  0.00    +0.000 HD
BRANCH   2   9
ATOM      6  C   UNK A   0      -0.373  11.449  19.721  0.00  0.00    +0.000 A 
ATOM      7  C   UNK A   0       0.546  11.405  18.688  0.00  0.00    +0.000 A 
ATOM      8  C   UNK A   0       1.348  10.224  18.720  0.00  0.00    +0.000 A 
ATOM      9  C   UNK A   0       1.033   9.393  19.779  0.00  0.00    +0.000 A 
ATOM     10  S   UNK A   0      -0.233  10.062  20.720  0.00  0.00    +0.000 S 
BRANCH   6  11
ATOM     11  C   UNK A   0      -1.371  12.453  20.046  0.00  0.00    +0.000 C 
ATOM     12  O   UNK A   0      -1.170  13.516  20.621  0.00  0.00    +0.000 OA
BRANCH  11  14
ATOM     13  C   UNK A   0      -3.694  12.777  20.173  0.00  0.00    +0.000 C 
ATOM     14  O   UNK A   0      -2.601  12.044  19.612  0.00  0.00    +0.000 OA
ENDBRANCH  11  14
ENDBRANCH   6  11
ENDBRANCH   2   9
ENDBRANCH   1   4
BRANCH   1  15
ATOM     15  C   LEU A   1       4.030   6.209  18.043  0.00  0.00    +0.000 C 
ATOM     16  O   LEU A   1       4.230   7.226  17.380  0.00  0.00    +0.000 OA
ATOM     17  N   PHE A   2       4.732   5.044  17.819  0.00  0.00    +0.000 N 
ATOM     18  H   PHE A   2       4.771   4.362  18.571  0.00  0.00    +0.000 HD
BRANCH  17  19
ATOM     19  CA  PHE A   2       5.806   4.964  16.824  0.00  0.00    +0.000 C 
BRANCH  19  20
ATOM     20  C   PHE A   2       7.102   4.664  17.565  0.00  0.00    +0.000 C 
ATOM     21  O   PHE A   2       7.897   5.534  17.909  0.00  0.00    +0.000 OA
ENDBRANCH  19  20
BRANCH  19  22
ATOM     22  CB  PHE A   2       5.526   3.862  15.789  0.00  0.00    +0.000 C 
BRANCH  22  23
ATOM     23  CG  PHE A   2       6.172   4.105  14.442  0.00  0.00    +0.000 A 
ATOM     24  CD1 PHE A   2       7.217   5.031  14.308  0.00  0.00    +0.000 A 
ATOM     25  CE1 PHE A   2       7.808   5.261  13.064  0.00  0.00    +0.000 A 
ATOM     26  CZ  PHE A   2       7.366   4.566  11.941  0.00  0.00    +0.000 A 
ATOM     27  CE2 PHE A   2       6.339   3.633  12.063  0.00  0.00    +0.000 A 
ATOM     28  CD2 PHE A   2       5.749   3.398  13.306  0.00  0.00    +0.000 A 
ENDBRANCH  22  23
ENDBRANCH  19  22
ENDBRANCH  17  19
ENDBRANCH   1  15
BRANCH   1  29
ATOM     29  CB  LEU A   1       1.943   4.987  18.861  0.00  0.00    +0.000 C 
BRANCH  29  30
ATOM     30  CG  LEU A   1       1.337   4.297  20.102  0.00  0.00    +0.000 C 
ATOM     31  CD1 LEU A   1       0.833   2.879  19.824  0.00  0.00    +0.000 C 
ATOM     32  CD2 LEU A   1       2.363   4.262  21.239  0.00  0.00    +0.000 C 
ENDBRANCH  29  30
ENDBRANCH   1  29
TORSDOF 11
ENDMDL
MODEL 6
REMARK VINA RESULT:      -7.1      1.363      1.668
REMARK  Name = 
REMARK  14 active torsions:
REMARK  status: ('A' for Active; 'I' for Inactive)
REMARK    1  A    between atoms: C_1  and  O_2
REMARK    2  A    between atoms: O_2  and  C_3
REMARK    3  A    between atoms: C_3  and  C_5
REMARK    4  A    between atoms: C_8  and  C_9
REMARK    5  A    between atoms: N_11  and  CA_12
REMARK    6  A    between atoms: CA_12  and  CB_13
REMARK    7  A    between atoms: CA_12  and  C_17
REMARK    8  A    between atoms: CB_13  and  CG_14
REMARK    9  A    between atoms: CG_14  and  CD1_15
REMARK   10  A    between atoms: CG_14  and  CD2_16
REMARK   11  A    between atoms: N_19  and  CA_20
REMARK   12  A    between atoms: CA_20  and  C_21
REMARK   13  A    between atoms: CA_20  and  CB_23
REMARK   14  A    between atoms: CB_23  and  CG_24
REMARK                            x       y       z     vdW  Elec       q    Type
REMARK                         _______ _______ _______ _____ _____    ______ ____
ROOT
ATOM      1  CA  LEU A   1       2.958   6.205  18.993  0.00  0.00    +0.000 C 
ENDROOT
BRANCH   1   4
ATOM      2  C   UNK A   0       1.618   8.081  20.042  0.00  0.00    +0.000 C 
ATOM      3  O   UNK A   0       1.566   7.537  21.142  0.00  0.00    +0.000 OA
ATOM      4  N   LEU A   1       2.258   7.496  18.975  0.00  0.00    +0.000 N 
ATOM      5  H   LEU A   1       2.257   7.994  18.087  0.00  0.00    +0.000 HD
BRANCH   2   9
ATOM      6  C   UNK A   0      -0.158  11.580  19.936  0.00  0.00    +0.000 A 
ATOM      7  C   UNK A   0       0.130  11.230  18.628  0.00  0.00    +0.000 A 
ATOM      8  C   UNK A   0       0.785   9.964  18.534  0.00  0.00    +0.000 A 
ATOM      9  C   UNK A   0       0.991   9.377  19.767  0.00  0.00    +0.000 A 
ATOM     10  S   UNK A   0       0.387  10.373  21.024  0.00  0.00    +0.000 S 
BRANCH   6  11
ATOM     11  C   UNK A   0      -0.817  12.762  20.466  0.00  0.00    +0.000 C 
ATOM     12  O   UNK A   0      -0.266  13.741  20.953  0.00  0.00    +0.000 OA
BRANCH  11  14
ATOM     13  C   UNK A   0      -2.914  13.739  20.865  0.00  0.00    +0.000 C 
ATOM     14  O   UNK A   0      -2.173  12.633  20.345  0.00  0.00    +0.000 OA
ENDBRANCH  11  14
ENDBRANCH   6  11
ENDBRANCH   2   9
ENDBRANCH   1   4
BRANCH   1  15
ATOM     15  C   LEU A   1       4.077   6.339  17.924  0.00  0.00    +0.000 C 
ATOM     16  O   LEU A   1       4.200   7.355  17.241  0.00  0.00    +0.000 OA
ATOM     17  N   PHE A   2       4.882   5.236  17.742  0.00  0.00    +0.000 N 
ATOM     18  H   PHE A   2       4.967   4.577  18.511  0.00  0.00    +0.000 HD
BRANCH  17  19
ATOM     19  CA  PHE A   2       5.979   5.228  16.768  0.00  0.00    +0.000 C 
BRANCH  19  20
ATOM     20  C   PHE A   2       7.286   5.332  17.541  0.00  0.00    +0.000 C 
ATOM     21  O   PHE A   2       7.841   4.368  18.059  0.00  0.00    +0.000 OA
ENDBRANCH  19  20
BRANCH  19  22
ATOM     22  CB  PHE A   2       5.968   3.942  15.926  0.00  0.00    +0.000 C 
BRANCH  22  23
ATOM     23  CG  PHE A   2       6.420   4.138  14.495  0.00  0.00    +0.000 A 
ATOM     24  CD1 PHE A   2       5.853   3.382  13.458  0.00  0.00    +0.000 A 
ATOM     25  CE1 PHE A   2       6.275   3.557  12.139  0.00  0.00    +0.000 A 
ATOM     26  CZ  PHE A   2       7.263   4.492  11.838  0.00  0.00    +0.000 A 
ATOM     27  CE2 PHE A   2       7.823   5.260  12.857  0.00  0.00    +0.000 A 
ATOM     28  CD2 PHE A   2       7.400   5.089  14.177  0.00  0.00    +0.000 A 
ENDBRANCH  22  23
ENDBRANCH  19  22
ENDBRANCH  17  19
ENDBRANCH   1  15
BRANCH   1  29
ATOM     29  CB  LEU A   1       2.005   5.040  18.657  0.00  0.00    +0.000 C 
BRANCH  29  30
ATOM     30  CG  LEU A   1       2.085   3.800  19.572  0.00  0.00    +0.000 C 
ATOM     31  CD1 LEU A   1       2.098   4.144  21.063  0.00  0.00    +0.000 C 
ATOM     32  CD2 LEU A   1       0.919   2.851  19.276  0.00  0.00    +0.000 C 
ENDBRANCH  29  30
ENDBRANCH   1  29
TORSDOF 11
ENDMDL
MODEL 7
REMARK VINA RESULT:      -7.0      0.517      1.206
REMARK  Name = 
REMARK  14 active torsions:
REMARK  status: ('A' for Active; 'I' for Inactive)
REMARK    1  A    between atoms: C_1  and  O_2
REMARK    2  A    between atoms: O_2  and  C_3
REMARK    3  A    between atoms: C_3  and  C_5
REMARK    4  A    between atoms: C_8  and  C_9
REMARK    5  A    between atoms: N_11  and  CA_12
REMARK    6  A    between atoms: CA_12  and  CB_13
REMARK    7  A    between atoms: CA_12  and  C_17
REMARK    8  A    between atoms: CB_13  and  CG_14
REMARK    9  A    between atoms: CG_14  and  CD1_15
REMARK   10  A    between atoms: CG_14  and  CD2_16
REMARK   11  A    between atoms: N_19  and  CA_20
REMARK   12  A    between atoms: CA_20  and  C_21
REMARK   13  A    between atoms: CA_20  and  CB_23
REMARK   14  A    between atoms: CB_23  and  CG_24
REMARK                            x       y       z     vdW  Elec       q    Type
REMARK                         _______ _______ _______ _____ _____    ______ ____
ROOT
ATOM      1  CA  LEU A   1       3.135   5.909  18.829  0.00  0.00    +0.000 C 
ENDROOT
BRANCH   1   4
ATOM      2  C   UNK A   0       1.662   7.199  20.436  0.00  0.00    +0.000 C 
ATOM      3  O   UNK A   0       1.424   6.216  21.134  0.00  0.00    +0.000 OA
ATOM      4  N   LEU A   1       2.462   7.118  19.320  0.00  0.00    +0.000 N 
ATOM      5  H   LEU A   1       2.612   7.967  18.780  0.00  0.00    +0.000 HD
BRANCH   2   9
ATOM      6  C   UNK A   0       0.268  10.866  20.568  0.00  0.00    +0.000 A 
ATOM      7  C   UNK A   0       0.216  10.365  21.856  0.00  0.00    +0.000 A 
ATOM      8  C   UNK A   0       0.701   9.024  21.940  0.00  0.00    +0.000 A 
ATOM      9  C   UNK A   0       1.104   8.525  20.716  0.00  0.00    +0.000 A 
ATOM     10  S   UNK A   0       0.887   9.693  19.481  0.00  0.00    +0.000 S 
BRANCH   6  11
ATOM     11  C   UNK A   0      -0.114  12.171  20.053  0.00  0.00    +0.000 C 
ATOM     12  O   UNK A   0       0.027  12.566  18.903  0.00  0.00    +0.000 OA
BRANCH  11  14
ATOM     13  C   UNK A   0      -1.349  14.093  20.596  0.00  0.00    +0.000 C 
ATOM     14  O   UNK A   0      -0.669  12.920  21.053  0.00  0.00    +0.000 OA
ENDBRANCH  11  14
ENDBRANCH   6  11
ENDBRANCH   2   9
ENDBRANCH   1   4
BRANCH   1  15
ATOM     15  C   LEU A   1       4.162   6.417  17.781  0.00  0.00    +0.000 C 
ATOM     16  O   LEU A   1       3.913   7.367  17.039  0.00  0.00    +0.000 OA
ATOM     17  N   PHE A   2       5.341   5.709  17.688  0.00  0.00    +0.000 N 
ATOM     18  H   PHE A   2       5.638   5.173  18.499  0.00  0.00    +0.000 HD
BRANCH  17  19
ATOM     19  CA  PHE A   2       6.399   6.083  16.744  0.00  0.00    +0.000 C 
BRANCH  19  20
ATOM     20  C   PHE A   2       7.363   7.010  17.471  0.00  0.00    +0.000 C 
ATOM     21  O   PHE A   2       7.908   6.717  18.531  0.00  0.00    +0.000 OA
ENDBRANCH  19  20
BRANCH  19  22
ATOM     22  CB  PHE A   2       7.149   4.845  16.227  0.00  0.00    +0.000 C 
BRANCH  22  23
ATOM     23  CG  PHE A   2       7.003   4.611  14.739  0.00  0.00    +0.000 A 
ATOM     24  CD1 PHE A   2       7.819   5.295  13.827  0.00  0.00    +0.000 A 
ATOM     25  CE1 PHE A   2       7.678   5.087  12.453  0.00  0.00    +0.000 A 
ATOM     26  CZ  PHE A   2       6.726   4.189  11.976  0.00  0.00    +0.000 A 
ATOM     27  CE2 PHE A   2       5.920   3.492  12.873  0.00  0.00    +0.000 A 
ATOM     28  CD2 PHE A   2       6.060   3.696  14.247  0.00  0.00    +0.000 A 
ENDBRANCH  22  23
ENDBRANCH  19  22
ENDBRANCH  17  19
ENDBRANCH   1  15
BRANCH   1  29
ATOM     29  CB  LEU A   1       2.133   4.924  18.193  0.00  0.00    +0.000 C 
BRANCH  29  30
ATOM     30  CG  LEU A   1       2.263   3.444  18.611  0.00  0.00    +0.000 C 
ATOM     31  CD1 LEU A   1       0.918   2.726  18.735  0.00  0.00    +0.000 C 
ATOM     32  CD2 LEU A   1       3.155   2.692  17.617  0.00  0.00    +0.000 C 
ENDBRANCH  29  30
ENDBRANCH   1  29
TORSDOF 11
ENDMDL
MODEL 8
REMARK VINA RESULT:      -7.0      1.305      1.831
REMARK  Name = 
REMARK  14 active torsions:
REMARK  status: ('A' for Active; 'I' for Inactive)
REMARK    1  A    between atoms: C_1  and  O_2
REMARK    2  A    between atoms: O_2  and  C_3
REMARK    3  A    between atoms: C_3  and  C_5
REMARK    4  A    between atoms: C_8  and  C_9
REMARK    5  A    between atoms: N_11  and  CA_12
REMARK    6  A    between atoms: CA_12  and  CB_13
REMARK    7  A    between atoms: CA_12  and  C_17
REMARK    8  A    between atoms: CB_13  and  CG_14
REMARK    9  A    between atoms: CG_14  and  CD1_15
REMARK   10  A    between atoms: CG_14  and  CD2_16
REMARK   11  A    between atoms: N_19  and  CA_20
REMARK   12  A    between atoms: CA_20  and  C_21
REMARK   13  A    between atoms: CA_20  and  CB_23
REMARK   14  A    between atoms: CB_23  and  CG_24
REMARK                            x       y       z     vdW  Elec       q    Type
REMARK                         _______ _______ _______ _____ _____    ______ ____
ROOT
ATOM      1  CA  LEU A   1       2.816   5.601  19.157  0.00  0.00    +0.000 C 
ENDROOT
BRANCH   1   4
ATOM      2  C   UNK A   0       1.645   7.643  20.092  0.00  0.00    +0.000 C 
ATOM      3  O   UNK A   0       1.178   7.036  21.052  0.00  0.00    +0.000 OA
ATOM      4  N   LEU A   1       2.425   7.016  19.149  0.00  0.00    +0.000 N 
ATOM      5  H   LEU A   1       2.774   7.574  18.372  0.00  0.00    +0.000 HD
BRANCH   2   9
ATOM      6  C   UNK A   0       0.823  11.482  20.082  0.00  0.00    +0.000 A 
ATOM      7  C   UNK A   0       1.159  11.134  18.785  0.00  0.00    +0.000 A 
ATOM      8  C   UNK A   0       1.483   9.749  18.658  0.00  0.00    +0.000 A 
ATOM      9  C   UNK A   0       1.397   9.068  19.857  0.00  0.00    +0.000 A 
ATOM     10  S   UNK A   0       0.925  10.123  21.123  0.00  0.00    +0.000 S 
BRANCH   6  11
ATOM     11  C   UNK A   0       0.426  12.765  20.635  0.00  0.00    +0.000 C 
ATOM     12  O   UNK A   0       0.936  13.330  21.594  0.00  0.00    +0.000 OA
BRANCH  11  14
ATOM     13  C   UNK A   0      -1.882  12.662  20.211  0.00  0.00    +0.000 C 
ATOM     14  O   UNK A   0      -0.623  13.275  19.921  0.00  0.00    +0.000 OA
ENDBRANCH  11  14
ENDBRANCH   6  11
ENDBRANCH   2   9
ENDBRANCH   1   4
BRANCH   1  15
ATOM     15  C   LEU A   1       4.213   5.564  18.481  0.00  0.00    +0.000 C 
ATOM     16  O   LEU A   1       5.203   5.123  19.064  0.00  0.00    +0.000 OA
ATOM     17  N   PHE A   2       4.294   6.108  17.217  0.00  0.00    +0.000 N 
ATOM     18  H   PHE A   2       3.443   6.153  16.664  0.00  0.00    +0.000 HD
BRANCH  17  19
ATOM     19  CA  PHE A   2       5.551   6.136  16.463  0.00  0.00    +0.000 C 
BRANCH  19  20
ATOM     20  C   PHE A   2       6.597   6.823  17.330  0.00  0.00    +0.000 C 
ATOM     21  O   PHE A   2       7.424   7.614  16.887  0.00  0.00    +0.000 OA
ENDBRANCH  19  20
BRANCH  19  22
ATOM     22  CB  PHE A   2       6.018   4.716  16.104  0.00  0.00    +0.000 C 
BRANCH  22  23
ATOM     23  CG  PHE A   2       6.382   4.537  14.646  0.00  0.00    +0.000 A 
ATOM     24  CD1 PHE A   2       7.430   5.276  14.077  0.00  0.00    +0.000 A 
ATOM     25  CE1 PHE A   2       7.761   5.117  12.729  0.00  0.00    +0.000 A 
ATOM     26  CZ  PHE A   2       7.054   4.216  11.937  0.00  0.00    +0.000 A 
ATOM     27  CE2 PHE A   2       6.021   3.465  12.494  0.00  0.00    +0.000 A 
ATOM     28  CD2 PHE A   2       5.690   3.619  13.842  0.00  0.00    +0.000 A 
ENDBRANCH  22  23
ENDBRANCH  19  22
ENDBRANCH  17  19
ENDBRANCH   1  15
BRANCH   1  29
ATOM     29  CB  LEU A   1       1.802   4.731  18.386  0.00  0.00    +0.000 C 
BRANCH  29  30
ATOM     30  CG  LEU A   1       1.302   3.458  19.103  0.00  0.00    +0.000 C 
ATOM     31  CD1 LEU A   1       2.183   2.233  18.852  0.00  0.00    +0.000 C 
ATOM     32  CD2 LEU A   1       1.196   3.711  20.611  0.00  0.00    +0.000 C 
ENDBRANCH  29  30
ENDBRANCH   1  29
TORSDOF 11
ENDMDL
MODEL 9
REMARK VINA RESULT:      -7.0      1.211      1.696
REMARK  Name = 
REMARK  14 active torsions:
REMARK  status: ('A' for Active; 'I' for Inactive)
REMARK    1  A    between atoms: C_1  and  O_2
REMARK    2  A    between atoms: O_2  and  C_3
REMARK    3  A    between atoms: C_3  and  C_5
REMARK    4  A    between atoms: C_8  and  C_9
REMARK    5  A    between atoms: N_11  and  CA_12
REMARK    6  A    between atoms: CA_12  and  CB_13
REMARK    7  A    between atoms: CA_12  and  C_17
REMARK    8  A    between atoms: CB_13  and  CG_14
REMARK    9  A    between atoms: CG_14  and  CD1_15
REMARK   10  A    between atoms: CG_14  and  CD2_16
REMARK   11  A    between atoms: N_19  and  CA_20
REMARK   12  A    between atoms: CA_20  and  C_21
REMARK   13  A    between atoms: CA_20  and  CB_23
REMARK   14  A    between atoms: CB_23  and  CG_24
REMARK                            x       y       z     vdW  Elec       q    Type
REMARK                         _______ _______ _______ _____ _____    ______ ____
ROOT
ATOM      1  CA  LEU A   1       3.022   6.272  18.686  0.00  0.00    +0.000 C 
ENDROOT
BRANCH   1   4
ATOM      2  C   UNK A   0       1.659   7.861  20.111  0.00  0.00    +0.000 C 
ATOM      3  O   UNK A   0       1.684   7.128  21.096  0.00  0.00    +0.000 OA
ATOM      4  N   LEU A   1       2.269   7.509  18.930  0.00  0.00    +0.000 N 
ATOM      5  H   LEU A   1       2.203   8.157  18.148  0.00  0.00    +0.000 HD
BRANCH   2   9
ATOM      6  C   UNK A   0      -0.422  11.145  20.654  0.00  0.00    +0.000 A 
ATOM      7  C   UNK A   0       0.164  11.237  19.404  0.00  0.00    +0.000 A 
ATOM      8  C   UNK A   0       0.956  10.092  19.087  0.00  0.00    +0.000 A 
ATOM      9  C   UNK A   0       0.967   9.153  20.101  0.00  0.00    +0.000 A 
ATOM     10  S   UNK A   0       0.015   9.678  21.426  0.00  0.00    +0.000 S 
BRANCH   6  11
ATOM     11  C   UNK A   0      -1.298  12.073  21.349  0.00  0.00    +0.000 C 
ATOM     12  O   UNK A   0      -2.316  12.585  20.900  0.00  0.00    +0.000 OA
BRANCH  11  14
ATOM     13  C   UNK A   0      -1.158  13.594  23.134  0.00  0.00    +0.000 C 
ATOM     14  O   UNK A   0      -0.823  12.306  22.610  0.00  0.00    +0.000 OA
ENDBRANCH  11  14
ENDBRANCH   6  11
ENDBRANCH   2   9
ENDBRANCH   1   4
BRANCH   1  15
ATOM     15  C   LEU A   1       4.100   6.658  17.637  0.00  0.00    +0.000 C 
ATOM     16  O   LEU A   1       3.885   7.504  16.770  0.00  0.00    +0.000 OA
ATOM     17  N   PHE A   2       5.285   5.957  17.693  0.00  0.00    +0.000 N 
ATOM     18  H   PHE A   2       5.542   5.529  18.578  0.00  0.00    +0.000 HD
BRANCH  17  19
ATOM     19  CA  PHE A   2       6.389   6.222  16.765  0.00  0.00    +0.000 C 
BRANCH  19  20
ATOM     20  C   PHE A   2       7.401   7.100  17.488  0.00  0.00    +0.000 C 
ATOM     21  O   PHE A   2       7.952   6.771  18.534  0.00  0.00    +0.000 OA
ENDBRANCH  19  20
BRANCH  19  22
ATOM     22  CB  PHE A   2       7.059   4.917  16.307  0.00  0.00    +0.000 C 
BRANCH  22  23
ATOM     23  CG  PHE A   2       6.979   4.673  14.815  0.00  0.00    +0.000 A 
ATOM     24  CD1 PHE A   2       6.063   3.750  14.292  0.00  0.00    +0.000 A 
ATOM     25  CE1 PHE A   2       5.994   3.519  12.916  0.00  0.00    +0.000 A 
ATOM     26  CZ  PHE A   2       6.836   4.211  12.048  0.00  0.00    +0.000 A 
ATOM     27  CE2 PHE A   2       7.740   5.142  12.554  0.00  0.00    +0.000 A 
ATOM     28  CD2 PHE A   2       7.808   5.377  13.929  0.00  0.00    +0.000 A 
ENDBRANCH  22  23
ENDBRANCH  19  22
ENDBRANCH  17  19
ENDBRANCH   1  15
BRANCH   1  29
ATOM     29  CB  LEU A   1       2.107   5.149  18.155  0.00  0.00    +0.000 C 
BRANCH  29  30
ATOM     30  CG  LEU A   1       1.567   4.150  19.201  0.00  0.00    +0.000 C 
ATOM     31  CD1 LEU A   1       1.086   2.832  18.591  0.00  0.00    +0.000 C 
ATOM     32  CD2 LEU A   1       2.639   3.864  20.258  0.00  0.00    +0.000 C 
ENDBRANCH  29  30
ENDBRANCH   1  29
TORSDOF 11
ENDMDL
