MODEL 1
REMARK VINA RESULT:      -8.0      0.000      0.000
REMARK  Name = 
REMARK  8 active torsions:
REMARK  status: ('A' for Active; 'I' for Inactive)
REMARK    1  A    between atoms: C_1  and  N_2
REMARK    2  A    between atoms: N_2  and  C_3
REMARK    3  A    between atoms: N_2  and  C_4
REMARK    4  A    between atoms: C_4  and  C_5
REMARK    5  A    between atoms: C_5  and  N_6
REMARK    6  A    between atoms: C_11  and  C_12
REMARK    7  A    between atoms: C_18  and  C_19
REMARK    8  A    between atoms: C_23  and  C_24
REMARK                            x       y       z     vdW  Elec       q    Type
REMARK                         _______ _______ _______ _____ _____    ______ ____
ROOT
ATOM      1  C   UNL     1       2.201   7.029  19.517  0.00  0.00    +0.000 A 
ATOM      2  C   UNL     1       1.606   6.289  20.550  0.00  0.00    +0.000 A 
ATOM      3  C   UNL     1       1.921   4.943  20.782  0.00  0.00    +0.000 A 
ATOM      4  C   UNL     1       2.864   4.340  19.947  0.00  0.00    +0.000 A 
ATOM      5  N   UNL     1       3.325   3.046  19.923  0.00  0.00    +0.000 N 
ATOM      6  C   UNL     1       4.257   2.891  18.931  0.00  0.00    +0.000 A 
ATOM      7  C   UNL     1       4.423   4.106  18.292  0.00  0.00    +0.000 A 
ATOM      8  C   UNL     1       3.516   5.026  18.921  0.00  0.00    +0.000 A 
ATOM      9  C   UNL     1       3.161   6.379  18.712  0.00  0.00    +0.000 A 
ATOM     10  H   UNL     1       3.011   2.315  20.546  0.00  0.00    +0.000 HD
ENDROOT
BRANCH   1  16
ATOM     11  N   UNL     1      -0.340  10.868  20.804  0.00  0.00    +0.000 N 
ATOM     12  C   UNL     1       0.555  10.254  19.902  0.00  0.00    +0.000 A 
ATOM     13  C   UNL     1       1.095  10.984  18.844  0.00  0.00    +0.000 A 
ATOM     14  N   UNL     1       2.003  10.483  17.971  0.00  0.00    +0.000 NA
ATOM     15  C   UNL     1       2.343   9.189  18.188  0.00  0.00    +0.000 A 
ATOM     16  C   UNL     1       1.805   8.417  19.215  0.00  0.00    +0.000 A 
ATOM     17  N   UNL     1       0.882   8.954  20.056  0.00  0.00    +0.000 NA
ATOM     18  H   UNL     1       0.018  11.801  21.014  0.00  0.00    +0.000 HD
BRANCH  11  19
ATOM     19  C   UNL     1      -0.450  10.141  22.081  0.00  0.00    +0.000 C 
BRANCH  19  20
ATOM     20  C   UNL     1      -0.991  11.066  23.206  0.00  0.00    +0.000 C 
BRANCH  20  22
ATOM     21  C   UNL     1      -3.150  12.178  23.383  0.00  0.00    +0.000 C 
ATOM     22  N   UNL     1      -1.849  12.175  22.712  0.00  0.00    +0.000 NA
ATOM     23  C   UNL     1      -1.170  13.454  22.947  0.00  0.00    +0.000 C 
ENDBRANCH  20  22
ENDBRANCH  19  20
ENDBRANCH  11  19
ENDBRANCH   1  16
BRANCH   7  24
ATOM     24  C   UNL     1       5.366   4.308  17.194  0.00  0.00    +0.000 A 
ATOM     25  C   UNL     1       6.638   4.850  17.423  0.00  0.00    +0.000 A 
ATOM     26  C   UNL     1       7.538   5.037  16.371  0.00  0.00    +0.000 A 
ATOM     27  C   UNL     1       7.181   4.676  15.074  0.00  0.00    +0.000 A 
ATOM     28  C   UNL     1       5.914   4.138  14.822  0.00  0.00    +0.000 A 
ATOM     29  C   UNL     1       5.011   3.965  15.881  0.00  0.00    +0.000 A 
BRANCH  28  30
ATOM     30  C   UNL     1       5.546   3.761  13.493  0.00  0.00    +0.000 C 
ATOM     31  N   UNL     1       5.242   3.447  12.418  0.00  0.00    +0.000 NA
ENDBRANCH  28  30
ENDBRANCH   7  24
TORSDOF 6
ENDMDL
MODEL 2
REMARK VINA RESULT:      -8.0      2.430      3.571
REMARK  Name = 
REMARK  8 active torsions:
REMARK  status: ('A' for Active; 'I' for Inactive)
REMARK    1  A    between atoms: C_1  and  N_2
REMARK    2  A    between atoms: N_2  and  C_3
REMARK    3  A    between atoms: N_2  and  C_4
REMARK    4  A    between atoms: C_4  and  C_5
REMARK    5  A    between atoms: C_5  and  N_6
REMARK    6  A    between atoms: C_11  and  C_12
REMARK    7  A    between atoms: C_18  and  C_19
REMARK    8  A    between atoms: C_23  and  C_24
REMARK                            x       y       z     vdW  Elec       q    Type
REMARK                         _______ _______ _______ _____ _____    ______ ____
ROOT
ATOM      1  C   UNL     1       1.790   6.624  20.357  0.00  0.00    +0.000 A 
ATOM      2  C   UNL     1       1.027   5.583  20.908  0.00  0.00    +0.000 A 
ATOM      3  C   UNL     1       1.240   4.240  20.566  0.00  0.00    +0.000 A 
ATOM      4  C   UNL     1       2.254   3.951  19.650  0.00  0.00    +0.000 A 
ATOM      5  N   UNL     1       2.648   2.749  19.118  0.00  0.00    +0.000 N 
ATOM      6  C   UNL     1       3.695   2.931  18.253  0.00  0.00    +0.000 A 
ATOM      7  C   UNL     1       4.005   4.278  18.219  0.00  0.00    +0.000 A 
ATOM      8  C   UNL     1       3.070   4.936  19.090  0.00  0.00    +0.000 A 
ATOM      9  C   UNL     1       2.815   6.279  19.449  0.00  0.00    +0.000 A 
ATOM     10  H   UNL     1       2.218   1.860  19.331  0.00  0.00    +0.000 HD
ENDROOT
BRANCH   1  16
ATOM     11  N   UNL     1       0.117  10.807  18.759  0.00  0.00    +0.000 N 
ATOM     12  C   UNL     1       0.671  10.046  19.810  0.00  0.00    +0.000 A 
ATOM     13  C   UNL     1       0.838  10.611  21.074  0.00  0.00    +0.000 A 
ATOM     14  N   UNL     1       1.308   9.929  22.146  0.00  0.00    +0.000 NA
ATOM     15  C   UNL     1       1.632   8.637  21.899  0.00  0.00    +0.000 A 
ATOM     16  C   UNL     1       1.508   8.043  20.645  0.00  0.00    +0.000 A 
ATOM     17  N   UNL     1       1.050   8.769  19.592  0.00  0.00    +0.000 NA
ATOM     18  H   UNL     1      -0.665  11.343  19.139  0.00  0.00    +0.000 HD
BRANCH  11  19
ATOM     19  C   UNL     1      -0.412   9.971  17.667  0.00  0.00    +0.000 C 
BRANCH  19  20
ATOM     20  C   UNL     1      -1.965   9.979  17.659  0.00  0.00    +0.000 C 
BRANCH  20  22
ATOM     21  C   UNL     1      -2.845  10.808  15.544  0.00  0.00    +0.000 C 
ATOM     22  N   UNL     1      -2.557  11.139  16.941  0.00  0.00    +0.000 NA
ATOM     23  C   UNL     1      -3.794  11.546  17.617  0.00  0.00    +0.000 C 
ENDBRANCH  20  22
ENDBRANCH  19  20
ENDBRANCH  11  19
ENDBRANCH   1  16
BRANCH   7  24
ATOM     24  C   UNL     1       5.094   4.826  17.413  0.00  0.00    +0.000 A 
ATOM     25  C   UNL     1       5.448   4.250  16.185  0.00  0.00    +0.000 A 
ATOM     26  C   UNL     1       6.487   4.780  15.417  0.00  0.00    +0.000 A 
ATOM     27  C   UNL     1       7.183   5.901  15.862  0.00  0.00    +0.000 A 
ATOM     28  C   UNL     1       6.850   6.490  17.087  0.00  0.00    +0.000 A 
ATOM     29  C   UNL     1       5.815   5.944  17.860  0.00  0.00    +0.000 A 
BRANCH  28  30
ATOM     30  C   UNL     1       7.559   7.644  17.545  0.00  0.00    +0.000 C 
ATOM     31  N   UNL     1       8.126   8.587  17.915  0.00  0.00    +0.000 NA
ENDBRANCH  28  30
ENDBRANCH   7  24
TORSDOF 6
ENDMDL
MODEL 3
REMARK VINA RESULT:      -7.9      2.732      5.119
REMARK  Name = 
REMARK  8 active torsions:
REMARK  status: ('A' for Active; 'I' for Inactive)
REMARK    1  A    between atoms: C_1  and  N_2
REMARK    2  A    between atoms: N_2  and  C_3
REMARK    3  A    between atoms: N_2  and  C_4
REMARK    4  A    between atoms: C_4  and  C_5
REMARK    5  A    between atoms: C_5  and  N_6
REMARK    6  A    between atoms: C_11  and  C_12
REMARK    7  A    between atoms: C_18  and  C_19
REMARK    8  A    between atoms: C_23  and  C_24
REMARK                            x       y       z     vdW  Elec       q    Type
REMARK                         _______ _______ _______ _____ _____    ______ ____
ROOT
ATOM      1  C   UNL     1       1.038   9.329  20.041  0.00  0.00    +0.000 A 
ATOM      2  C   UNL     1       1.465  10.052  18.918  0.00  0.00    +0.000 A 
ATOM      3  C   UNL     1       2.255   9.474  17.913  0.00  0.00    +0.000 A 
ATOM      4  C   UNL     1       2.612   8.131  18.055  0.00  0.00    +0.000 A 
ATOM      5  N   UNL     1       3.396   7.336  17.256  0.00  0.00    +0.000 N 
ATOM      6  C   UNL     1       3.478   6.072  17.776  0.00  0.00    +0.000 A 
ATOM      7  C   UNL     1       2.728   6.026  18.937  0.00  0.00    +0.000 A 
ATOM      8  C   UNL     1       2.195   7.346  19.132  0.00  0.00    +0.000 A 
ATOM      9  C   UNL     1       1.411   7.970  20.129  0.00  0.00    +0.000 A 
ATOM     10  H   UNL     1       3.852   7.648  16.409  0.00  0.00    +0.000 HD
ENDROOT
BRANCH   1  16
ATOM     11  N   UNL     1      -2.073  12.699  21.388  0.00  0.00    +0.000 N 
ATOM     12  C   UNL     1      -1.242  11.612  21.730  0.00  0.00    +0.000 A 
ATOM     13  C   UNL     1      -1.231  11.120  23.035  0.00  0.00    +0.000 A 
ATOM     14  N   UNL     1      -0.505  10.045  23.427  0.00  0.00    +0.000 NA
ATOM     15  C   UNL     1       0.244   9.480  22.450  0.00  0.00    +0.000 A 
ATOM     16  C   UNL     1       0.285   9.958  21.142  0.00  0.00    +0.000 A 
ATOM     17  N   UNL     1      -0.445  11.051  20.796  0.00  0.00    +0.000 NA
ATOM     18  H   UNL     1      -2.977  12.557  21.840  0.00  0.00    +0.000 HD
BRANCH  11  19
ATOM     19  C   UNL     1      -2.318  12.795  19.937  0.00  0.00    +0.000 C 
BRANCH  19  20
ATOM     20  C   UNL     1      -3.729  12.257  19.572  0.00  0.00    +0.000 C 
BRANCH  20  22
ATOM     21  C   UNL     1      -2.585  11.172  17.716  0.00  0.00    +0.000 C 
ATOM     22  N   UNL     1      -3.842  11.768  18.173  0.00  0.00    +0.000 NA
ATOM     23  C   UNL     1      -4.917  10.772  18.094  0.00  0.00    +0.000 C 
ENDBRANCH  20  22
ENDBRANCH  19  20
ENDBRANCH  11  19
ENDBRANCH   1  16
BRANCH   7  24
ATOM     24  C   UNL     1       2.574   4.815  19.740  0.00  0.00    +0.000 A 
ATOM     25  C   UNL     1       1.366   4.528  20.391  0.00  0.00    +0.000 A 
ATOM     26  C   UNL     1       1.222   3.366  21.155  0.00  0.00    +0.000 A 
ATOM     27  C   UNL     1       2.282   2.471  21.272  0.00  0.00    +0.000 A 
ATOM     28  C   UNL     1       3.499   2.742  20.635  0.00  0.00    +0.000 A 
ATOM     29  C   UNL     1       3.640   3.916  19.881  0.00  0.00    +0.000 A 
BRANCH  28  30
ATOM     30  C   UNL     1       4.588   1.822  20.748  0.00  0.00    +0.000 C 
ATOM     31  N   UNL     1       5.467   1.071  20.848  0.00  0.00    +0.000 NA
ENDBRANCH  28  30
ENDBRANCH   7  24
TORSDOF 6
ENDMDL
MODEL 4
REMARK VINA RESULT:      -7.9      2.117      3.009
REMARK  Name = 
REMARK  8 active torsions:
REMARK  status: ('A' for Active; 'I' for Inactive)
REMARK    1  A    between atoms: C_1  and  N_2
REMARK    2  A    between atoms: N_2  and  C_3
REMARK    3  A    between atoms: N_2  and  C_4
REMARK    4  A    between atoms: C_4  and  C_5
REMARK    5  A    between atoms: C_5  and  N_6
REMARK    6  A    between atoms: C_11  and  C_12
REMARK    7  A    between atoms: C_18  and  C_19
REMARK    8  A    between atoms: C_23  and  C_24
REMARK                            x       y       z     vdW  Elec       q    Type
REMARK                         _______ _______ _______ _____ _____    ______ ____
ROOT
ATOM      1  C   UNL     1       1.727   6.591  20.310  0.00  0.00    +0.000 A 
ATOM      2  C   UNL     1       0.950   5.571  20.881  0.00  0.00    +0.000 A 
ATOM      3  C   UNL     1       1.112   4.224  20.529  0.00  0.00    +0.000 A 
ATOM      4  C   UNL     1       2.087   3.909  19.580  0.00  0.00    +0.000 A 
ATOM      5  N   UNL     1       2.428   2.697  19.031  0.00  0.00    +0.000 N 
ATOM      6  C   UNL     1       3.451   2.852  18.133  0.00  0.00    +0.000 A 
ATOM      7  C   UNL     1       3.800   4.189  18.094  0.00  0.00    +0.000 A 
ATOM      8  C   UNL     1       2.914   4.871  18.997  0.00  0.00    +0.000 A 
ATOM      9  C   UNL     1       2.711   6.219  19.369  0.00  0.00    +0.000 A 
ATOM     10  H   UNL     1       1.978   1.821  19.255  0.00  0.00    +0.000 HD
ENDROOT
BRANCH   1  16
ATOM     11  N   UNL     1       0.132  10.830  18.780  0.00  0.00    +0.000 N 
ATOM     12  C   UNL     1       0.695  10.047  19.810  0.00  0.00    +0.000 A 
ATOM     13  C   UNL     1       0.918  10.602  21.070  0.00  0.00    +0.000 A 
ATOM     14  N   UNL     1       1.401   9.901  22.125  0.00  0.00    +0.000 NA
ATOM     15  C   UNL     1       1.677   8.601  21.863  0.00  0.00    +0.000 A 
ATOM     16  C   UNL     1       1.497   8.016  20.612  0.00  0.00    +0.000 A 
ATOM     17  N   UNL     1       1.029   8.761  19.576  0.00  0.00    +0.000 NA
ATOM     18  H   UNL     1      -0.622  11.387  19.186  0.00  0.00    +0.000 HD
BRANCH  11  19
ATOM     19  C   UNL     1      -0.455  10.015  17.702  0.00  0.00    +0.000 C 
BRANCH  19  20
ATOM     20  C   UNL     1      -2.007  10.077  17.736  0.00  0.00    +0.000 C 
BRANCH  20  22
ATOM     21  C   UNL     1      -2.755  10.303  15.429  0.00  0.00    +0.000 C 
ATOM     22  N   UNL     1      -2.596  10.984  16.716  0.00  0.00    +0.000 NA
ATOM     23  C   UNL     1      -3.902  11.459  17.186  0.00  0.00    +0.000 C 
ENDBRANCH  20  22
ENDBRANCH  19  20
ENDBRANCH  11  19
ENDBRANCH   1  16
BRANCH   7  24
ATOM     24  C   UNL     1       4.880   4.708  17.256  0.00  0.00    +0.000 A 
ATOM     25  C   UNL     1       5.736   5.716  17.720  0.00  0.00    +0.000 A 
ATOM     26  C   UNL     1       6.769   6.206  16.917  0.00  0.00    +0.000 A 
ATOM     27  C   UNL     1       6.966   5.687  15.640  0.00  0.00    +0.000 A 
ATOM     28  C   UNL     1       6.120   4.683  15.154  0.00  0.00    +0.000 A 
ATOM     29  C   UNL     1       5.077   4.206  15.961  0.00  0.00    +0.000 A 
BRANCH  28  30
ATOM     30  C   UNL     1       6.323   4.145  13.846  0.00  0.00    +0.000 C 
ATOM     31  N   UNL     1       6.478   3.704  12.783  0.00  0.00    +0.000 NA
ENDBRANCH  28  30
ENDBRANCH   7  24
TORSDOF 6
ENDMDL
MODEL 5
REMARK VINA RESULT:      -7.9      3.742      6.614
REMARK  Name = 
REMARK  8 active torsions:
REMARK  status: ('A' for Active; 'I' for Inactive)
REMARK    1  A    between atoms: C_1  and  N_2
REMARK    2  A    between atoms: N_2  and  C_3
REMARK    3  A    between atoms: N_2  and  C_4
REMARK    4  A    between atoms: C_4  and  C_5
REMARK    5  A    between atoms: C_5  and  N_6
REMARK    6  A    between atoms: C_11  and  C_12
REMARK    7  A    between atoms: C_18  and  C_19
REMARK    8  A    between atoms: C_23  and  C_24
REMARK                            x       y       z     vdW  Elec       q    Type
REMARK                         _______ _______ _______ _____ _____    ______ ____
ROOT
ATOM      1  C   UNL     1      -1.696  10.817  18.994  0.00  0.00    +0.000 A 
ATOM      2  C   UNL     1      -1.850  11.798  19.986  0.00  0.00    +0.000 A 
ATOM      3  C   UNL     1      -1.141  11.756  21.195  0.00  0.00    +0.000 A 
ATOM      4  C   UNL     1      -0.254  10.696  21.395  0.00  0.00    +0.000 A 
ATOM      5  N   UNL     1       0.528  10.391  22.481  0.00  0.00    +0.000 N 
ATOM      6  C   UNL     1       1.252   9.252  22.243  0.00  0.00    +0.000 A 
ATOM      7  C   UNL     1       0.950   8.800  20.972  0.00  0.00    +0.000 A 
ATOM      8  C   UNL     1      -0.030   9.705  20.437  0.00  0.00    +0.000 A 
ATOM      9  C   UNL     1      -0.774   9.776  19.237  0.00  0.00    +0.000 A 
ATOM     10  H   UNL     1       0.555  10.930  23.336  0.00  0.00    +0.000 HD
ENDROOT
BRANCH   1  16
ATOM     11  N   UNL     1      -5.856  11.897  16.899  0.00  0.00    +0.000 N 
ATOM     12  C   UNL     1      -4.550  11.370  16.801  0.00  0.00    +0.000 A 
ATOM     13  C   UNL     1      -4.049  10.964  15.565  0.00  0.00    +0.000 A 
ATOM     14  N   UNL     1      -2.788  10.503  15.380  0.00  0.00    +0.000 NA
ATOM     15  C   UNL     1      -2.036  10.443  16.505  0.00  0.00    +0.000 A 
ATOM     16  C   UNL     1      -2.508  10.810  17.763  0.00  0.00    +0.000 A 
ATOM     17  N   UNL     1      -3.786  11.249  17.907  0.00  0.00    +0.000 NA
ATOM     18  H   UNL     1      -6.001  12.524  16.107  0.00  0.00    +0.000 HD
BRANCH  11  19
ATOM     19  C   UNL     1      -6.061  12.685  18.128  0.00  0.00    +0.000 C 
BRANCH  19  20
ATOM     20  C   UNL     1      -7.257  12.134  18.952  0.00  0.00    +0.000 C 
BRANCH  20  22
ATOM     21  C   UNL     1      -7.589  11.687  21.323  0.00  0.00    +0.000 C 
ATOM     22  N   UNL     1      -6.853  11.303  20.116  0.00  0.00    +0.000 NA
ATOM     23  C   UNL     1      -7.107   9.890  19.814  0.00  0.00    +0.000 C 
ENDBRANCH  20  22
ENDBRANCH  19  20
ENDBRANCH  11  19
ENDBRANCH   1  16
BRANCH   7  24
ATOM     24  C   UNL     1       1.565   7.614  20.379  0.00  0.00    +0.000 A 
ATOM     25  C   UNL     1       2.200   7.675  19.131  0.00  0.00    +0.000 A 
ATOM     26  C   UNL     1       2.791   6.540  18.571  0.00  0.00    +0.000 A 
ATOM     27  C   UNL     1       2.763   5.327  19.256  0.00  0.00    +0.000 A 
ATOM     28  C   UNL     1       2.130   5.243  20.501  0.00  0.00    +0.000 A 
ATOM     29  C   UNL     1       1.528   6.384  21.051  0.00  0.00    +0.000 A 
BRANCH  28  30
ATOM     30  C   UNL     1       2.104   4.002  21.210  0.00  0.00    +0.000 C 
ATOM     31  N   UNL     1       2.074   2.992  21.781  0.00  0.00    +0.000 NA
ENDBRANCH  28  30
ENDBRANCH   7  24
TORSDOF 6
ENDMDL
MODEL 6
REMARK VINA RESULT:      -7.7      2.750      4.999
REMARK  Name = 
REMARK  8 active torsions:
REMARK  status: ('A' for Active; 'I' for Inactive)
REMARK    1  A    between atoms: C_1  and  N_2
REMARK    2  A    between atoms: N_2  and  C_3
REMARK    3  A    between atoms: N_2  and  C_4
REMARK    4  A    between atoms: C_4  and  C_5
REMARK    5  A    between atoms: C_5  and  N_6
REMARK    6  A    between atoms: C_11  and  C_12
REMARK    7  A    between atoms: C_18  and  C_19
REMARK    8  A    between atoms: C_23  and  C_24
REMARK                            x       y       z     vdW  Elec       q    Type
REMARK                         _______ _______ _______ _____ _____    ______ ____
ROOT
ATOM      1  C   UNL     1       1.004   9.437  20.032  0.00  0.00    +0.000 A 
ATOM      2  C   UNL     1       1.417  10.158  18.902  0.00  0.00    +0.000 A 
ATOM      3  C   UNL     1       2.196   9.580  17.890  0.00  0.00    +0.000 A 
ATOM      4  C   UNL     1       2.558   8.238  18.030  0.00  0.00    +0.000 A 
ATOM      5  N   UNL     1       3.334   7.442  17.224  0.00  0.00    +0.000 N 
ATOM      6  C   UNL     1       3.426   6.179  17.747  0.00  0.00    +0.000 A 
ATOM      7  C   UNL     1       2.689   6.135  18.916  0.00  0.00    +0.000 A 
ATOM      8  C   UNL     1       2.155   7.455  19.114  0.00  0.00    +0.000 A 
ATOM      9  C   UNL     1       1.381   8.079  20.119  0.00  0.00    +0.000 A 
ATOM     10  H   UNL     1       3.779   7.753  16.372  0.00  0.00    +0.000 HD
ENDROOT
BRANCH   1  16
ATOM     11  N   UNL     1      -2.464  12.444  21.367  0.00  0.00    +0.000 N 
ATOM     12  C   UNL     1      -1.445  11.535  21.723  0.00  0.00    +0.000 A 
ATOM     13  C   UNL     1      -1.243  11.197  23.061  0.00  0.00    +0.000 A 
ATOM     14  N   UNL     1      -0.325  10.291  23.476  0.00  0.00    +0.000 NA
ATOM     15  C   UNL     1       0.413   9.736  22.485  0.00  0.00    +0.000 A 
ATOM     16  C   UNL     1       0.263  10.067  21.140  0.00  0.00    +0.000 A 
ATOM     17  N   UNL     1      -0.657  10.997  20.769  0.00  0.00    +0.000 NA
ATOM     18  H   UNL     1      -3.291  12.222  21.923  0.00  0.00    +0.000 HD
BRANCH  11  19
ATOM     19  C   UNL     1      -2.848  12.341  19.947  0.00  0.00    +0.000 C 
BRANCH  19  20
ATOM     20  C   UNL     1      -4.334  12.745  19.740  0.00  0.00    +0.000 C 
BRANCH  20  22
ATOM     21  C   UNL     1      -5.646  13.868  21.458  0.00  0.00    +0.000 C 
ATOM     22  N   UNL     1      -5.178  12.576  20.953  0.00  0.00    +0.000 NA
ATOM     23  C   UNL     1      -6.330  11.727  20.626  0.00  0.00    +0.000 C 
ENDBRANCH  20  22
ENDBRANCH  19  20
ENDBRANCH  11  19
ENDBRANCH   1  16
BRANCH   7  24
ATOM     24  C   UNL     1       2.547   4.926  19.725  0.00  0.00    +0.000 A 
ATOM     25  C   UNL     1       1.368   4.665  20.436  0.00  0.00    +0.000 A 
ATOM     26  C   UNL     1       1.235   3.506  21.205  0.00  0.00    +0.000 A 
ATOM     27  C   UNL     1       2.278   2.585  21.266  0.00  0.00    +0.000 A 
ATOM     28  C   UNL     1       3.467   2.828  20.567  0.00  0.00    +0.000 A 
ATOM     29  C   UNL     1       3.598   4.001  19.809  0.00  0.00    +0.000 A 
BRANCH  28  30
ATOM     30  C   UNL     1       4.538   1.883  20.623  0.00  0.00    +0.000 C 
ATOM     31  N   UNL     1       5.414   1.123  20.668  0.00  0.00    +0.000 NA
ENDBRANCH  28  30
ENDBRANCH   7  24
TORSDOF 6
ENDMDL
MODEL 7
REMARK VINA RESULT:      -7.7      1.730      9.808
REMARK  Name = 
REMARK  8 active torsions:
REMARK  status: ('A' for Active; 'I' for Inactive)
REMARK    1  A    between atoms: C_1  and  N_2
REMARK    2  A    between atoms: N_2  and  C_3
REMARK    3  A    between atoms: N_2  and  C_4
REMARK    4  A    between atoms: C_4  and  C_5
REMARK    5  A    between atoms: C_5  and  N_6
REMARK    6  A    between atoms: C_11  and  C_12
REMARK    7  A    between atoms: C_18  and  C_19
REMARK    8  A    between atoms: C_23  and  C_24
REMARK                            x       y       z     vdW  Elec       q    Type
REMARK                         _______ _______ _______ _____ _____    ______ ____
ROOT
ATOM      1  C   UNL     1       2.332   7.403  19.139  0.00  0.00    +0.000 A 
ATOM      2  C   UNL     1       2.922   7.846  17.945  0.00  0.00    +0.000 A 
ATOM      3  C   UNL     1       2.691   9.130  17.429  0.00  0.00    +0.000 A 
ATOM      4  C   UNL     1       1.847   9.980  18.147  0.00  0.00    +0.000 A 
ATOM      5  N   UNL     1       1.423  11.254  17.859  0.00  0.00    +0.000 N 
ATOM      6  C   UNL     1       0.596  11.716  18.849  0.00  0.00    +0.000 A 
ATOM      7  C   UNL     1       0.477  10.732  19.814  0.00  0.00    +0.000 A 
ATOM      8  C   UNL     1       1.253   9.613  19.356  0.00  0.00    +0.000 A 
ATOM      9  C   UNL     1       1.500   8.307  19.836  0.00  0.00    +0.000 A 
ATOM     10  H   UNL     1       1.681  11.769  17.029  0.00  0.00    +0.000 HD
ENDROOT
BRANCH   1  16
ATOM     11  N   UNL     1       4.989   3.429  19.178  0.00  0.00    +0.000 N 
ATOM     12  C   UNL     1       3.844   4.126  19.620  0.00  0.00    +0.000 A 
ATOM     13  C   UNL     1       2.989   3.546  20.557  0.00  0.00    +0.000 A 
ATOM     14  N   UNL     1       1.904   4.173  21.073  0.00  0.00    +0.000 NA
ATOM     15  C   UNL     1       1.689   5.422  20.592  0.00  0.00    +0.000 A 
ATOM     16  C   UNL     1       2.501   6.025  19.635  0.00  0.00    +0.000 A 
ATOM     17  N   UNL     1       3.569   5.352  19.129  0.00  0.00    +0.000 NA
ATOM     18  H   UNL     1       5.418   2.984  19.990  0.00  0.00    +0.000 HD
BRANCH  11  19
ATOM     19  C   UNL     1       6.000   4.317  18.577  0.00  0.00    +0.000 C 
BRANCH  19  20
ATOM     20  C   UNL     1       6.104   4.090  17.044  0.00  0.00    +0.000 C 
BRANCH  20  22
ATOM     21  C   UNL     1       7.051   4.875  14.942  0.00  0.00    +0.000 C 
ATOM     22  N   UNL     1       7.208   4.847  16.398  0.00  0.00    +0.000 NA
ATOM     23  C   UNL     1       7.224   6.219  16.918  0.00  0.00    +0.000 C 
ENDBRANCH  20  22
ENDBRANCH  19  20
ENDBRANCH  11  19
ENDBRANCH   1  16
BRANCH   7  24
ATOM     24  C   UNL     1      -0.316  10.900  21.030  0.00  0.00    +0.000 A 
ATOM     25  C   UNL     1      -0.112  10.076  22.146  0.00  0.00    +0.000 A 
ATOM     26  C   UNL     1      -0.870  10.243  23.309  0.00  0.00    +0.000 A 
ATOM     27  C   UNL     1      -1.837  11.243  23.374  0.00  0.00    +0.000 A 
ATOM     28  C   UNL     1      -2.060  12.074  22.270  0.00  0.00    +0.000 A 
ATOM     29  C   UNL     1      -1.305  11.892  21.102  0.00  0.00    +0.000 A 
BRANCH  28  30
ATOM     30  C   UNL     1      -3.048  13.105  22.336  0.00  0.00    +0.000 C 
ATOM     31  N   UNL     1      -3.852  13.941  22.380  0.00  0.00    +0.000 NA
ENDBRANCH  28  30
ENDBRANCH   7  24
TORSDOF 6
ENDMDL
MODEL 8
REMARK VINA RESULT:      -7.5      4.129      6.808
REMARK  Name = 
REMARK  8 active torsions:
REMARK  status: ('A' for Active; 'I' for Inactive)
REMARK    1  A    between atoms: C_1  and  N_2
REMARK    2  A    between atoms: N_2  and  C_3
REMARK    3  A    between atoms: N_2  and  C_4
REMARK    4  A    between atoms: C_4  and  C_5
REMARK    5  A    between atoms: C_5  and  N_6
REMARK    6  A    between atoms: C_11  and  C_12
REMARK    7  A    between atoms: C_18  and  C_19
REMARK    8  A    between atoms: C_23  and  C_24
REMARK                            x       y       z     vdW  Elec       q    Type
REMARK                         _______ _______ _______ _____ _____    ______ ____
ROOT
ATOM      1  C   UNL     1      -1.697  10.817  18.957  0.00  0.00    +0.000 A 
ATOM      2  C   UNL     1      -1.850  11.804  19.943  0.00  0.00    +0.000 A 
ATOM      3  C   UNL     1      -1.140  11.768  21.152  0.00  0.00    +0.000 A 
ATOM      4  C   UNL     1      -0.254  10.708  21.358  0.00  0.00    +0.000 A 
ATOM      5  N   UNL     1       0.527  10.409  22.447  0.00  0.00    +0.000 N 
ATOM      6  C   UNL     1       1.249   9.267  22.215  0.00  0.00    +0.000 A 
ATOM      7  C   UNL     1       0.947   8.808  20.946  0.00  0.00    +0.000 A 
ATOM      8  C   UNL     1      -0.032   9.711  20.407  0.00  0.00    +0.000 A 
ATOM      9  C   UNL     1      -0.777   9.776  19.207  0.00  0.00    +0.000 A 
ATOM     10  H   UNL     1       0.555  10.952  23.298  0.00  0.00    +0.000 HD
ENDROOT
BRANCH   1  16
ATOM     11  N   UNL     1      -5.885  11.812  16.877  0.00  0.00    +0.000 N 
ATOM     12  C   UNL     1      -4.566  11.321  16.772  0.00  0.00    +0.000 A 
ATOM     13  C   UNL     1      -4.055  10.943  15.530  0.00  0.00    +0.000 A 
ATOM     14  N   UNL     1      -2.782  10.517  15.339  0.00  0.00    +0.000 NA
ATOM     15  C   UNL     1      -2.028  10.463  16.464  0.00  0.00    +0.000 A 
ATOM     16  C   UNL     1      -2.509  10.803  17.726  0.00  0.00    +0.000 A 
ATOM     17  N   UNL     1      -3.798  11.206  17.876  0.00  0.00    +0.000 NA
ATOM     18  H   UNL     1      -6.047  12.444  16.092  0.00  0.00    +0.000 HD
BRANCH  11  19
ATOM     19  C   UNL     1      -6.110  12.579  18.115  0.00  0.00    +0.000 C 
BRANCH  19  20
ATOM     20  C   UNL     1      -7.503  13.267  18.100  0.00  0.00    +0.000 C 
BRANCH  20  22
ATOM     21  C   UNL     1      -6.495  15.225  19.140  0.00  0.00    +0.000 C 
ATOM     22  N   UNL     1      -7.441  14.752  18.127  0.00  0.00    +0.000 NA
ATOM     23  C   UNL     1      -7.034  15.243  16.805  0.00  0.00    +0.000 C 
ENDBRANCH  20  22
ENDBRANCH  19  20
ENDBRANCH  11  19
ENDBRANCH   1  16
BRANCH   7  24
ATOM     24  C   UNL     1       1.560   7.618  20.361  0.00  0.00    +0.000 A 
ATOM     25  C   UNL     1       2.191   7.669  19.110  0.00  0.00    +0.000 A 
ATOM     26  C   UNL     1       2.780   6.529  18.557  0.00  0.00    +0.000 A 
ATOM     27  C   UNL     1       2.754   5.322  19.252  0.00  0.00    +0.000 A 
ATOM     28  C   UNL     1       2.126   5.248  20.500  0.00  0.00    +0.000 A 
ATOM     29  C   UNL     1       1.525   6.392  21.043  0.00  0.00    +0.000 A 
BRANCH  28  30
ATOM     30  C   UNL     1       2.102   4.012  21.218  0.00  0.00    +0.000 C 
ATOM     31  N   UNL     1       2.088   3.013  21.810  0.00  0.00    +0.000 NA
ENDBRANCH  28  30
ENDBRANCH   7  24
TORSDOF 6
ENDMDL
MODEL 9
REMARK VINA RESULT:      -7.5      2.251      5.434
REMARK  Name = 
REMARK  8 active torsions:
REMARK  status: ('A' for Active; 'I' for Inactive)
REMARK    1  A    between atoms: C_1  and  N_2
REMARK    2  A    between atoms: N_2  and  C_3
REMARK    3  A    between atoms: N_2  and  C_4
REMARK    4  A    between atoms: C_4  and  C_5
REMARK    5  A    between atoms: C_5  and  N_6
REMARK    6  A    between atoms: C_11  and  C_12
REMARK    7  A    between atoms: C_18  and  C_19
REMARK    8  A    between atoms: C_23  and  C_24
REMARK                            x       y       z     vdW  Elec       q    Type
REMARK                         _______ _______ _______ _____ _____    ______ ____
ROOT
ATOM      1  C   UNL     1       4.518   4.802  17.053  0.00  0.00    +0.000 A 
ATOM      2  C   UNL     1       5.507   5.623  17.615  0.00  0.00    +0.000 A 
ATOM      3  C   UNL     1       6.680   5.958  16.924  0.00  0.00    +0.000 A 
ATOM      4  C   UNL     1       6.846   5.450  15.634  0.00  0.00    +0.000 A 
ATOM      5  N   UNL     1       7.897   5.584  14.759  0.00  0.00    +0.000 N 
ATOM      6  C   UNL     1       7.633   4.917  13.592  0.00  0.00    +0.000 A 
ATOM      7  C   UNL     1       6.381   4.337  13.693  0.00  0.00    +0.000 A 
ATOM      8  C   UNL     1       5.887   4.654  15.004  0.00  0.00    +0.000 A 
ATOM      9  C   UNL     1       4.724   4.328  15.739  0.00  0.00    +0.000 A 
ATOM     10  H   UNL     1       8.744   6.097  14.958  0.00  0.00    +0.000 HD
ENDROOT
BRANCH   1  16
ATOM     11  N   UNL     1       1.494   5.688  20.649  0.00  0.00    +0.000 N 
ATOM     12  C   UNL     1       1.885   4.869  19.568  0.00  0.00    +0.000 A 
ATOM     13  C   UNL     1       1.105   3.772  19.201  0.00  0.00    +0.000 A 
ATOM     14  N   UNL     1       1.382   2.974  18.142  0.00  0.00    +0.000 NA
ATOM     15  C   UNL     1       2.504   3.307  17.459  0.00  0.00    +0.000 A 
ATOM     16  C   UNL     1       3.327   4.375  17.811  0.00  0.00    +0.000 A 
ATOM     17  N   UNL     1       3.022   5.138  18.893  0.00  0.00    +0.000 NA
ATOM     18  H   UNL     1       0.486   5.833  20.583  0.00  0.00    +0.000 HD
BRANCH  11  19
ATOM     19  C   UNL     1       2.133   7.016  20.617  0.00  0.00    +0.000 C 
BRANCH  19  20
ATOM     20  C   UNL     1       1.150   8.120  21.094  0.00  0.00    +0.000 C 
BRANCH  20  22
ATOM     21  C   UNL     1       0.703  10.436  20.486  0.00  0.00    +0.000 C 
ATOM     22  N   UNL     1       0.720   9.049  20.015  0.00  0.00    +0.000 NA
ATOM     23  C   UNL     1       1.637   8.926  18.876  0.00  0.00    +0.000 C 
ENDBRANCH  20  22
ENDBRANCH  19  20
ENDBRANCH  11  19
ENDBRANCH   1  16
BRANCH   7  24
ATOM     24  C   UNL     1       5.770   3.566  12.612  0.00  0.00    +0.000 A 
ATOM     25  C   UNL     1       6.166   2.247  12.350  0.00  0.00    +0.000 A 
ATOM     26  C   UNL     1       5.575   1.512  11.319  0.00  0.00    +0.000 A 
ATOM     27  C   UNL     1       4.573   2.084  10.539  0.00  0.00    +0.000 A 
ATOM     28  C   UNL     1       4.166   3.401  10.780  0.00  0.00    +0.000 A 
ATOM     29  C   UNL     1       4.772   4.137  11.808  0.00  0.00    +0.000 A 
BRANCH  28  30
ATOM     30  C   UNL     1       3.133   3.990   9.985  0.00  0.00    +0.000 C 
ATOM     31  N   UNL     1       2.297   4.477   9.345  0.00  0.00    +0.000 NA
ENDBRANCH  28  30
ENDBRANCH   7  24
TORSDOF 6
ENDMDL
