MODEL 1
REMARK VINA RESULT:      -7.6      0.000      0.000
REMARK  Name = 
REMARK  4 active torsions:
REMARK  status: ('A' for Active; 'I' for Inactive)
REMARK    1  A    between atoms: C_1  and  C_2
REMARK    2  A    between atoms: C_7  and  C_8
REMARK    3  A    between atoms: C_12  and  C_13
REMARK    4  A    between atoms: C_12  and  C_14
REMARK                            x       y       z     vdW  Elec       q    Type
REMARK                         _______ _______ _______ _____ _____    ______ ____
ROOT
ATOM      1  C   UNL     1       0.709   2.436  18.728  0.00  0.00    +0.000 C 
ATOM      2  C   UNL     1       2.040   3.138  18.724  0.00  0.00    +0.000 A 
ATOM      3  C   UNL     1       2.768   3.217  17.526  0.00  0.00    +0.000 A 
ATOM      4  C   UNL     1       4.027   3.829  17.484  0.00  0.00    +0.000 A 
ATOM      5  C   UNL     1       4.585   4.324  18.671  0.00  0.00    +0.000 A 
ATOM      6  C   UNL     1       3.853   4.284  19.862  0.00  0.00    +0.000 A 
ATOM      7  C   UNL     1       2.574   3.703  19.900  0.00  0.00    +0.000 A 
ATOM      8  C   UNL     1       1.819   3.671  21.201  0.00  0.00    +0.000 C 
ATOM      9  C   UNL     1       5.972   4.864  18.679  0.00  0.00    +0.000 C 
ATOM     10  O   UNL     1       6.537   5.195  19.715  0.00  0.00    +0.000 OA
ATOM     11  N   UNL     1       6.611   4.963  17.463  0.00  0.00    +0.000 N 
ATOM     12  C   UNL     1       5.865   5.017  16.209  0.00  0.00    +0.000 C 
ATOM     13  C   UNL     1       5.216   6.407  16.071  0.00  0.00    +0.000 C 
ATOM     14  C   UNL     1       6.828   4.811  15.029  0.00  0.00    +0.000 C 
ATOM     15  C   UNL     1       4.801   3.895  16.192  0.00  0.00    +0.000 C 
ATOM     16  H   UNL     1       7.518   5.410  17.525  0.00  0.00    +0.000 HD
ENDROOT
TORSDOF 0
ENDMDL
MODEL 2
REMARK VINA RESULT:      -7.3      2.404      3.024
REMARK  Name = 
REMARK  4 active torsions:
REMARK  status: ('A' for Active; 'I' for Inactive)
REMARK    1  A    between atoms: C_1  and  C_2
REMARK    2  A    between atoms: C_7  and  C_8
REMARK    3  A    between atoms: C_12  and  C_13
REMARK    4  A    between atoms: C_12  and  C_14
REMARK                            x       y       z     vdW  Elec       q    Type
REMARK                         _______ _______ _______ _____ _____    ______ ____
ROOT
ATOM      1  C   UNL     1       1.545   8.893  18.301  0.00  0.00    +0.000 C 
ATOM      2  C   UNL     1       2.496   7.733  18.426  0.00  0.00    +0.000 A 
ATOM      3  C   UNL     1       3.383   7.460  17.372  0.00  0.00    +0.000 A 
ATOM      4  C   UNL     1       4.261   6.370  17.429  0.00  0.00    +0.000 A 
ATOM      5  C   UNL     1       4.212   5.513  18.538  0.00  0.00    +0.000 A 
ATOM      6  C   UNL     1       3.360   5.798  19.609  0.00  0.00    +0.000 A 
ATOM      7  C   UNL     1       2.504   6.911  19.570  0.00  0.00    +0.000 A 
ATOM      8  C   UNL     1       1.595   7.181  20.738  0.00  0.00    +0.000 C 
ATOM      9  C   UNL     1       5.042   4.278  18.567  0.00  0.00    +0.000 C 
ATOM     10  O   UNL     1       4.940   3.444  19.461  0.00  0.00    +0.000 OA
ATOM     11  N   UNL     1       5.928   4.096  17.529  0.00  0.00    +0.000 N 
ATOM     12  C   UNL     1       6.402   5.216  16.721  0.00  0.00    +0.000 C 
ATOM     13  C   UNL     1       7.412   6.038  17.545  0.00  0.00    +0.000 C 
ATOM     14  C   UNL     1       7.115   4.683  15.470  0.00  0.00    +0.000 C 
ATOM     15  C   UNL     1       5.198   6.082  16.283  0.00  0.00    +0.000 C 
ATOM     16  H   UNL     1       6.518   3.281  17.647  0.00  0.00    +0.000 HD
ENDROOT
TORSDOF 0
ENDMDL
MODEL 3
REMARK VINA RESULT:      -7.2      2.435      5.325
REMARK  Name = 
REMARK  4 active torsions:
REMARK  status: ('A' for Active; 'I' for Inactive)
REMARK    1  A    between atoms: C_1  and  C_2
REMARK    2  A    between atoms: C_7  and  C_8
REMARK    3  A    between atoms: C_12  and  C_13
REMARK    4  A    between atoms: C_12  and  C_14
REMARK                            x       y       z     vdW  Elec       q    Type
REMARK                         _______ _______ _______ _____ _____    ______ ____
ROOT
ATOM      1  C   UNL     1       7.488   4.754  17.640  0.00  0.00    +0.000 C 
ATOM      2  C   UNL     1       5.995   4.607  17.766  0.00  0.00    +0.000 A 
ATOM      3  C   UNL     1       5.461   4.033  18.931  0.00  0.00    +0.000 A 
ATOM      4  C   UNL     1       4.081   3.843  19.076  0.00  0.00    +0.000 A 
ATOM      5  C   UNL     1       3.230   4.189  18.017  0.00  0.00    +0.000 A 
ATOM      6  C   UNL     1       3.747   4.796  16.868  0.00  0.00    +0.000 A 
ATOM      7  C   UNL     1       5.128   5.020  16.735  0.00  0.00    +0.000 A 
ATOM      8  C   UNL     1       5.650   5.669  15.482  0.00  0.00    +0.000 C 
ATOM      9  C   UNL     1       1.775   3.882  18.094  0.00  0.00    +0.000 C 
ATOM     10  O   UNL     1       1.020   4.059  17.144  0.00  0.00    +0.000 OA
ATOM     11  N   UNL     1       1.307   3.368  19.282  0.00  0.00    +0.000 N 
ATOM     12  C   UNL     1       2.031   3.557  20.536  0.00  0.00    +0.000 C 
ATOM     13  C   UNL     1       1.852   5.015  21.003  0.00  0.00    +0.000 C 
ATOM     14  C   UNL     1       1.449   2.628  21.611  0.00  0.00    +0.000 C 
ATOM     15  C   UNL     1       3.524   3.213  20.327  0.00  0.00    +0.000 C 
ATOM     16  H   UNL     1       0.300   3.255  19.299  0.00  0.00    +0.000 HD
ENDROOT
TORSDOF 0
ENDMDL
MODEL 4
REMARK VINA RESULT:      -7.1      2.064      3.037
REMARK  Name = 
REMARK  4 active torsions:
REMARK  status: ('A' for Active; 'I' for Inactive)
REMARK    1  A    between atoms: C_1  and  C_2
REMARK    2  A    between atoms: C_7  and  C_8
REMARK    3  A    between atoms: C_12  and  C_13
REMARK    4  A    between atoms: C_12  and  C_14
REMARK                            x       y       z     vdW  Elec       q    Type
REMARK                         _______ _______ _______ _____ _____    ______ ____
ROOT
ATOM      1  C   UNL     1       1.478   4.465  18.935  0.00  0.00    +0.000 C 
ATOM      2  C   UNL     1       2.837   4.519  18.293  0.00  0.00    +0.000 A 
ATOM      3  C   UNL     1       3.600   5.692  18.405  0.00  0.00    +0.000 A 
ATOM      4  C   UNL     1       4.855   5.800  17.793  0.00  0.00    +0.000 A 
ATOM      5  C   UNL     1       5.329   4.734  17.016  0.00  0.00    +0.000 A 
ATOM      6  C   UNL     1       4.595   3.547  16.929  0.00  0.00    +0.000 A 
ATOM      7  C   UNL     1       3.352   3.423  17.571  0.00  0.00    +0.000 A 
ATOM      8  C   UNL     1       2.586   2.134  17.449  0.00  0.00    +0.000 C 
ATOM      9  C   UNL     1       6.599   4.870  16.252  0.00  0.00    +0.000 C 
ATOM     10  O   UNL     1       6.985   4.008  15.470  0.00  0.00    +0.000 OA
ATOM     11  N   UNL     1       7.325   6.024  16.447  0.00  0.00    +0.000 N 
ATOM     12  C   UNL     1       7.162   6.837  17.648  0.00  0.00    +0.000 C 
ATOM     13  C   UNL     1       7.833   6.119  18.835  0.00  0.00    +0.000 C 
ATOM     14  C   UNL     1       7.852   8.195  17.448  0.00  0.00    +0.000 C 
ATOM     15  C   UNL     1       5.656   7.072  17.912  0.00  0.00    +0.000 C 
ATOM     16  H   UNL     1       8.215   6.022  15.962  0.00  0.00    +0.000 HD
ENDROOT
TORSDOF 0
ENDMDL
MODEL 5
REMARK VINA RESULT:      -7.1      2.009      4.859
REMARK  Name = 
REMARK  4 active torsions:
REMARK  status: ('A' for Active; 'I' for Inactive)
REMARK    1  A    between atoms: C_1  and  C_2
REMARK    2  A    between atoms: C_7  and  C_8
REMARK    3  A    between atoms: C_12  and  C_13
REMARK    4  A    between atoms: C_12  and  C_14
REMARK                            x       y       z     vdW  Elec       q    Type
REMARK                         _______ _______ _______ _____ _____    ______ ____
ROOT
ATOM      1  C   UNL     1       6.933   4.720  15.212  0.00  0.00    +0.000 C 
ATOM      2  C   UNL     1       5.896   4.913  16.285  0.00  0.00    +0.000 A 
ATOM      3  C   UNL     1       4.835   3.997  16.384  0.00  0.00    +0.000 A 
ATOM      4  C   UNL     1       3.829   4.158  17.343  0.00  0.00    +0.000 A 
ATOM      5  C   UNL     1       3.859   5.279  18.183  0.00  0.00    +0.000 A 
ATOM      6  C   UNL     1       4.931   6.176  18.120  0.00  0.00    +0.000 A 
ATOM      7  C   UNL     1       5.961   5.998  17.181  0.00  0.00    +0.000 A 
ATOM      8  C   UNL     1       7.093   6.988  17.136  0.00  0.00    +0.000 C 
ATOM      9  C   UNL     1       2.737   5.542  19.125  0.00  0.00    +0.000 C 
ATOM     10  O   UNL     1       2.669   6.571  19.789  0.00  0.00    +0.000 OA
ATOM     11  N   UNL     1       1.755   4.580  19.211  0.00  0.00    +0.000 N 
ATOM     12  C   UNL     1       2.002   3.197  18.812  0.00  0.00    +0.000 C 
ATOM     13  C   UNL     1       2.876   2.515  19.883  0.00  0.00    +0.000 C 
ATOM     14  C   UNL     1       0.668   2.442  18.721  0.00  0.00    +0.000 C 
ATOM     15  C   UNL     1       2.689   3.173  17.427  0.00  0.00    +0.000 C 
ATOM     16  H   UNL     1       1.064   4.778  19.924  0.00  0.00    +0.000 HD
ENDROOT
TORSDOF 0
ENDMDL
MODEL 6
REMARK VINA RESULT:      -7.0      2.316      2.948
REMARK  Name = 
REMARK  4 active torsions:
REMARK  status: ('A' for Active; 'I' for Inactive)
REMARK    1  A    between atoms: C_1  and  C_2
REMARK    2  A    between atoms: C_7  and  C_8
REMARK    3  A    between atoms: C_12  and  C_13
REMARK    4  A    between atoms: C_12  and  C_14
REMARK                            x       y       z     vdW  Elec       q    Type
REMARK                         _______ _______ _______ _____ _____    ______ ____
ROOT
ATOM      1  C   UNL     1       2.031   8.472  18.995  0.00  0.00    +0.000 C 
ATOM      2  C   UNL     1       2.699   7.168  18.651  0.00  0.00    +0.000 A 
ATOM      3  C   UNL     1       3.602   7.126  17.576  0.00  0.00    +0.000 A 
ATOM      4  C   UNL     1       4.219   5.928  17.196  0.00  0.00    +0.000 A 
ATOM      5  C   UNL     1       3.888   4.746  17.874  0.00  0.00    +0.000 A 
ATOM      6  C   UNL     1       3.020   4.783  18.970  0.00  0.00    +0.000 A 
ATOM      7  C   UNL     1       2.426   5.990  19.375  0.00  0.00    +0.000 A 
ATOM      8  C   UNL     1       1.492   5.991  20.554  0.00  0.00    +0.000 C 
ATOM      9  C   UNL     1       4.431   3.440  17.411  0.00  0.00    +0.000 C 
ATOM     10  O   UNL     1       4.073   2.374  17.900  0.00  0.00    +0.000 OA
ATOM     11  N   UNL     1       5.350   3.473  16.387  0.00  0.00    +0.000 N 
ATOM     12  C   UNL     1       6.123   4.676  16.090  0.00  0.00    +0.000 C 
ATOM     13  C   UNL     1       7.204   4.858  17.173  0.00  0.00    +0.000 C 
ATOM     14  C   UNL     1       6.820   4.518  14.730  0.00  0.00    +0.000 C 
ATOM     15  C   UNL     1       5.175   5.897  16.031  0.00  0.00    +0.000 C 
ATOM     16  H   UNL     1       5.741   2.563  16.171  0.00  0.00    +0.000 HD
ENDROOT
TORSDOF 0
ENDMDL
MODEL 7
REMARK VINA RESULT:      -7.0      2.321      5.073
REMARK  Name = 
REMARK  4 active torsions:
REMARK  status: ('A' for Active; 'I' for Inactive)
REMARK    1  A    between atoms: C_1  and  C_2
REMARK    2  A    between atoms: C_7  and  C_8
REMARK    3  A    between atoms: C_12  and  C_13
REMARK    4  A    between atoms: C_12  and  C_14
REMARK                            x       y       z     vdW  Elec       q    Type
REMARK                         _______ _______ _______ _____ _____    ______ ____
ROOT
ATOM      1  C   UNL     1       2.585   8.579  17.680  0.00  0.00    +0.000 C 
ATOM      2  C   UNL     1       2.956   7.189  18.122  0.00  0.00    +0.000 A 
ATOM      3  C   UNL     1       2.188   6.560  19.116  0.00  0.00    +0.000 A 
ATOM      4  C   UNL     1       2.518   5.282  19.584  0.00  0.00    +0.000 A 
ATOM      5  C   UNL     1       3.662   4.646  19.083  0.00  0.00    +0.000 A 
ATOM      6  C   UNL     1       4.412   5.247  18.066  0.00  0.00    +0.000 A 
ATOM      7  C   UNL     1       4.063   6.514  17.570  0.00  0.00    +0.000 A 
ATOM      8  C   UNL     1       4.896   7.133  16.481  0.00  0.00    +0.000 C 
ATOM      9  C   UNL     1       4.107   3.345  19.652  0.00  0.00    +0.000 C 
ATOM     10  O   UNL     1       5.165   2.817  19.325  0.00  0.00    +0.000 OA
ATOM     11  N   UNL     1       3.283   2.757  20.585  0.00  0.00    +0.000 N 
ATOM     12  C   UNL     1       1.864   3.089  20.670  0.00  0.00    +0.000 C 
ATOM     13  C   UNL     1       1.124   2.435  19.487  0.00  0.00    +0.000 C 
ATOM     14  C   UNL     1       1.282   2.529  21.977  0.00  0.00    +0.000 C 
ATOM     15  C   UNL     1       1.691   4.626  20.661  0.00  0.00    +0.000 C 
ATOM     16  H   UNL     1       3.599   1.839  20.875  0.00  0.00    +0.000 HD
ENDROOT
TORSDOF 0
ENDMDL
MODEL 8
REMARK VINA RESULT:      -6.9      2.187      5.144
REMARK  Name = 
REMARK  4 active torsions:
REMARK  status: ('A' for Active; 'I' for Inactive)
REMARK    1  A    between atoms: C_1  and  C_2
REMARK    2  A    between atoms: C_7  and  C_8
REMARK    3  A    between atoms: C_12  and  C_13
REMARK    4  A    between atoms: C_12  and  C_14
REMARK                            x       y       z     vdW  Elec       q    Type
REMARK                         _______ _______ _______ _____ _____    ______ ____
ROOT
ATOM      1  C   UNL     1       5.111   7.013  16.171  0.00  0.00    +0.000 C 
ATOM      2  C   UNL     1       4.660   5.717  16.788  0.00  0.00    +0.000 A 
ATOM      3  C   UNL     1       4.018   5.741  18.037  0.00  0.00    +0.000 A 
ATOM      4  C   UNL     1       3.613   4.557  18.664  0.00  0.00    +0.000 A 
ATOM      5  C   UNL     1       3.901   3.328  18.054  0.00  0.00    +0.000 A 
ATOM      6  C   UNL     1       4.505   3.294  16.793  0.00  0.00    +0.000 A 
ATOM      7  C   UNL     1       4.881   4.483  16.144  0.00  0.00    +0.000 A 
ATOM      8  C   UNL     1       5.535   4.407  14.792  0.00  0.00    +0.000 C 
ATOM      9  C   UNL     1       3.597   2.052  18.757  0.00  0.00    +0.000 C 
ATOM     10  O   UNL     1       3.941   0.963  18.311  0.00  0.00    +0.000 OA
ATOM     11  N   UNL     1       2.921   2.143  19.953  0.00  0.00    +0.000 N 
ATOM     12  C   UNL     1       2.120   3.316  20.291  0.00  0.00    +0.000 C 
ATOM     13  C   UNL     1       0.819   3.291  19.466  0.00  0.00    +0.000 C 
ATOM     14  C   UNL     1       1.750   3.274  21.782  0.00  0.00    +0.000 C 
ATOM     15  C   UNL     1       2.937   4.599  20.012  0.00  0.00    +0.000 C 
ATOM     16  H   UNL     1       2.674   1.241  20.341  0.00  0.00    +0.000 HD
ENDROOT
TORSDOF 0
ENDMDL
MODEL 9
REMARK VINA RESULT:      -6.8      2.319      5.321
REMARK  Name = 
REMARK  4 active torsions:
REMARK  status: ('A' for Active; 'I' for Inactive)
REMARK    1  A    between atoms: C_1  and  C_2
REMARK    2  A    between atoms: C_7  and  C_8
REMARK    3  A    between atoms: C_12  and  C_13
REMARK    4  A    between atoms: C_12  and  C_14
REMARK                            x       y       z     vdW  Elec       q    Type
REMARK                         _______ _______ _______ _____ _____    ______ ____
ROOT
ATOM      1  C   UNL     1       7.091   6.277  17.708  0.00  0.00    +0.000 C 
ATOM      2  C   UNL     1       5.871   5.399  17.770  0.00  0.00    +0.000 A 
ATOM      3  C   UNL     1       5.355   5.034  19.024  0.00  0.00    +0.000 A 
ATOM      4  C   UNL     1       4.243   4.189  19.130  0.00  0.00    +0.000 A 
ATOM      5  C   UNL     1       3.671   3.664  17.963  0.00  0.00    +0.000 A 
ATOM      6  C   UNL     1       4.153   4.051  16.709  0.00  0.00    +0.000 A 
ATOM      7  C   UNL     1       5.246   4.926  16.598  0.00  0.00    +0.000 A 
ATOM      8  C   UNL     1       5.743   5.315  15.232  0.00  0.00    +0.000 C 
ATOM      9  C   UNL     1       2.570   2.666  18.051  0.00  0.00    +0.000 C 
ATOM     10  O   UNL     1       2.126   2.095  17.061  0.00  0.00    +0.000 OA
ATOM     11  N   UNL     1       2.075   2.391  19.306  0.00  0.00    +0.000 N 
ATOM     12  C   UNL     1       2.237   3.327  20.414  0.00  0.00    +0.000 C 
ATOM     13  C   UNL     1       1.279   4.517  20.210  0.00  0.00    +0.000 C 
ATOM     14  C   UNL     1       1.871   2.631  21.734  0.00  0.00    +0.000 C 
ATOM     15  C   UNL     1       3.709   3.796  20.484  0.00  0.00    +0.000 C 
ATOM     16  H   UNL     1       1.277   1.766  19.292  0.00  0.00    +0.000 HD
ENDROOT
TORSDOF 0
ENDMDL
