MODEL 1
REMARK VINA RESULT:      -7.9      0.000      0.000
REMARK  Name = 
REMARK  9 active torsions:
REMARK  status: ('A' for Active; 'I' for Inactive)
REMARK    1  A    between atoms: C_1  and  C_2
REMARK    2  A    between atoms: C_2  and  O_3
REMARK    3  A    between atoms: O_3  and  C_4
REMARK    4  A    between atoms: C_7  and  N_8
REMARK    5  A    between atoms: C_9  and  C_11
REMARK    6  A    between atoms: C_11  and  O_12
REMARK    7  A    between atoms: O_12  and  C_13
REMARK    8  A    between atoms: C_23  and  O_24
REMARK    9  A    between atoms: O_24  and  C_25
REMARK                            x       y       z     vdW  Elec       q    Type
REMARK                         _______ _______ _______ _____ _____    ______ ____
ROOT
ATOM      1  N   UNL     1       6.136   7.375  17.041  0.00  0.00    +0.000 N 
ATOM      2  C   UNL     1       7.326   7.379  17.759  0.00  0.00    +0.000 C 
ATOM      3  O   UNL     1       7.833   6.403  18.306  0.00  0.00    +0.000 OA
ATOM      4  H   UNL     1       5.630   8.245  17.166  0.00  0.00    +0.000 HD
ENDROOT
BRANCH   1   8
ATOM      5  C   UNL     1       3.875   3.829  17.256  0.00  0.00    +0.000 A 
ATOM      6  C   UNL     1       5.065   3.884  16.510  0.00  0.00    +0.000 A 
ATOM      7  C   UNL     1       5.813   5.059  16.428  0.00  0.00    +0.000 A 
ATOM      8  C   UNL     1       5.335   6.219  17.022  0.00  0.00    +0.000 A 
ATOM      9  C   UNL     1       4.108   6.204  17.672  0.00  0.00    +0.000 A 
ATOM     10  C   UNL     1       3.375   5.015  17.826  0.00  0.00    +0.000 A 
BRANCH  10  11
ATOM     11  O   UNL     1       2.235   5.199  18.566  0.00  0.00    +0.000 OA
ATOM     12  C   UNL     1       2.257   6.083  19.676  0.00  0.00    +0.000 C 
ENDBRANCH  10  11
BRANCH   5  13
ATOM     13  O   UNL     1       3.190   2.654  17.433  0.00  0.00    +0.000 OA
BRANCH  13  15
ATOM     14  C   UNL     1       1.965   1.872  19.338  0.00  0.00    +0.000 C 
ATOM     15  C   UNL     1       3.339   2.020  18.709  0.00  0.00    +0.000 C 
ENDBRANCH  13  15
ENDBRANCH   5  13
ENDBRANCH   1   8
BRANCH   2  16
ATOM     16  C   UNL     1       7.985   8.759  17.751  0.00  0.00    +0.000 C 
BRANCH  16  17
ATOM     17  O   UNL     1       8.660   9.014  18.987  0.00  0.00    +0.000 OA
BRANCH  17  18
ATOM     18  C   UNL     1       9.269  10.248  19.040  0.00  0.00    +0.000 A 
ATOM     19  C   UNL     1       9.702  10.664  20.314  0.00  0.00    +0.000 A 
ATOM     20  C   UNL     1      10.539  11.775  20.458  0.00  0.00    +0.000 A 
ATOM     21  C   UNL     1      10.932  12.432  19.309  0.00  0.00    +0.000 A 
ATOM     22  C   UNL     1      10.352  12.135  18.069  0.00  0.00    +0.000 A 
ATOM     23  C   UNL     1       9.516  11.044  17.916  0.00  0.00    +0.000 A 
ATOM     24  C   UNL     1      10.933  13.020  17.011  0.00  0.00    +0.000 C 
ATOM     25  C   UNL     1      12.333  13.174  17.611  0.00  0.00    +0.000 C 
ATOM     26  C   UNL     1      12.092  13.367  19.122  0.00  0.00    +0.000 C 
ENDBRANCH  17  18
ENDBRANCH  16  17
ENDBRANCH   2  16
TORSDOF 7
ENDMDL
MODEL 2
REMARK VINA RESULT:      -7.8      1.187      2.194
REMARK  Name = 
REMARK  9 active torsions:
REMARK  status: ('A' for Active; 'I' for Inactive)
REMARK    1  A    between atoms: C_1  and  C_2
REMARK    2  A    between atoms: C_2  and  O_3
REMARK    3  A    between atoms: O_3  and  C_4
REMARK    4  A    between atoms: C_7  and  N_8
REMARK    5  A    between atoms: C_9  and  C_11
REMARK    6  A    between atoms: C_11  and  O_12
REMARK    7  A    between atoms: O_12  and  C_13
REMARK    8  A    between atoms: C_23  and  O_24
REMARK    9  A    between atoms: O_24  and  C_25
REMARK                            x       y       z     vdW  Elec       q    Type
REMARK                         _______ _______ _______ _____ _____    ______ ____
ROOT
ATOM      1  N   UNL     1       6.698   7.595  17.100  0.00  0.00    +0.000 N 
ATOM      2  C   UNL     1       7.751   7.756  17.995  0.00  0.00    +0.000 C 
ATOM      3  O   UNL     1       8.194   6.884  18.738  0.00  0.00    +0.000 OA
ATOM      4  H   UNL     1       6.147   8.443  17.027  0.00  0.00    +0.000 HD
ENDROOT
BRANCH   1   8
ATOM      5  C   UNL     1       4.296   4.144  16.873  0.00  0.00    +0.000 A 
ATOM      6  C   UNL     1       4.027   5.153  17.815  0.00  0.00    +0.000 A 
ATOM      7  C   UNL     1       4.825   6.294  17.900  0.00  0.00    +0.000 A 
ATOM      8  C   UNL     1       5.955   6.401  17.102  0.00  0.00    +0.000 A 
ATOM      9  C   UNL     1       6.292   5.363  16.243  0.00  0.00    +0.000 A 
ATOM     10  C   UNL     1       5.463   4.239  16.091  0.00  0.00    +0.000 A 
BRANCH  10  11
ATOM     11  O   UNL     1       5.931   3.371  15.138  0.00  0.00    +0.000 OA
ATOM     12  C   UNL     1       6.321   3.871  13.869  0.00  0.00    +0.000 C 
ENDBRANCH  10  11
BRANCH   5  13
ATOM     13  O   UNL     1       3.457   3.072  16.708  0.00  0.00    +0.000 OA
BRANCH  13  15
ATOM     14  C   UNL     1       1.798   2.290  18.250  0.00  0.00    +0.000 C 
ATOM     15  C   UNL     1       3.263   2.237  17.855  0.00  0.00    +0.000 C 
ENDBRANCH  13  15
ENDBRANCH   5  13
ENDBRANCH   1   8
BRANCH   2  16
ATOM     16  C   UNL     1       8.350   9.160  17.914  0.00  0.00    +0.000 C 
BRANCH  16  17
ATOM     17  O   UNL     1       9.220   9.412  19.022  0.00  0.00    +0.000 OA
BRANCH  17  18
ATOM     18  C   UNL     1       9.593  10.731  19.144  0.00  0.00    +0.000 A 
ATOM     19  C   UNL     1       9.713  11.217  20.460  0.00  0.00    +0.000 A 
ATOM     20  C   UNL     1      10.312  12.454  20.716  0.00  0.00    +0.000 A 
ATOM     21  C   UNL     1      10.788  13.169  19.634  0.00  0.00    +0.000 A 
ATOM     22  C   UNL     1      10.500  12.775  18.321  0.00  0.00    +0.000 A 
ATOM     23  C   UNL     1       9.901  11.557  18.057  0.00  0.00    +0.000 A 
ATOM     24  C   UNL     1      11.105  13.747  17.356  0.00  0.00    +0.000 C 
ATOM     25  C   UNL     1      12.328  14.138  18.190  0.00  0.00    +0.000 C 
ATOM     26  C   UNL     1      11.789  14.289  19.627  0.00  0.00    +0.000 C 
ENDBRANCH  17  18
ENDBRANCH  16  17
ENDBRANCH   2  16
TORSDOF 7
ENDMDL
MODEL 3
REMARK VINA RESULT:      -7.4      4.446      8.150
REMARK  Name = 
REMARK  9 active torsions:
REMARK  status: ('A' for Active; 'I' for Inactive)
REMARK    1  A    between atoms: C_1  and  C_2
REMARK    2  A    between atoms: C_2  and  O_3
REMARK    3  A    between atoms: O_3  and  C_4
REMARK    4  A    between atoms: C_7  and  N_8
REMARK    5  A    between atoms: C_9  and  C_11
REMARK    6  A    between atoms: C_11  and  O_12
REMARK    7  A    between atoms: O_12  and  C_13
REMARK    8  A    between atoms: C_23  and  O_24
REMARK    9  A    between atoms: O_24  and  C_25
REMARK                            x       y       z     vdW  Elec       q    Type
REMARK                         _______ _______ _______ _____ _____    ______ ____
ROOT
ATOM      1  N   UNL     1       2.777   5.573  19.946  0.00  0.00    +0.000 N 
ATOM      2  C   UNL     1       2.311   6.871  19.767  0.00  0.00    +0.000 C 
ATOM      3  O   UNL     1       2.549   7.587  18.797  0.00  0.00    +0.000 OA
ATOM      4  H   UNL     1       2.969   5.385  20.923  0.00  0.00    +0.000 HD
ENDROOT
BRANCH   1   8
ATOM      5  C   UNL     1       5.591   4.249  17.107  0.00  0.00    +0.000 A 
ATOM      6  C   UNL     1       4.212   4.078  16.893  0.00  0.00    +0.000 A 
ATOM      7  C   UNL     1       3.276   4.507  17.834  0.00  0.00    +0.000 A 
ATOM      8  C   UNL     1       3.711   5.036  19.042  0.00  0.00    +0.000 A 
ATOM      9  C   UNL     1       5.072   5.112  19.310  0.00  0.00    +0.000 A 
ATOM     10  C   UNL     1       6.029   4.752  18.347  0.00  0.00    +0.000 A 
BRANCH  10  11
ATOM     11  O   UNL     1       7.311   4.978  18.778  0.00  0.00    +0.000 OA
ATOM     12  C   UNL     1       7.856   6.286  18.697  0.00  0.00    +0.000 C 
ENDBRANCH  10  11
BRANCH   5  13
ATOM     13  O   UNL     1       6.514   3.931  16.143  0.00  0.00    +0.000 OA
BRANCH  13  15
ATOM     14  C   UNL     1       6.240   4.047  13.765  0.00  0.00    +0.000 C 
ATOM     15  C   UNL     1       6.591   4.821  15.023  0.00  0.00    +0.000 C 
ENDBRANCH  13  15
ENDBRANCH   5  13
ENDBRANCH   1   8
BRANCH   2  16
ATOM     16  C   UNL     1       1.400   7.306  20.915  0.00  0.00    +0.000 C 
BRANCH  16  17
ATOM     17  O   UNL     1       1.734   8.623  21.366  0.00  0.00    +0.000 OA
BRANCH  17  18
ATOM     18  C   UNL     1       0.641   9.441  21.544  0.00  0.00    +0.000 A 
ATOM     19  C   UNL     1       0.073   9.436  22.832  0.00  0.00    +0.000 A 
ATOM     20  C   UNL     1      -0.878  10.393  23.199  0.00  0.00    +0.000 A 
ATOM     21  C   UNL     1      -1.224  11.343  22.259  0.00  0.00    +0.000 A 
ATOM     22  C   UNL     1      -0.803  11.234  20.928  0.00  0.00    +0.000 A 
ATOM     23  C   UNL     1       0.131  10.286  20.552  0.00  0.00    +0.000 A 
ATOM     24  C   UNL     1      -1.353  12.372  20.126  0.00  0.00    +0.000 C 
ATOM     25  C   UNL     1      -1.367  13.425  21.237  0.00  0.00    +0.000 C 
ATOM     26  C   UNL     1      -1.885  12.673  22.481  0.00  0.00    +0.000 C 
ENDBRANCH  17  18
ENDBRANCH  16  17
ENDBRANCH   2  16
TORSDOF 7
ENDMDL
MODEL 4
REMARK VINA RESULT:      -7.4      4.540      7.558
REMARK  Name = 
REMARK  9 active torsions:
REMARK  status: ('A' for Active; 'I' for Inactive)
REMARK    1  A    between atoms: C_1  and  C_2
REMARK    2  A    between atoms: C_2  and  O_3
REMARK    3  A    between atoms: O_3  and  C_4
REMARK    4  A    between atoms: C_7  and  N_8
REMARK    5  A    between atoms: C_9  and  C_11
REMARK    6  A    between atoms: C_11  and  O_12
REMARK    7  A    between atoms: O_12  and  C_13
REMARK    8  A    between atoms: C_23  and  O_24
REMARK    9  A    between atoms: O_24  and  C_25
REMARK                            x       y       z     vdW  Elec       q    Type
REMARK                         _______ _______ _______ _____ _____    ______ ____
ROOT
ATOM      1  N   UNL     1       2.869   6.241  20.036  0.00  0.00    +0.000 N 
ATOM      2  C   UNL     1       2.256   5.032  19.722  0.00  0.00    +0.000 C 
ATOM      3  O   UNL     1       1.252   4.901  19.026  0.00  0.00    +0.000 OA
ATOM      4  H   UNL     1       3.254   6.223  20.973  0.00  0.00    +0.000 HD
ENDROOT
BRANCH   1   8
ATOM      5  C   UNL     1       0.784   9.696  18.836  0.00  0.00    +0.000 A 
ATOM      6  C   UNL     1       1.720   9.084  17.984  0.00  0.00    +0.000 A 
ATOM      7  C   UNL     1       2.419   7.944  18.380  0.00  0.00    +0.000 A 
ATOM      8  C   UNL     1       2.256   7.451  19.668  0.00  0.00    +0.000 A 
ATOM      9  C   UNL     1       1.414   8.111  20.555  0.00  0.00    +0.000 A 
ATOM     10  C   UNL     1       0.647   9.216  20.152  0.00  0.00    +0.000 A 
BRANCH  10  11
ATOM     11  O   UNL     1      -0.177   9.670  21.150  0.00  0.00    +0.000 OA
ATOM     12  C   UNL     1       0.074  10.934  21.744  0.00  0.00    +0.000 C 
ENDBRANCH  10  11
BRANCH   5  13
ATOM     13  O   UNL     1       0.013  10.751  18.418  0.00  0.00    +0.000 OA
BRANCH  13  15
ATOM     14  C   UNL     1      -2.278  11.447  18.527  0.00  0.00    +0.000 C 
ATOM     15  C   UNL     1      -1.306  10.428  17.960  0.00  0.00    +0.000 C 
ENDBRANCH  13  15
ENDBRANCH   5  13
ENDBRANCH   1   8
BRANCH   2  16
ATOM     16  C   UNL     1       3.018   3.844  20.310  0.00  0.00    +0.000 C 
BRANCH  16  17
ATOM     17  O   UNL     1       3.523   2.994  19.275  0.00  0.00    +0.000 OA
BRANCH  17  18
ATOM     18  C   UNL     1       4.549   3.556  18.549  0.00  0.00    +0.000 A 
ATOM     19  C   UNL     1       4.386   3.551  17.150  0.00  0.00    +0.000 A 
ATOM     20  C   UNL     1       5.235   4.299  16.328  0.00  0.00    +0.000 A 
ATOM     21  C   UNL     1       6.222   5.046  16.939  0.00  0.00    +0.000 A 
ATOM     22  C   UNL     1       6.500   4.902  18.304  0.00  0.00    +0.000 A 
ATOM     23  C   UNL     1       5.673   4.158  19.126  0.00  0.00    +0.000 A 
ATOM     24  C   UNL     1       7.636   5.799  18.689  0.00  0.00    +0.000 C 
ATOM     25  C   UNL     1       7.359   6.927  17.692  0.00  0.00    +0.000 C 
ATOM     26  C   UNL     1       6.993   6.207  16.378  0.00  0.00    +0.000 C 
ENDBRANCH  17  18
ENDBRANCH  16  17
ENDBRANCH   2  16
TORSDOF 7
ENDMDL
MODEL 5
REMARK VINA RESULT:      -7.4      1.088      1.915
REMARK  Name = 
REMARK  9 active torsions:
REMARK  status: ('A' for Active; 'I' for Inactive)
REMARK    1  A    between atoms: C_1  and  C_2
REMARK    2  A    between atoms: C_2  and  O_3
REMARK    3  A    between atoms: O_3  and  C_4
REMARK    4  A    between atoms: C_7  and  N_8
REMARK    5  A    between atoms: C_9  and  C_11
REMARK    6  A    between atoms: C_11  and  O_12
REMARK    7  A    between atoms: O_12  and  C_13
REMARK    8  A    between atoms: C_23  and  O_24
REMARK    9  A    between atoms: O_24  and  C_25
REMARK                            x       y       z     vdW  Elec       q    Type
REMARK                         _______ _______ _______ _____ _____    ______ ____
ROOT
ATOM      1  N   UNL     1       6.491   7.557  16.958  0.00  0.00    +0.000 N 
ATOM      2  C   UNL     1       7.539   7.484  17.869  0.00  0.00    +0.000 C 
ATOM      3  O   UNL     1       7.803   6.516  18.578  0.00  0.00    +0.000 OA
ATOM      4  H   UNL     1       6.105   8.493  16.917  0.00  0.00    +0.000 HD
ENDROOT
BRANCH   1   8
ATOM      5  C   UNL     1       3.779   4.337  17.049  0.00  0.00    +0.000 A 
ATOM      6  C   UNL     1       4.960   4.267  16.289  0.00  0.00    +0.000 A 
ATOM      7  C   UNL     1       5.858   5.334  16.248  0.00  0.00    +0.000 A 
ATOM      8  C   UNL     1       5.543   6.520  16.899  0.00  0.00    +0.000 A 
ATOM      9  C   UNL     1       4.330   6.638  17.565  0.00  0.00    +0.000 A 
ATOM     10  C   UNL     1       3.447   5.551  17.677  0.00  0.00    +0.000 A 
BRANCH  10  11
ATOM     11  O   UNL     1       2.348   5.851  18.441  0.00  0.00    +0.000 OA
ATOM     12  C   UNL     1       2.472   6.771  19.514  0.00  0.00    +0.000 C 
ENDBRANCH  10  11
BRANCH   5  13
ATOM     13  O   UNL     1       2.945   3.256  17.183  0.00  0.00    +0.000 OA
BRANCH  13  15
ATOM     14  C   UNL     1       3.657   1.356  18.459  0.00  0.00    +0.000 C 
ATOM     15  C   UNL     1       2.883   2.662  18.485  0.00  0.00    +0.000 C 
ENDBRANCH  13  15
ENDBRANCH   5  13
ENDBRANCH   1   8
BRANCH   2  16
ATOM     16  C   UNL     1       8.386   8.758  17.857  0.00  0.00    +0.000 C 
BRANCH  16  17
ATOM     17  O   UNL     1       8.871   9.065  19.168  0.00  0.00    +0.000 OA
BRANCH  17  18
ATOM     18  C   UNL     1       9.313  10.362  19.304  0.00  0.00    +0.000 A 
ATOM     19  C   UNL     1       9.519  11.070  18.104  0.00  0.00    +0.000 A 
ATOM     20  C   UNL     1       9.733  12.451  18.116  0.00  0.00    +0.000 A 
ATOM     21  C   UNL     1       9.719  13.090  19.339  0.00  0.00    +0.000 A 
ATOM     22  C   UNL     1       9.703  12.363  20.537  0.00  0.00    +0.000 A 
ATOM     23  C   UNL     1       9.501  10.995  20.537  0.00  0.00    +0.000 A 
ATOM     24  C   UNL     1       9.731  13.303  21.702  0.00  0.00    +0.000 C 
ATOM     25  C   UNL     1       8.965  14.461  21.057  0.00  0.00    +0.000 C 
ATOM     26  C   UNL     1       9.528  14.552  19.624  0.00  0.00    +0.000 C 
ENDBRANCH  17  18
ENDBRANCH  16  17
ENDBRANCH   2  16
TORSDOF 7
ENDMDL
MODEL 6
REMARK VINA RESULT:      -7.4      5.697      7.890
REMARK  Name = 
REMARK  9 active torsions:
REMARK  status: ('A' for Active; 'I' for Inactive)
REMARK    1  A    between atoms: C_1  and  C_2
REMARK    2  A    between atoms: C_2  and  O_3
REMARK    3  A    between atoms: O_3  and  C_4
REMARK    4  A    between atoms: C_7  and  N_8
REMARK    5  A    between atoms: C_9  and  C_11
REMARK    6  A    between atoms: C_11  and  O_12
REMARK    7  A    between atoms: O_12  and  C_13
REMARK    8  A    between atoms: C_23  and  O_24
REMARK    9  A    between atoms: O_24  and  C_25
REMARK                            x       y       z     vdW  Elec       q    Type
REMARK                         _______ _______ _______ _____ _____    ______ ____
ROOT
ATOM      1  N   UNL     1       2.856   6.215  20.232  0.00  0.00    +0.000 N 
ATOM      2  C   UNL     1       2.292   4.989  19.898  0.00  0.00    +0.000 C 
ATOM      3  O   UNL     1       1.194   4.829  19.370  0.00  0.00    +0.000 OA
ATOM      4  H   UNL     1       3.401   6.147  21.085  0.00  0.00    +0.000 HD
ENDROOT
BRANCH   1   8
ATOM      5  C   UNL     1       0.353   9.562  19.719  0.00  0.00    +0.000 A 
ATOM      6  C   UNL     1       1.338   9.243  18.768  0.00  0.00    +0.000 A 
ATOM      7  C   UNL     1       2.176   8.140  18.938  0.00  0.00    +0.000 A 
ATOM      8  C   UNL     1       2.096   7.392  20.104  0.00  0.00    +0.000 A 
ATOM      9  C   UNL     1       1.200   7.761  21.099  0.00  0.00    +0.000 A 
ATOM     10  C   UNL     1       0.300   8.824  20.916  0.00  0.00    +0.000 A 
BRANCH  10  11
ATOM     11  O   UNL     1      -0.552   8.973  21.980  0.00  0.00    +0.000 OA
ATOM     12  C   UNL     1      -0.231   9.896  23.009  0.00  0.00    +0.000 C 
ENDBRANCH  10  11
BRANCH   5  13
ATOM     13  O   UNL     1      -0.546  10.577  19.510  0.00  0.00    +0.000 OA
BRANCH  13  15
ATOM     14  C   UNL     1      -2.354  10.023  18.038  0.00  0.00    +0.000 C 
ATOM     15  C   UNL     1      -1.020  10.737  18.168  0.00  0.00    +0.000 C 
ENDBRANCH  13  15
ENDBRANCH   5  13
ENDBRANCH   1   8
BRANCH   2  16
ATOM     16  C   UNL     1       3.235   3.828  20.219  0.00  0.00    +0.000 C 
BRANCH  16  17
ATOM     17  O   UNL     1       3.568   3.094  19.036  0.00  0.00    +0.000 OA
BRANCH  17  18
ATOM     18  C   UNL     1       4.388   3.783  18.170  0.00  0.00    +0.000 A 
ATOM     19  C   UNL     1       5.598   4.255  18.715  0.00  0.00    +0.000 A 
ATOM     20  C   UNL     1       6.609   4.752  17.887  0.00  0.00    +0.000 A 
ATOM     21  C   UNL     1       6.380   4.748  16.526  0.00  0.00    +0.000 A 
ATOM     22  C   UNL     1       5.114   4.458  16.004  0.00  0.00    +0.000 A 
ATOM     23  C   UNL     1       4.103   3.974  16.814  0.00  0.00    +0.000 A 
ATOM     24  C   UNL     1       5.143   4.565  14.510  0.00  0.00    +0.000 C 
ATOM     25  C   UNL     1       6.595   4.129  14.297  0.00  0.00    +0.000 C 
ATOM     26  C   UNL     1       7.385   4.841  15.413  0.00  0.00    +0.000 C 
ENDBRANCH  17  18
ENDBRANCH  16  17
ENDBRANCH   2  16
TORSDOF 7
ENDMDL
MODEL 7
REMARK VINA RESULT:      -7.3      2.205      9.927
REMARK  Name = 
REMARK  9 active torsions:
REMARK  status: ('A' for Active; 'I' for Inactive)
REMARK    1  A    between atoms: C_1  and  C_2
REMARK    2  A    between atoms: C_2  and  O_3
REMARK    3  A    between atoms: O_3  and  C_4
REMARK    4  A    between atoms: C_7  and  N_8
REMARK    5  A    between atoms: C_9  and  C_11
REMARK    6  A    between atoms: C_11  and  O_12
REMARK    7  A    between atoms: O_12  and  C_13
REMARK    8  A    between atoms: C_23  and  O_24
REMARK    9  A    between atoms: O_24  and  C_25
REMARK                            x       y       z     vdW  Elec       q    Type
REMARK                         _______ _______ _______ _____ _____    ______ ____
ROOT
ATOM      1  N   UNL     1       9.109   9.051  19.230  0.00  0.00    +0.000 N 
ATOM      2  C   UNL     1       8.305   8.771  18.130  0.00  0.00    +0.000 C 
ATOM      3  O   UNL     1       8.032   9.559  17.228  0.00  0.00    +0.000 OA
ATOM      4  H   UNL     1       8.778   8.567  20.057  0.00  0.00    +0.000 HD
ENDROOT
BRANCH   1   8
ATOM      5  C   UNL     1      10.725  12.860  20.010  0.00  0.00    +0.000 A 
ATOM      6  C   UNL     1       9.847  12.247  20.920  0.00  0.00    +0.000 A 
ATOM      7  C   UNL     1       9.302  10.989  20.663  0.00  0.00    +0.000 A 
ATOM      8  C   UNL     1       9.560  10.364  19.450  0.00  0.00    +0.000 A 
ATOM      9  C   UNL     1      10.340  11.008  18.497  0.00  0.00    +0.000 A 
ATOM     10  C   UNL     1      10.956  12.242  18.767  0.00  0.00    +0.000 A 
BRANCH  10  11
ATOM     11  O   UNL     1      11.746  12.666  17.729  0.00  0.00    +0.000 OA
ATOM     12  C   UNL     1      11.217  13.571  16.772  0.00  0.00    +0.000 C 
ENDBRANCH  10  11
BRANCH   5  13
ATOM     13  O   UNL     1      11.351  14.045  20.301  0.00  0.00    +0.000 OA
BRANCH  13  15
ATOM     14  C   UNL     1      10.078  15.916  19.511  0.00  0.00    +0.000 C 
ATOM     15  C   UNL     1      10.505  15.119  20.730  0.00  0.00    +0.000 C 
ENDBRANCH  13  15
ENDBRANCH   5  13
ENDBRANCH   1   8
BRANCH   2  16
ATOM     16  C   UNL     1       7.826   7.319  18.137  0.00  0.00    +0.000 C 
BRANCH  16  17
ATOM     17  O   UNL     1       7.554   6.861  16.808  0.00  0.00    +0.000 OA
BRANCH  17  18
ATOM     18  C   UNL     1       6.380   6.151  16.697  0.00  0.00    +0.000 A 
ATOM     19  C   UNL     1       6.474   4.907  16.044  0.00  0.00    +0.000 A 
ATOM     20  C   UNL     1       5.414   3.996  16.082  0.00  0.00    +0.000 A 
ATOM     21  C   UNL     1       4.286   4.358  16.791  0.00  0.00    +0.000 A 
ATOM     22  C   UNL     1       4.121   5.662  17.276  0.00  0.00    +0.000 A 
ATOM     23  C   UNL     1       5.160   6.573  17.237  0.00  0.00    +0.000 A 
ATOM     24  C   UNL     1       2.798   5.783  17.967  0.00  0.00    +0.000 C 
ATOM     25  C   UNL     1       2.702   4.348  18.491  0.00  0.00    +0.000 C 
ATOM     26  C   UNL     1       3.196   3.471  17.321  0.00  0.00    +0.000 C 
ENDBRANCH  17  18
ENDBRANCH  16  17
ENDBRANCH   2  16
TORSDOF 7
ENDMDL
MODEL 8
REMARK VINA RESULT:      -7.3      3.991      8.028
REMARK  Name = 
REMARK  9 active torsions:
REMARK  status: ('A' for Active; 'I' for Inactive)
REMARK    1  A    between atoms: C_1  and  C_2
REMARK    2  A    between atoms: C_2  and  O_3
REMARK    3  A    between atoms: O_3  and  C_4
REMARK    4  A    between atoms: C_7  and  N_8
REMARK    5  A    between atoms: C_9  and  C_11
REMARK    6  A    between atoms: C_11  and  O_12
REMARK    7  A    between atoms: O_12  and  C_13
REMARK    8  A    between atoms: C_23  and  O_24
REMARK    9  A    between atoms: O_24  and  C_25
REMARK                            x       y       z     vdW  Elec       q    Type
REMARK                         _______ _______ _______ _____ _____    ______ ____
ROOT
ATOM      1  N   UNL     1       3.049   6.500  18.401  0.00  0.00    +0.000 N 
ATOM      2  C   UNL     1       2.688   6.083  19.678  0.00  0.00    +0.000 C 
ATOM      3  O   UNL     1       3.253   5.209  20.329  0.00  0.00    +0.000 OA
ATOM      4  H   UNL     1       2.234   6.750  17.853  0.00  0.00    +0.000 HD
ENDROOT
BRANCH   1   8
ATOM      5  C   UNL     1       5.943   4.569  16.029  0.00  0.00    +0.000 A 
ATOM      6  C   UNL     1       4.711   3.954  16.310  0.00  0.00    +0.000 A 
ATOM      7  C   UNL     1       3.752   4.585  17.102  0.00  0.00    +0.000 A 
ATOM      8  C   UNL     1       4.048   5.805  17.696  0.00  0.00    +0.000 A 
ATOM      9  C   UNL     1       5.303   6.373  17.512  0.00  0.00    +0.000 A 
ATOM     10  C   UNL     1       6.254   5.788  16.661  0.00  0.00    +0.000 A 
BRANCH  10  11
ATOM     11  O   UNL     1       7.392   6.546  16.553  0.00  0.00    +0.000 OA
ATOM     12  C   UNL     1       7.595   7.633  17.443  0.00  0.00    +0.000 C 
ENDBRANCH  10  11
BRANCH   5  13
ATOM     13  O   UNL     1       6.847   4.007  15.164  0.00  0.00    +0.000 OA
BRANCH  13  15
ATOM     14  C   UNL     1       6.140   3.650  12.902  0.00  0.00    +0.000 C 
ATOM     15  C   UNL     1       6.896   4.567  13.847  0.00  0.00    +0.000 C 
ENDBRANCH  13  15
ENDBRANCH   5  13
ENDBRANCH   1   8
BRANCH   2  16
ATOM     16  C   UNL     1       1.509   6.891  20.222  0.00  0.00    +0.000 C 
BRANCH  16  17
ATOM     17  O   UNL     1       1.915   8.215  20.582  0.00  0.00    +0.000 OA
BRANCH  17  18
ATOM     18  C   UNL     1       0.897   8.986  21.096  0.00  0.00    +0.000 A 
ATOM     19  C   UNL     1       0.674   8.865  22.481  0.00  0.00    +0.000 A 
ATOM     20  C   UNL     1      -0.160   9.763  23.154  0.00  0.00    +0.000 A 
ATOM     21  C   UNL     1      -0.740  10.773  22.413  0.00  0.00    +0.000 A 
ATOM     22  C   UNL     1      -0.669  10.779  21.014  0.00  0.00    +0.000 A 
ATOM     23  C   UNL     1       0.146   9.890  20.338  0.00  0.00    +0.000 A 
ATOM     24  C   UNL     1      -1.414  11.961  20.473  0.00  0.00    +0.000 C 
ATOM     25  C   UNL     1      -1.154  12.923  21.635  0.00  0.00    +0.000 C 
ATOM     26  C   UNL     1      -1.334  12.063  22.903  0.00  0.00    +0.000 C 
ENDBRANCH  17  18
ENDBRANCH  16  17
ENDBRANCH   2  16
TORSDOF 7
ENDMDL
MODEL 9
REMARK VINA RESULT:      -7.2      0.934      1.073
REMARK  Name = 
REMARK  9 active torsions:
REMARK  status: ('A' for Active; 'I' for Inactive)
REMARK    1  A    between atoms: C_1  and  C_2
REMARK    2  A    between atoms: C_2  and  O_3
REMARK    3  A    between atoms: O_3  and  C_4
REMARK    4  A    between atoms: C_7  and  N_8
REMARK    5  A    between atoms: C_9  and  C_11
REMARK    6  A    between atoms: C_11  and  O_12
REMARK    7  A    between atoms: O_12  and  C_13
REMARK    8  A    between atoms: C_23  and  O_24
REMARK    9  A    between atoms: O_24  and  C_25
REMARK                            x       y       z     vdW  Elec       q    Type
REMARK                         _______ _______ _______ _____ _____    ______ ____
ROOT
ATOM      1  N   UNL     1       6.523   6.760  17.391  0.00  0.00    +0.000 N 
ATOM      2  C   UNL     1       7.424   6.520  18.423  0.00  0.00    +0.000 C 
ATOM      3  O   UNL     1       7.435   5.525  19.143  0.00  0.00    +0.000 OA
ATOM      4  H   UNL     1       6.305   7.747  17.318  0.00  0.00    +0.000 HD
ENDROOT
BRANCH   1   8
ATOM      5  C   UNL     1       3.357   4.002  17.072  0.00  0.00    +0.000 A 
ATOM      6  C   UNL     1       4.529   3.850  16.309  0.00  0.00    +0.000 A 
ATOM      7  C   UNL     1       5.577   4.765  16.405  0.00  0.00    +0.000 A 
ATOM      8  C   UNL     1       5.432   5.894  17.201  0.00  0.00    +0.000 A 
ATOM      9  C   UNL     1       4.237   6.111  17.875  0.00  0.00    +0.000 A 
ATOM     10  C   UNL     1       3.199   5.165  17.848  0.00  0.00    +0.000 A 
BRANCH  10  11
ATOM     11  O   UNL     1       2.142   5.530  18.643  0.00  0.00    +0.000 OA
ATOM     12  C   UNL     1       2.314   5.591  20.050  0.00  0.00    +0.000 C 
ENDBRANCH  10  11
BRANCH   5  13
ATOM     13  O   UNL     1       2.367   3.053  17.067  0.00  0.00    +0.000 OA
BRANCH  13  15
ATOM     14  C   UNL     1       3.583   1.498  18.427  0.00  0.00    +0.000 C 
ATOM     15  C   UNL     1       2.270   2.235  18.239  0.00  0.00    +0.000 C 
ENDBRANCH  13  15
ENDBRANCH   5  13
ENDBRANCH   1   8
BRANCH   2  16
ATOM     16  C   UNL     1       8.465   7.635  18.534  0.00  0.00    +0.000 C 
BRANCH  16  17
ATOM     17  O   UNL     1       8.052   8.797  17.808  0.00  0.00    +0.000 OA
BRANCH  17  18
ATOM     18  C   UNL     1       8.555   9.974  18.316  0.00  0.00    +0.000 A 
ATOM     19  C   UNL     1       9.277   9.864  19.520  0.00  0.00    +0.000 A 
ATOM     20  C   UNL     1      10.034  10.937  20.001  0.00  0.00    +0.000 A 
ATOM     21  C   UNL     1      10.054  12.094  19.248  0.00  0.00    +0.000 A 
ATOM     22  C   UNL     1       9.191  12.265  18.158  0.00  0.00    +0.000 A 
ATOM     23  C   UNL     1       8.432  11.213  17.678  0.00  0.00    +0.000 A 
ATOM     24  C   UNL     1       9.400  13.618  17.552  0.00  0.00    +0.000 C 
ATOM     25  C   UNL     1      10.893  13.759  17.861  0.00  0.00    +0.000 C 
ATOM     26  C   UNL     1      11.047  13.220  19.298  0.00  0.00    +0.000 C 
ENDBRANCH  17  18
ENDBRANCH  16  17
ENDBRANCH   2  16
TORSDOF 7
ENDMDL
