MODEL 1
REMARK VINA RESULT:      -7.3      0.000      0.000
REMARK  Name = 
REMARK  4 active torsions:
REMARK  status: ('A' for Active; 'I' for Inactive)
REMARK    1  A    between atoms: C_1  and  S_2
REMARK    2  A    between atoms: S_2  and  C_5
REMARK    3  A    between atoms: C_8  and  N_9
REMARK    4  A    between atoms: C_12  and  C_13
REMARK                            x       y       z     vdW  Elec       q    Type
REMARK                         _______ _______ _______ _____ _____    ______ ____
ROOT
ATOM      1  N   UNL     1       1.908   6.464  21.172  0.00  0.00    +0.000 N 
ATOM      2  C   UNL     1       2.545   5.486  20.484  0.00  0.00    +0.000 A 
ATOM      3  N   UNL     1       3.298   5.655  19.418  0.00  0.00    +0.000 NA
ATOM      4  C   UNL     1       3.911   4.475  19.031  0.00  0.00    +0.000 A 
ATOM      5  C   UNL     1       3.518   3.377  19.772  0.00  0.00    +0.000 A 
ATOM      6  S   UNL     1       2.431   3.851  21.013  0.00  0.00    +0.000 S 
ATOM      7  H   UNL     1       1.417   6.199  22.016  0.00  0.00    +0.000 HD
ENDROOT
BRANCH   4   8
ATOM      8  C   UNL     1       4.913   4.457  17.955  0.00  0.00    +0.000 A 
ATOM      9  C   UNL     1       4.585   3.950  16.675  0.00  0.00    +0.000 A 
ATOM     10 CL   UNL     1       3.001   3.384  16.239  0.00  0.00    +0.000 Cl
ATOM     11  C   UNL     1       5.530   3.916  15.637  0.00  0.00    +0.000 A 
ATOM     12  C   UNL     1       6.813   4.410  15.832  0.00  0.00    +0.000 A 
ATOM     13  C   UNL     1       7.159   4.922  17.077  0.00  0.00    +0.000 A 
ATOM     14  C   UNL     1       6.232   4.931  18.134  0.00  0.00    +0.000 A 
ATOM     15 CL   UNL     1       6.853   5.514  19.646  0.00  0.00    +0.000 Cl
ENDBRANCH   4   8
BRANCH   1  19
ATOM     16  C   UNL     1       0.524  10.108  19.576  0.00  0.00    +0.000 A 
ATOM     17  C   UNL     1       1.402   9.326  18.831  0.00  0.00    +0.000 A 
ATOM     18  C   UNL     1       1.871   8.128  19.361  0.00  0.00    +0.000 A 
ATOM     19  C   UNL     1       1.463   7.684  20.627  0.00  0.00    +0.000 A 
ATOM     20  C   UNL     1       0.600   8.498  21.376  0.00  0.00    +0.000 A 
ATOM     21  C   UNL     1       0.137   9.714  20.863  0.00  0.00    +0.000 A 
BRANCH  16  23
ATOM     22  C   UNL     1      -0.823  12.418  20.297  0.00  0.00    +0.000 C 
ATOM     23  S   UNL     1      -0.091  11.622  18.891  0.00  0.00    +0.000 S 
ATOM     24  O   UNL     1      -1.152  11.290  17.960  0.00  0.00    +0.000 OA
ATOM     25  O   UNL     1       1.050  12.412  18.472  0.00  0.00    +0.000 OA
ENDBRANCH  16  23
ENDBRANCH   1  19
TORSDOF 3
ENDMDL
MODEL 2
REMARK VINA RESULT:      -7.2      0.203      1.007
REMARK  Name = 
REMARK  4 active torsions:
REMARK  status: ('A' for Active; 'I' for Inactive)
REMARK    1  A    between atoms: C_1  and  S_2
REMARK    2  A    between atoms: S_2  and  C_5
REMARK    3  A    between atoms: C_8  and  N_9
REMARK    4  A    between atoms: C_12  and  C_13
REMARK                            x       y       z     vdW  Elec       q    Type
REMARK                         _______ _______ _______ _____ _____    ______ ____
ROOT
ATOM      1  N   UNL     1       1.927   6.418  21.163  0.00  0.00    +0.000 N 
ATOM      2  C   UNL     1       2.555   5.449  20.454  0.00  0.00    +0.000 A 
ATOM      3  N   UNL     1       3.324   5.635  19.402  0.00  0.00    +0.000 NA
ATOM      4  C   UNL     1       3.921   4.456  18.989  0.00  0.00    +0.000 A 
ATOM      5  C   UNL     1       3.501   3.345  19.694  0.00  0.00    +0.000 A 
ATOM      6  S   UNL     1       2.407   3.802  20.935  0.00  0.00    +0.000 S 
ATOM      7  H   UNL     1       1.421   6.137  21.993  0.00  0.00    +0.000 HD
ENDROOT
BRANCH   4   8
ATOM      8  C   UNL     1       4.936   4.451  17.925  0.00  0.00    +0.000 A 
ATOM      9  C   UNL     1       4.625   3.952  16.637  0.00  0.00    +0.000 A 
ATOM     10 CL   UNL     1       3.050   3.382  16.179  0.00  0.00    +0.000 Cl
ATOM     11  C   UNL     1       5.583   3.931  15.610  0.00  0.00    +0.000 A 
ATOM     12  C   UNL     1       6.861   4.430  15.824  0.00  0.00    +0.000 A 
ATOM     13  C   UNL     1       7.190   4.935  17.076  0.00  0.00    +0.000 A 
ATOM     14  C   UNL     1       6.251   4.931  18.122  0.00  0.00    +0.000 A 
ATOM     15 CL   UNL     1       6.850   5.506  19.646  0.00  0.00    +0.000 Cl
ENDBRANCH   4   8
BRANCH   1  19
ATOM     16  C   UNL     1       0.727  10.134  19.584  0.00  0.00    +0.000 A 
ATOM     17  C   UNL     1       0.307   9.766  20.858  0.00  0.00    +0.000 A 
ATOM     18  C   UNL     1       0.691   8.534  21.378  0.00  0.00    +0.000 A 
ATOM     19  C   UNL     1       1.509   7.660  20.647  0.00  0.00    +0.000 A 
ATOM     20  C   UNL     1       1.899   8.034  19.352  0.00  0.00    +0.000 A 
ATOM     21  C   UNL     1       1.504   9.262  18.811  0.00  0.00    +0.000 A 
BRANCH  16  23
ATOM     22  C   UNL     1      -0.223  12.609  20.388  0.00  0.00    +0.000 C 
ATOM     23  S   UNL     1       0.258  11.714  18.933  0.00  0.00    +0.000 S 
ATOM     24  O   UNL     1      -0.923  11.524  18.113  0.00  0.00    +0.000 OA
ATOM     25  O   UNL     1       1.449  12.341  18.395  0.00  0.00    +0.000 OA
ENDBRANCH  16  23
ENDBRANCH   1  19
TORSDOF 3
ENDMDL
MODEL 3
REMARK VINA RESULT:      -7.1      0.055      1.883
REMARK  Name = 
REMARK  4 active torsions:
REMARK  status: ('A' for Active; 'I' for Inactive)
REMARK    1  A    between atoms: C_1  and  S_2
REMARK    2  A    between atoms: S_2  and  C_5
REMARK    3  A    between atoms: C_8  and  N_9
REMARK    4  A    between atoms: C_12  and  C_13
REMARK                            x       y       z     vdW  Elec       q    Type
REMARK                         _______ _______ _______ _____ _____    ______ ____
ROOT
ATOM      1  N   UNL     1       1.931   6.453  21.144  0.00  0.00    +0.000 N 
ATOM      2  C   UNL     1       2.558   5.473  20.449  0.00  0.00    +0.000 A 
ATOM      3  N   UNL     1       3.305   5.641  19.378  0.00  0.00    +0.000 NA
ATOM      4  C   UNL     1       3.909   4.458  18.984  0.00  0.00    +0.000 A 
ATOM      5  C   UNL     1       3.514   3.361  19.725  0.00  0.00    +0.000 A 
ATOM      6  S   UNL     1       2.438   3.838  20.974  0.00  0.00    +0.000 S 
ATOM      7  H   UNL     1       1.444   6.188  21.990  0.00  0.00    +0.000 HD
ENDROOT
BRANCH   4   8
ATOM      8  C   UNL     1       4.904   4.438  17.902  0.00  0.00    +0.000 A 
ATOM      9  C   UNL     1       6.215   4.924  18.121  0.00  0.00    +0.000 A 
ATOM     10 CL   UNL     1       6.783   5.506  19.656  0.00  0.00    +0.000 Cl
ATOM     11  C   UNL     1       7.177   4.920  17.098  0.00  0.00    +0.000 A 
ATOM     12  C   UNL     1       6.873   4.410  15.843  0.00  0.00    +0.000 A 
ATOM     13  C   UNL     1       5.596   3.917  15.604  0.00  0.00    +0.000 A 
ATOM     14  C   UNL     1       4.614   3.946  16.609  0.00  0.00    +0.000 A 
ATOM     15 CL   UNL     1       3.048   3.384  16.118  0.00  0.00    +0.000 Cl
ENDBRANCH   4   8
BRANCH   1  19
ATOM     16  C   UNL     1       0.559  10.109  19.566  0.00  0.00    +0.000 A 
ATOM     17  C   UNL     1       1.410   9.315  18.805  0.00  0.00    +0.000 A 
ATOM     18  C   UNL     1       1.876   8.112  19.328  0.00  0.00    +0.000 A 
ATOM     19  C   UNL     1       1.489   7.677  20.604  0.00  0.00    +0.000 A 
ATOM     20  C   UNL     1       0.654   8.504  21.369  0.00  0.00    +0.000 A 
ATOM     21  C   UNL     1       0.195   9.724  20.863  0.00  0.00    +0.000 A 
BRANCH  16  23
ATOM     22  C   UNL     1      -0.757  12.432  20.307  0.00  0.00    +0.000 C 
ATOM     23  S   UNL     1      -0.052  11.629  18.890  0.00  0.00    +0.000 S 
ATOM     24  O   UNL     1      -1.130  11.308  17.975  0.00  0.00    +0.000 OA
ATOM     25  O   UNL     1       1.090  12.409  18.455  0.00  0.00    +0.000 OA
ENDBRANCH  16  23
ENDBRANCH   1  19
TORSDOF 3
ENDMDL
MODEL 4
REMARK VINA RESULT:      -7.1      4.810      9.019
REMARK  Name = 
REMARK  4 active torsions:
REMARK  status: ('A' for Active; 'I' for Inactive)
REMARK    1  A    between atoms: C_1  and  S_2
REMARK    2  A    between atoms: S_2  and  C_5
REMARK    3  A    between atoms: C_8  and  N_9
REMARK    4  A    between atoms: C_12  and  C_13
REMARK                            x       y       z     vdW  Elec       q    Type
REMARK                         _______ _______ _______ _____ _____    ______ ____
ROOT
ATOM      1  N   UNL     1       1.673  10.366  19.583  0.00  0.00    +0.000 N 
ATOM      2  C   UNL     1       0.684  11.143  19.079  0.00  0.00    +0.000 A 
ATOM      3  N   UNL     1      -0.552  10.761  18.836  0.00  0.00    +0.000 NA
ATOM      4  C   UNL     1      -1.350  11.824  18.450  0.00  0.00    +0.000 A 
ATOM      5  C   UNL     1      -0.660  13.011  18.304  0.00  0.00    +0.000 A 
ATOM      6  S   UNL     1       0.988  12.802  18.732  0.00  0.00    +0.000 S 
ATOM      7  H   UNL     1       2.560  10.810  19.784  0.00  0.00    +0.000 HD
ENDROOT
BRANCH   4   8
ATOM      8  C   UNL     1      -2.800  11.658  18.271  0.00  0.00    +0.000 A 
ATOM      9  C   UNL     1      -3.701  12.052  19.289  0.00  0.00    +0.000 A 
ATOM     10 CL   UNL     1      -3.207  12.812  20.771  0.00  0.00    +0.000 Cl
ATOM     11  C   UNL     1      -5.088  11.895  19.140  0.00  0.00    +0.000 A 
ATOM     12  C   UNL     1      -5.619  11.369  17.969  0.00  0.00    +0.000 A 
ATOM     13  C   UNL     1      -4.758  10.983  16.950  0.00  0.00    +0.000 A 
ATOM     14  C   UNL     1      -3.366  11.105  17.099  0.00  0.00    +0.000 A 
ATOM     15 CL   UNL     1      -2.431  10.487  15.774  0.00  0.00    +0.000 Cl
ENDBRANCH   4   8
BRANCH   1  19
ATOM     16  C   UNL     1       1.950   6.197  19.049  0.00  0.00    +0.000 A 
ATOM     17  C   UNL     1       1.623   6.704  20.303  0.00  0.00    +0.000 A 
ATOM     18  C   UNL     1       1.543   8.082  20.486  0.00  0.00    +0.000 A 
ATOM     19  C   UNL     1       1.771   8.970  19.425  0.00  0.00    +0.000 A 
ATOM     20  C   UNL     1       2.128   8.442  18.175  0.00  0.00    +0.000 A 
ATOM     21  C   UNL     1       2.231   7.061  17.983  0.00  0.00    +0.000 A 
BRANCH  16  23
ATOM     22  C   UNL     1       1.027   3.824  20.139  0.00  0.00    +0.000 C 
ATOM     23  S   UNL     1       2.028   4.443  18.812  0.00  0.00    +0.000 S 
ATOM     24  O   UNL     1       3.395   4.022  19.048  0.00  0.00    +0.000 OA
ATOM     25  O   UNL     1       1.357   4.137  17.564  0.00  0.00    +0.000 OA
ENDBRANCH  16  23
ENDBRANCH   1  19
TORSDOF 3
ENDMDL
MODEL 5
REMARK VINA RESULT:      -7.0      4.828      8.929
REMARK  Name = 
REMARK  4 active torsions:
REMARK  status: ('A' for Active; 'I' for Inactive)
REMARK    1  A    between atoms: C_1  and  S_2
REMARK    2  A    between atoms: S_2  and  C_5
REMARK    3  A    between atoms: C_8  and  N_9
REMARK    4  A    between atoms: C_12  and  C_13
REMARK                            x       y       z     vdW  Elec       q    Type
REMARK                         _______ _______ _______ _____ _____    ______ ____
ROOT
ATOM      1  N   UNL     1       1.642  10.456  19.534  0.00  0.00    +0.000 N 
ATOM      2  C   UNL     1       0.636  11.217  19.042  0.00  0.00    +0.000 A 
ATOM      3  N   UNL     1      -0.602  10.822  18.833  0.00  0.00    +0.000 NA
ATOM      4  C   UNL     1      -1.418  11.873  18.448  0.00  0.00    +0.000 A 
ATOM      5  C   UNL     1      -0.740  13.063  18.267  0.00  0.00    +0.000 A 
ATOM      6  S   UNL     1       0.920  12.872  18.660  0.00  0.00    +0.000 S 
ATOM      7  H   UNL     1       2.530  10.910  19.708  0.00  0.00    +0.000 HD
ENDROOT
BRANCH   4   8
ATOM      8  C   UNL     1      -2.870  11.693  18.305  0.00  0.00    +0.000 A 
ATOM      9  C   UNL     1      -3.414  11.143  17.120  0.00  0.00    +0.000 A 
ATOM     10 CL   UNL     1      -2.450  10.576  15.790  0.00  0.00    +0.000 Cl
ATOM     11  C   UNL     1      -4.799  10.972  16.962  0.00  0.00    +0.000 A 
ATOM     12  C   UNL     1      -5.676  11.315  17.982  0.00  0.00    +0.000 A 
ATOM     13  C   UNL     1      -5.168  11.848  19.160  0.00  0.00    +0.000 A 
ATOM     14  C   UNL     1      -3.787  12.056  19.319  0.00  0.00    +0.000 A 
ATOM     15 CL   UNL     1      -3.328  12.819  20.808  0.00  0.00    +0.000 Cl
ENDBRANCH   4   8
BRANCH   1  19
ATOM     16  C   UNL     1       1.942   6.281  19.063  0.00  0.00    +0.000 A 
ATOM     17  C   UNL     1       1.585   6.804  20.302  0.00  0.00    +0.000 A 
ATOM     18  C   UNL     1       1.497   8.184  20.465  0.00  0.00    +0.000 A 
ATOM     19  C   UNL     1       1.747   9.058  19.397  0.00  0.00    +0.000 A 
ATOM     20  C   UNL     1       2.134   8.515  18.163  0.00  0.00    +0.000 A 
ATOM     21  C   UNL     1       2.244   7.131  17.992  0.00  0.00    +0.000 A 
BRANCH  16  23
ATOM     22  C   UNL     1       1.127   3.916  20.252  0.00  0.00    +0.000 C 
ATOM     23  S   UNL     1       2.029   4.524  18.851  0.00  0.00    +0.000 S 
ATOM     24  O   UNL     1       3.415   4.126  19.002  0.00  0.00    +0.000 OA
ATOM     25  O   UNL     1       1.282   4.187  17.655  0.00  0.00    +0.000 OA
ENDBRANCH  16  23
ENDBRANCH   1  19
TORSDOF 3
ENDMDL
MODEL 6
REMARK VINA RESULT:      -7.0      0.225      2.136
REMARK  Name = 
REMARK  4 active torsions:
REMARK  status: ('A' for Active; 'I' for Inactive)
REMARK    1  A    between atoms: C_1  and  S_2
REMARK    2  A    between atoms: S_2  and  C_5
REMARK    3  A    between atoms: C_8  and  N_9
REMARK    4  A    between atoms: C_12  and  C_13
REMARK                            x       y       z     vdW  Elec       q    Type
REMARK                         _______ _______ _______ _____ _____    ______ ____
ROOT
ATOM      1  N   UNL     1       1.936   6.425  21.151  0.00  0.00    +0.000 N 
ATOM      2  C   UNL     1       2.551   5.453  20.436  0.00  0.00    +0.000 A 
ATOM      3  N   UNL     1       3.310   5.634  19.376  0.00  0.00    +0.000 NA
ATOM      4  C   UNL     1       3.895   4.452  18.957  0.00  0.00    +0.000 A 
ATOM      5  C   UNL     1       3.475   3.343  19.666  0.00  0.00    +0.000 A 
ATOM      6  S   UNL     1       2.397   3.807  20.917  0.00  0.00    +0.000 S 
ATOM      7  H   UNL     1       1.437   6.148  21.986  0.00  0.00    +0.000 HD
ENDROOT
BRANCH   4   8
ATOM      8  C   UNL     1       4.899   4.441  17.883  0.00  0.00    +0.000 A 
ATOM      9  C   UNL     1       6.208   4.926  18.117  0.00  0.00    +0.000 A 
ATOM     10 CL   UNL     1       6.764   5.495  19.661  0.00  0.00    +0.000 Cl
ATOM     11  C   UNL     1       7.179   4.931  17.101  0.00  0.00    +0.000 A 
ATOM     12  C   UNL     1       6.886   4.431  15.839  0.00  0.00    +0.000 A 
ATOM     13  C   UNL     1       5.611   3.940  15.586  0.00  0.00    +0.000 A 
ATOM     14  C   UNL     1       4.621   3.959  16.583  0.00  0.00    +0.000 A 
ATOM     15 CL   UNL     1       3.059   3.401  16.075  0.00  0.00    +0.000 Cl
ENDBRANCH   4   8
BRANCH   1  19
ATOM     16  C   UNL     1       0.744  10.150  19.585  0.00  0.00    +0.000 A 
ATOM     17  C   UNL     1       0.347   9.791  20.869  0.00  0.00    +0.000 A 
ATOM     18  C   UNL     1       0.728   8.556  21.385  0.00  0.00    +0.000 A 
ATOM     19  C   UNL     1       1.520   7.671  20.640  0.00  0.00    +0.000 A 
ATOM     20  C   UNL     1       1.887   8.036  19.336  0.00  0.00    +0.000 A 
ATOM     21  C   UNL     1       1.495   9.266  18.799  0.00  0.00    +0.000 A 
BRANCH  16  23
ATOM     22  C   UNL     1      -0.183  12.630  20.397  0.00  0.00    +0.000 C 
ATOM     23  S   UNL     1       0.279  11.732  18.938  0.00  0.00    +0.000 S 
ATOM     24  O   UNL     1      -0.910  11.550  18.129  0.00  0.00    +0.000 OA
ATOM     25  O   UNL     1       1.469  12.352  18.389  0.00  0.00    +0.000 OA
ENDBRANCH  16  23
ENDBRANCH   1  19
TORSDOF 3
ENDMDL
MODEL 7
REMARK VINA RESULT:      -6.9      4.834      8.862
REMARK  Name = 
REMARK  4 active torsions:
REMARK  status: ('A' for Active; 'I' for Inactive)
REMARK    1  A    between atoms: C_1  and  S_2
REMARK    2  A    between atoms: S_2  and  C_5
REMARK    3  A    between atoms: C_8  and  N_9
REMARK    4  A    between atoms: C_12  and  C_13
REMARK                            x       y       z     vdW  Elec       q    Type
REMARK                         _______ _______ _______ _____ _____    ______ ____
ROOT
ATOM      1  N   UNL     1       1.671  10.405  19.652  0.00  0.00    +0.000 N 
ATOM      2  C   UNL     1       0.679  11.167  19.134  0.00  0.00    +0.000 A 
ATOM      3  N   UNL     1      -0.567  10.789  18.940  0.00  0.00    +0.000 NA
ATOM      4  C   UNL     1      -1.362  11.841  18.519  0.00  0.00    +0.000 A 
ATOM      5  C   UNL     1      -0.662  13.010  18.295  0.00  0.00    +0.000 A 
ATOM      6  S   UNL     1       0.994  12.801  18.693  0.00  0.00    +0.000 S 
ATOM      7  H   UNL     1       2.567  10.846  19.809  0.00  0.00    +0.000 HD
ENDROOT
BRANCH   4   8
ATOM      8  C   UNL     1      -2.818  11.685  18.384  0.00  0.00    +0.000 A 
ATOM      9  C   UNL     1      -3.373  11.080  17.231  0.00  0.00    +0.000 A 
ATOM     10 CL   UNL     1      -2.421  10.417  15.938  0.00  0.00    +0.000 Cl
ATOM     11  C   UNL     1      -4.761  10.930  17.080  0.00  0.00    +0.000 A 
ATOM     12  C   UNL     1      -5.632  11.349  18.077  0.00  0.00    +0.000 A 
ATOM     13  C   UNL     1      -5.113  11.938  19.223  0.00  0.00    +0.000 A 
ATOM     14  C   UNL     1      -3.728  12.125  19.373  0.00  0.00    +0.000 A 
ATOM     15 CL   UNL     1      -3.254  12.962  20.817  0.00  0.00    +0.000 Cl
ENDBRANCH   4   8
BRANCH   1  19
ATOM     16  C   UNL     1       1.911   6.204  19.453  0.00  0.00    +0.000 A 
ATOM     17  C   UNL     1       2.225   6.959  18.327  0.00  0.00    +0.000 A 
ATOM     18  C   UNL     1       2.135   8.347  18.386  0.00  0.00    +0.000 A 
ATOM     19  C   UNL     1       1.748   9.000  19.565  0.00  0.00    +0.000 A 
ATOM     20  C   UNL     1       1.406   8.222  20.681  0.00  0.00    +0.000 A 
ATOM     21  C   UNL     1       1.474   6.826  20.629  0.00  0.00    +0.000 A 
BRANCH  16  23
ATOM     22  C   UNL     1       1.644   4.081  17.694  0.00  0.00    +0.000 C 
ATOM     23  S   UNL     1       2.049   4.439  19.384  0.00  0.00    +0.000 S 
ATOM     24  O   UNL     1       1.008   3.878  20.223  0.00  0.00    +0.000 OA
ATOM     25  O   UNL     1       3.442   4.097  19.594  0.00  0.00    +0.000 OA
ENDBRANCH  16  23
ENDBRANCH   1  19
TORSDOF 3
ENDMDL
MODEL 8
REMARK VINA RESULT:      -6.9      4.730      8.874
REMARK  Name = 
REMARK  4 active torsions:
REMARK  status: ('A' for Active; 'I' for Inactive)
REMARK    1  A    between atoms: C_1  and  S_2
REMARK    2  A    between atoms: S_2  and  C_5
REMARK    3  A    between atoms: C_8  and  N_9
REMARK    4  A    between atoms: C_12  and  C_13
REMARK                            x       y       z     vdW  Elec       q    Type
REMARK                         _______ _______ _______ _____ _____    ______ ____
ROOT
ATOM      1  N   UNL     1       1.820  10.009  19.778  0.00  0.00    +0.000 N 
ATOM      2  C   UNL     1       0.875  10.845  19.286  0.00  0.00    +0.000 A 
ATOM      3  N   UNL     1      -0.373  10.526  19.012  0.00  0.00    +0.000 NA
ATOM      4  C   UNL     1      -1.117  11.636  18.649  0.00  0.00    +0.000 A 
ATOM      5  C   UNL     1      -0.372  12.795  18.551  0.00  0.00    +0.000 A 
ATOM      6  S   UNL     1       1.258  12.498  18.996  0.00  0.00    +0.000 S 
ATOM      7  H   UNL     1       2.722  10.405  20.007  0.00  0.00    +0.000 HD
ENDROOT
BRANCH   4   8
ATOM      8  C   UNL     1      -2.570  11.542  18.443  0.00  0.00    +0.000 A 
ATOM      9  C   UNL     1      -3.467  12.114  19.377  0.00  0.00    +0.000 A 
ATOM     10 CL   UNL     1      -2.961  13.016  20.772  0.00  0.00    +0.000 Cl
ATOM     11  C   UNL     1      -4.858  12.027  19.202  0.00  0.00    +0.000 A 
ATOM     12  C   UNL     1      -5.394  11.397  18.087  0.00  0.00    +0.000 A 
ATOM     13  C   UNL     1      -4.535  10.836  17.150  0.00  0.00    +0.000 A 
ATOM     14  C   UNL     1      -3.142  10.886  17.329  0.00  0.00    +0.000 A 
ATOM     15 CL   UNL     1      -2.218  10.053  16.120  0.00  0.00    +0.000 Cl
ENDBRANCH   4   8
BRANCH   1  19
ATOM     16  C   UNL     1       1.943   5.833  19.237  0.00  0.00    +0.000 A 
ATOM     17  C   UNL     1       2.240   6.669  18.165  0.00  0.00    +0.000 A 
ATOM     18  C   UNL     1       2.188   8.050  18.337  0.00  0.00    +0.000 A 
ATOM     19  C   UNL     1       1.857   8.615  19.577  0.00  0.00    +0.000 A 
ATOM     20  C   UNL     1       1.532   7.758  20.639  0.00  0.00    +0.000 A 
ATOM     21  C   UNL     1       1.563   6.369  20.474  0.00  0.00    +0.000 A 
BRANCH  16  23
ATOM     22  C   UNL     1       1.074   3.468  20.386  0.00  0.00    +0.000 C 
ATOM     23  S   UNL     1       2.034   4.077  19.024  0.00  0.00    +0.000 S 
ATOM     24  O   UNL     1       3.411   3.673  19.229  0.00  0.00    +0.000 OA
ATOM     25  O   UNL     1       1.333   3.745  17.799  0.00  0.00    +0.000 OA
ENDBRANCH  16  23
ENDBRANCH   1  19
TORSDOF 3
ENDMDL
MODEL 9
REMARK VINA RESULT:      -6.9      4.615      8.700
REMARK  Name = 
REMARK  4 active torsions:
REMARK  status: ('A' for Active; 'I' for Inactive)
REMARK    1  A    between atoms: C_1  and  S_2
REMARK    2  A    between atoms: S_2  and  C_5
REMARK    3  A    between atoms: C_8  and  N_9
REMARK    4  A    between atoms: C_12  and  C_13
REMARK                            x       y       z     vdW  Elec       q    Type
REMARK                         _______ _______ _______ _____ _____    ______ ____
ROOT
ATOM      1  N   UNL     1       1.428   9.368  20.892  0.00  0.00    +0.000 N 
ATOM      2  C   UNL     1       0.604  10.328  20.407  0.00  0.00    +0.000 A 
ATOM      3  N   UNL     1      -0.458  10.129  19.656  0.00  0.00    +0.000 NA
ATOM      4  C   UNL     1      -1.159  11.303  19.438  0.00  0.00    +0.000 A 
ATOM      5  C   UNL     1      -0.540  12.423  19.958  0.00  0.00    +0.000 A 
ATOM      6  S   UNL     1       0.892  11.981  20.793  0.00  0.00    +0.000 S 
ATOM      7  H   UNL     1       2.170   9.659  21.515  0.00  0.00    +0.000 HD
ENDROOT
BRANCH   4   8
ATOM      8  C   UNL     1      -2.459  11.295  18.751  0.00  0.00    +0.000 A 
ATOM      9  C   UNL     1      -3.568  11.979  19.302  0.00  0.00    +0.000 A 
ATOM     10 CL   UNL     1      -3.492  12.924  20.758  0.00  0.00    +0.000 Cl
ATOM     11  C   UNL     1      -4.820  11.976  18.665  0.00  0.00    +0.000 A 
ATOM     12  C   UNL     1      -4.996  11.321  17.454  0.00  0.00    +0.000 A 
ATOM     13  C   UNL     1      -3.921  10.650  16.885  0.00  0.00    +0.000 A 
ATOM     14  C   UNL     1      -2.672  10.617  17.529  0.00  0.00    +0.000 A 
ATOM     15 CL   UNL     1      -1.465   9.655  16.735  0.00  0.00    +0.000 Cl
ENDBRANCH   4   8
BRANCH   1  19
ATOM     16  C   UNL     1       2.124   5.657  19.026  0.00  0.00    +0.000 A 
ATOM     17  C   UNL     1       1.675   5.685  20.343  0.00  0.00    +0.000 A 
ATOM     18  C   UNL     1       1.456   6.910  20.967  0.00  0.00    +0.000 A 
ATOM     19  C   UNL     1       1.664   8.118  20.287  0.00  0.00    +0.000 A 
ATOM     20  C   UNL     1       2.145   8.071  18.970  0.00  0.00    +0.000 A 
ATOM     21  C   UNL     1       2.387   6.848  18.338  0.00  0.00    +0.000 A 
BRANCH  16  23
ATOM     22  C   UNL     1       3.832   4.391  17.250  0.00  0.00    +0.000 C 
ATOM     23  S   UNL     1       2.380   4.097  18.226  0.00  0.00    +0.000 S 
ATOM     24  O   UNL     1       1.270   3.874  17.320  0.00  0.00    +0.000 OA
ATOM     25  O   UNL     1       2.716   3.126  19.248  0.00  0.00    +0.000 OA
ENDBRANCH  16  23
ENDBRANCH   1  19
TORSDOF 3
ENDMDL
