MODEL 1
REMARK VINA RESULT:      -7.1      0.000      0.000
REMARK  Name = 
REMARK  9 active torsions:
REMARK  status: ('A' for Active; 'I' for Inactive)
REMARK    1  A    between atoms: C_1  and  N_2
REMARK    2  A    between atoms: N_2  and  C_3
REMARK    3  A    between atoms: C_3  and  C_4
REMARK    4  A    between atoms: C_4  and  N_5
REMARK    5  A    between atoms: C_13  and  C_14
REMARK    6  A    between atoms: C_14  and  N_15
REMARK    7  A    between atoms: C_24  and  N_25
REMARK    8  A    between atoms: N_25  and  C_26
REMARK    9  A    between atoms: C_26  and  C_27
REMARK                            x       y       z     vdW  Elec       q    Type
REMARK                         _______ _______ _______ _____ _____    ______ ____
ROOT
ATOM      1  N   UNL     1       2.313  14.831  17.959  0.00  0.00    +0.000 NA
ATOM      2  C   UNL     1       1.601  15.522  19.046  0.00  0.00    +0.000 C 
ATOM      3  C   UNL     1       0.233  14.895  19.359  0.00  0.00    +0.000 C 
ATOM      4  C   UNL     1       0.352  13.426  19.636  0.00  0.00    +0.000 A 
ATOM      5  C   UNL     1       1.377  12.713  19.053  0.00  0.00    +0.000 A 
ATOM      6  N   UNL     1       1.529  11.391  19.230  0.00  0.00    +0.000 NA
ATOM      7  C   UNL     1       0.653  10.758  20.022  0.00  0.00    +0.000 A 
ATOM      8  N   UNL     1       0.900   9.355  20.279  0.00  0.00    +0.000 N 
ATOM      9  C   UNL     1       0.462   8.608  21.378  0.00  0.00    +0.000 A 
ATOM     10  C   UNL     1       0.981   7.331  21.255  0.00  0.00    +0.000 A 
ATOM     11  C   UNL     1       1.752   7.264  20.076  0.00  0.00    +0.000 A 
ATOM     12  C   UNL     1       2.506   6.236  19.471  0.00  0.00    +0.000 A 
ATOM     13  C   UNL     1       3.158   6.468  18.260  0.00  0.00    +0.000 A 
ATOM     14  C   UNL     1       3.062   7.708  17.642  0.00  0.00    +0.000 A 
ATOM     15  C   UNL     1       2.326   8.743  18.226  0.00  0.00    +0.000 A 
ATOM     16  C   UNL     1       1.686   8.520  19.466  0.00  0.00    +0.000 A 
ATOM     17  N   UNL     1      -0.399  11.369  20.603  0.00  0.00    +0.000 NA
ATOM     18  C   UNL     1      -0.563  12.688  20.378  0.00  0.00    +0.000 A 
ATOM     19  C   UNL     1       2.446  13.382  18.215  0.00  0.00    +0.000 C 
ENDROOT
BRANCH  18  20
ATOM     20  N   UNL     1      -1.720  13.317  20.820  0.00  0.00    +0.000 N 
ATOM     21  H   UNL     1      -1.652  13.715  21.747  0.00  0.00    +0.000 HD
BRANCH  20  22
ATOM     22  C   UNL     1      -3.014  12.728  20.527  0.00  0.00    +0.000 C 
BRANCH  22  23
ATOM     23  C   UNL     1      -3.825  12.704  21.804  0.00  0.00    +0.000 A 
ATOM     24  C   UNL     1      -3.174  12.557  23.042  0.00  0.00    +0.000 A 
ATOM     25  C   UNL     1      -3.894  12.564  24.235  0.00  0.00    +0.000 A 
ATOM     26  C   UNL     1      -5.275  12.733  24.208  0.00  0.00    +0.000 A 
ATOM     27  C   UNL     1      -5.934  12.891  22.988  0.00  0.00    +0.000 A 
ATOM     28  C   UNL     1      -5.213  12.878  21.791  0.00  0.00    +0.000 A 
ENDBRANCH  22  23
ENDBRANCH  20  22
ENDBRANCH  18  20
BRANCH   1  29
ATOM     29  C   UNL     1       3.650  15.449  17.778  0.00  0.00    +0.000 C 
BRANCH  29  30
ATOM     30  C   UNL     1       3.766  16.911  18.277  0.00  0.00    +0.000 C 
BRANCH  30  32
ATOM     31  C   UNL     1       5.881  15.946  18.900  0.00  0.00    +0.000 C 
ATOM     32  N   UNL     1       5.041  17.138  18.970  0.00  0.00    +0.000 NA
ATOM     33  H   UNL     1       5.532  17.919  18.533  0.00  0.00    +0.000 HD
ENDBRANCH  30  32
ENDBRANCH  29  30
ENDBRANCH   1  29
BRANCH   9  34
ATOM     34  C   UNL     1      -0.322   9.134  22.528  0.00  0.00    +0.000 C 
BRANCH  34  35
ATOM     35  N   UNL     1       0.559   9.845  23.439  0.00  0.00    +0.000 NA
ATOM     36  H   UNL     1       1.082   9.155  23.974  0.00  0.00    +0.000 HD
ATOM     37  H   UNL     1      -0.007  10.362  24.108  0.00  0.00    +0.000 HD
ENDBRANCH  34  35
ENDBRANCH   9  34
TORSDOF 8
ENDMDL
MODEL 2
REMARK VINA RESULT:      -7.1      0.600      1.087
REMARK  Name = 
REMARK  9 active torsions:
REMARK  status: ('A' for Active; 'I' for Inactive)
REMARK    1  A    between atoms: C_1  and  N_2
REMARK    2  A    between atoms: N_2  and  C_3
REMARK    3  A    between atoms: C_3  and  C_4
REMARK    4  A    between atoms: C_4  and  N_5
REMARK    5  A    between atoms: C_13  and  C_14
REMARK    6  A    between atoms: C_14  and  N_15
REMARK    7  A    between atoms: C_24  and  N_25
REMARK    8  A    between atoms: N_25  and  C_26
REMARK    9  A    between atoms: C_26  and  C_27
REMARK                            x       y       z     vdW  Elec       q    Type
REMARK                         _______ _______ _______ _____ _____    ______ ____
ROOT
ATOM      1  N   UNL     1       2.237  15.152  17.966  0.00  0.00    +0.000 NA
ATOM      2  C   UNL     1       1.521  15.846  19.048  0.00  0.00    +0.000 C 
ATOM      3  C   UNL     1       0.153  15.219  19.359  0.00  0.00    +0.000 C 
ATOM      4  C   UNL     1       0.273  13.751  19.643  0.00  0.00    +0.000 A 
ATOM      5  C   UNL     1       1.300  13.037  19.065  0.00  0.00    +0.000 A 
ATOM      6  N   UNL     1       1.454  11.716  19.249  0.00  0.00    +0.000 NA
ATOM      7  C   UNL     1       0.576  11.085  20.040  0.00  0.00    +0.000 A 
ATOM      8  N   UNL     1       0.825   9.684  20.304  0.00  0.00    +0.000 N 
ATOM      9  C   UNL     1       0.385   8.941  21.405  0.00  0.00    +0.000 A 
ATOM     10  C   UNL     1       0.905   7.664  21.289  0.00  0.00    +0.000 A 
ATOM     11  C   UNL     1       1.680   7.593  20.113  0.00  0.00    +0.000 A 
ATOM     12  C   UNL     1       2.436   6.563  19.514  0.00  0.00    +0.000 A 
ATOM     13  C   UNL     1       3.091   6.791  18.304  0.00  0.00    +0.000 A 
ATOM     14  C   UNL     1       2.996   8.028  17.680  0.00  0.00    +0.000 A 
ATOM     15  C   UNL     1       2.257   9.065  18.258  0.00  0.00    +0.000 A 
ATOM     16  C   UNL     1       1.614   8.846  19.497  0.00  0.00    +0.000 A 
ATOM     17  N   UNL     1      -0.477  11.697  20.617  0.00  0.00    +0.000 NA
ATOM     18  C   UNL     1      -0.642  13.015  20.385  0.00  0.00    +0.000 A 
ATOM     19  C   UNL     1       2.371  13.704  18.228  0.00  0.00    +0.000 C 
ENDROOT
BRANCH  18  20
ATOM     20  N   UNL     1      -1.802  13.645  20.821  0.00  0.00    +0.000 N 
ATOM     21  H   UNL     1      -1.726  14.076  21.733  0.00  0.00    +0.000 HD
BRANCH  20  22
ATOM     22  C   UNL     1      -3.092  13.029  20.568  0.00  0.00    +0.000 C 
BRANCH  22  23
ATOM     23  C   UNL     1      -3.831  12.918  21.884  0.00  0.00    +0.000 A 
ATOM     24  C   UNL     1      -5.230  13.053  21.913  0.00  0.00    +0.000 A 
ATOM     25  C   UNL     1      -5.938  12.922  23.105  0.00  0.00    +0.000 A 
ATOM     26  C   UNL     1      -5.257  12.640  24.286  0.00  0.00    +0.000 A 
ATOM     27  C   UNL     1      -3.869  12.491  24.271  0.00  0.00    +0.000 A 
ATOM     28  C   UNL     1      -3.158  12.628  23.076  0.00  0.00    +0.000 A 
ENDBRANCH  22  23
ENDBRANCH  20  22
ENDBRANCH  18  20
BRANCH   1  29
ATOM     29  C   UNL     1       3.574  15.771  17.785  0.00  0.00    +0.000 C 
BRANCH  29  30
ATOM     30  C   UNL     1       4.770  14.799  17.949  0.00  0.00    +0.000 C 
BRANCH  30  32
ATOM     31  C   UNL     1       5.090  15.085  20.316  0.00  0.00    +0.000 C 
ATOM     32  N   UNL     1       5.690  15.258  18.998  0.00  0.00    +0.000 NA
ATOM     33  H   UNL     1       6.556  14.720  18.951  0.00  0.00    +0.000 HD
ENDBRANCH  30  32
ENDBRANCH  29  30
ENDBRANCH   1  29
BRANCH   9  34
ATOM     34  C   UNL     1      -0.403   9.471  22.551  0.00  0.00    +0.000 C 
BRANCH  34  35
ATOM     35  N   UNL     1       0.459   9.626  23.710  0.00  0.00    +0.000 NA
ATOM     36  H   UNL     1      -0.118   9.545  24.545  0.00  0.00    +0.000 HD
ATOM     37  H   UNL     1       0.841  10.569  23.712  0.00  0.00    +0.000 HD
ENDBRANCH  34  35
ENDBRANCH   9  34
TORSDOF 8
ENDMDL
MODEL 3
REMARK VINA RESULT:      -7.0      0.976      1.369
REMARK  Name = 
REMARK  9 active torsions:
REMARK  status: ('A' for Active; 'I' for Inactive)
REMARK    1  A    between atoms: C_1  and  N_2
REMARK    2  A    between atoms: N_2  and  C_3
REMARK    3  A    between atoms: C_3  and  C_4
REMARK    4  A    between atoms: C_4  and  N_5
REMARK    5  A    between atoms: C_13  and  C_14
REMARK    6  A    between atoms: C_14  and  N_15
REMARK    7  A    between atoms: C_24  and  N_25
REMARK    8  A    between atoms: N_25  and  C_26
REMARK    9  A    between atoms: C_26  and  C_27
REMARK                            x       y       z     vdW  Elec       q    Type
REMARK                         _______ _______ _______ _____ _____    ______ ____
ROOT
ATOM      1  N   UNL     1       1.787  14.747  18.018  0.00  0.00    +0.000 NA
ATOM      2  C   UNL     1       1.017  15.350  19.117  0.00  0.00    +0.000 C 
ATOM      3  C   UNL     1      -0.285  14.593  19.422  0.00  0.00    +0.000 C 
ATOM      4  C   UNL     1      -0.027  13.137  19.676  0.00  0.00    +0.000 A 
ATOM      5  C   UNL     1       1.058  12.533  19.079  0.00  0.00    +0.000 A 
ATOM      6  N   UNL     1       1.334  11.228  19.236  0.00  0.00    +0.000 NA
ATOM      7  C   UNL     1       0.524  10.504  20.019  0.00  0.00    +0.000 A 
ATOM      8  N   UNL     1       0.903   9.127  20.254  0.00  0.00    +0.000 N 
ATOM      9  C   UNL     1       0.541   8.325  21.342  0.00  0.00    +0.000 A 
ATOM     10  C   UNL     1       1.177   7.105  21.197  0.00  0.00    +0.000 A 
ATOM     11  C   UNL     1       1.947   7.128  20.016  0.00  0.00    +0.000 A 
ATOM     12  C   UNL     1       2.792   6.185  19.394  0.00  0.00    +0.000 A 
ATOM     13  C   UNL     1       3.415   6.496  18.185  0.00  0.00    +0.000 A 
ATOM     14  C   UNL     1       3.201   7.731  17.586  0.00  0.00    +0.000 A 
ATOM     15  C   UNL     1       2.373   8.683  18.188  0.00  0.00    +0.000 A 
ATOM     16  C   UNL     1       1.761   8.382  19.426  0.00  0.00    +0.000 A 
ATOM     17  N   UNL     1      -0.578  11.004  20.613  0.00  0.00    +0.000 NA
ATOM     18  C   UNL     1      -0.866  12.305  20.408  0.00  0.00    +0.000 A 
ATOM     19  C   UNL     1       2.057  13.312  18.250  0.00  0.00    +0.000 C 
ENDROOT
BRANCH  18  20
ATOM     20  N   UNL     1      -2.076  12.816  20.862  0.00  0.00    +0.000 N 
ATOM     21  H   UNL     1      -2.422  13.604  20.332  0.00  0.00    +0.000 HD
BRANCH  20  22
ATOM     22  C   UNL     1      -2.323  12.915  22.289  0.00  0.00    +0.000 C 
BRANCH  22  23
ATOM     23  C   UNL     1      -3.816  12.828  22.520  0.00  0.00    +0.000 A 
ATOM     24  C   UNL     1      -4.325  12.887  23.829  0.00  0.00    +0.000 A 
ATOM     25  C   UNL     1      -5.697  12.842  24.066  0.00  0.00    +0.000 A 
ATOM     26  C   UNL     1      -6.581  12.752  22.995  0.00  0.00    +0.000 A 
ATOM     27  C   UNL     1      -6.092  12.705  21.689  0.00  0.00    +0.000 A 
ATOM     28  C   UNL     1      -4.715  12.744  21.451  0.00  0.00    +0.000 A 
ENDBRANCH  22  23
ENDBRANCH  20  22
ENDBRANCH  18  20
BRANCH   1  29
ATOM     29  C   UNL     1       3.060  15.490  17.843  0.00  0.00    +0.000 C 
BRANCH  29  30
ATOM     30  C   UNL     1       2.943  17.028  17.992  0.00  0.00    +0.000 C 
BRANCH  30  32
ATOM     31  C   UNL     1       1.231  18.240  16.812  0.00  0.00    +0.000 C 
ATOM     32  N   UNL     1       2.567  17.659  16.720  0.00  0.00    +0.000 NA
ATOM     33  H   UNL     1       3.237  18.394  16.494  0.00  0.00    +0.000 HD
ENDBRANCH  30  32
ENDBRANCH  29  30
ENDBRANCH   1  29
BRANCH   9  34
ATOM     34  C   UNL     1      -0.285   8.758  22.501  0.00  0.00    +0.000 C 
BRANCH  34  35
ATOM     35  N   UNL     1       0.491   9.643  23.353  0.00  0.00    +0.000 NA
ATOM     36  H   UNL     1       1.449   9.652  23.010  0.00  0.00    +0.000 HD
ATOM     37  H   UNL     1       0.523   9.252  24.292  0.00  0.00    +0.000 HD
ENDBRANCH  34  35
ENDBRANCH   9  34
TORSDOF 8
ENDMDL
MODEL 4
REMARK VINA RESULT:      -6.9      1.991      2.500
REMARK  Name = 
REMARK  9 active torsions:
REMARK  status: ('A' for Active; 'I' for Inactive)
REMARK    1  A    between atoms: C_1  and  N_2
REMARK    2  A    between atoms: N_2  and  C_3
REMARK    3  A    between atoms: C_3  and  C_4
REMARK    4  A    between atoms: C_4  and  N_5
REMARK    5  A    between atoms: C_13  and  C_14
REMARK    6  A    between atoms: C_14  and  N_15
REMARK    7  A    between atoms: C_24  and  N_25
REMARK    8  A    between atoms: N_25  and  C_26
REMARK    9  A    between atoms: C_26  and  C_27
REMARK                            x       y       z     vdW  Elec       q    Type
REMARK                         _______ _______ _______ _____ _____    ______ ____
ROOT
ATOM      1  N   UNL     1       0.204  15.434  18.755  0.00  0.00    +0.000 NA
ATOM      2  C   UNL     1      -0.472  15.845  19.996  0.00  0.00    +0.000 C 
ATOM      3  C   UNL     1      -1.606  14.892  20.404  0.00  0.00    +0.000 C 
ATOM      4  C   UNL     1      -1.125  13.473  20.493  0.00  0.00    +0.000 A 
ATOM      5  C   UNL     1      -0.068  13.072  19.706  0.00  0.00    +0.000 A 
ATOM      6  N   UNL     1       0.397  11.812  19.710  0.00  0.00    +0.000 NA
ATOM      7  C   UNL     1      -0.189  10.927  20.527  0.00  0.00    +0.000 A 
ATOM      8  N   UNL     1       0.397   9.606  20.588  0.00  0.00    +0.000 N 
ATOM      9  C   UNL     1       0.304   8.688  21.640  0.00  0.00    +0.000 A 
ATOM     10  C   UNL     1       1.067   7.583  21.305  0.00  0.00    +0.000 A 
ATOM     11  C   UNL     1       1.649   7.797  20.039  0.00  0.00    +0.000 A 
ATOM     12  C   UNL     1       2.511   7.028  19.229  0.00  0.00    +0.000 A 
ATOM     13  C   UNL     1       2.907   7.507  17.980  0.00  0.00    +0.000 A 
ATOM     14  C   UNL     1       2.449   8.736  17.526  0.00  0.00    +0.000 A 
ATOM     15  C   UNL     1       1.598   9.518  18.314  0.00  0.00    +0.000 A 
ATOM     16  C   UNL     1       1.217   9.049  19.591  0.00  0.00    +0.000 A 
ATOM     17  N   UNL     1      -1.250  11.225  21.304  0.00  0.00    +0.000 NA
ATOM     18  C   UNL     1      -1.733  12.482  21.255  0.00  0.00    +0.000 A 
ATOM     19  C   UNL     1       0.690  14.040  18.823  0.00  0.00    +0.000 C 
ENDROOT
BRANCH  18  20
ATOM     20  N   UNL     1      -2.921  12.784  21.909  0.00  0.00    +0.000 N 
ATOM     21  H   UNL     1      -3.401  13.598  21.550  0.00  0.00    +0.000 HD
BRANCH  20  22
ATOM     22  C   UNL     1      -3.002  12.643  23.352  0.00  0.00    +0.000 C 
BRANCH  22  23
ATOM     23  C   UNL     1      -2.867  14.017  23.971  0.00  0.00    +0.000 A 
ATOM     24  C   UNL     1      -1.590  14.530  24.260  0.00  0.00    +0.000 A 
ATOM     25  C   UNL     1      -1.437  15.805  24.801  0.00  0.00    +0.000 A 
ATOM     26  C   UNL     1      -2.558  16.591  25.046  0.00  0.00    +0.000 A 
ATOM     27  C   UNL     1      -3.831  16.100  24.754  0.00  0.00    +0.000 A 
ATOM     28  C   UNL     1      -3.987  14.819  24.218  0.00  0.00    +0.000 A 
ENDBRANCH  22  23
ENDBRANCH  20  22
ENDBRANCH  18  20
BRANCH   1  29
ATOM     29  C   UNL     1       1.330  16.361  18.478  0.00  0.00    +0.000 C 
BRANCH  29  30
ATOM     30  C   UNL     1       0.986  17.865  18.620  0.00  0.00    +0.000 C 
BRANCH  30  32
ATOM     31  C   UNL     1       0.544  18.465  16.332  0.00  0.00    +0.000 C 
ATOM     32  N   UNL     1       1.457  18.630  17.458  0.00  0.00    +0.000 NA
ATOM     33  H   UNL     1       1.512  19.620  17.703  0.00  0.00    +0.000 HD
ENDBRANCH  30  32
ENDBRANCH  29  30
ENDBRANCH   1  29
BRANCH   9  34
ATOM     34  C   UNL     1      -0.396   8.918  22.933  0.00  0.00    +0.000 C 
BRANCH  34  35
ATOM     35  N   UNL     1       0.347   9.881  23.728  0.00  0.00    +0.000 NA
ATOM     36  H   UNL     1       0.507   9.473  24.647  0.00  0.00    +0.000 HD
ATOM     37  H   UNL     1      -0.232  10.704  23.873  0.00  0.00    +0.000 HD
ENDBRANCH  34  35
ENDBRANCH   9  34
TORSDOF 8
ENDMDL
MODEL 5
REMARK VINA RESULT:      -6.8      3.430      8.838
REMARK  Name = 
REMARK  9 active torsions:
REMARK  status: ('A' for Active; 'I' for Inactive)
REMARK    1  A    between atoms: C_1  and  N_2
REMARK    2  A    between atoms: N_2  and  C_3
REMARK    3  A    between atoms: C_3  and  C_4
REMARK    4  A    between atoms: C_4  and  N_5
REMARK    5  A    between atoms: C_13  and  C_14
REMARK    6  A    between atoms: C_14  and  N_15
REMARK    7  A    between atoms: C_24  and  N_25
REMARK    8  A    between atoms: N_25  and  C_26
REMARK    9  A    between atoms: C_26  and  C_27
REMARK                            x       y       z     vdW  Elec       q    Type
REMARK                         _______ _______ _______ _____ _____    ______ ____
ROOT
ATOM      1  N   UNL     1       5.060   6.381  16.666  0.00  0.00    +0.000 NA
ATOM      2  C   UNL     1       4.521   5.120  17.198  0.00  0.00    +0.000 C 
ATOM      3  C   UNL     1       4.214   5.187  18.702  0.00  0.00    +0.000 C 
ATOM      4  C   UNL     1       3.313   6.342  19.028  0.00  0.00    +0.000 A 
ATOM      5  C   UNL     1       3.342   7.463  18.227  0.00  0.00    +0.000 A 
ATOM      6  N   UNL     1       2.587   8.546  18.473  0.00  0.00    +0.000 NA
ATOM      7  C   UNL     1       1.767   8.513  19.531  0.00  0.00    +0.000 A 
ATOM      8  N   UNL     1       0.890   9.650  19.713  0.00  0.00    +0.000 N 
ATOM      9  C   UNL     1      -0.328   9.675  20.401  0.00  0.00    +0.000 A 
ATOM     10  C   UNL     1      -0.862  10.945  20.269  0.00  0.00    +0.000 A 
ATOM     11  C   UNL     1       0.017  11.731  19.495  0.00  0.00    +0.000 A 
ATOM     12  C   UNL     1      -0.024  13.067  19.043  0.00  0.00    +0.000 A 
ATOM     13  C   UNL     1       1.033  13.583  18.295  0.00  0.00    +0.000 A 
ATOM     14  C   UNL     1       2.132  12.789  17.997  0.00  0.00    +0.000 A 
ATOM     15  C   UNL     1       2.192  11.461  18.430  0.00  0.00    +0.000 A 
ATOM     16  C   UNL     1       1.111  10.926  19.165  0.00  0.00    +0.000 A 
ATOM     17  N   UNL     1       1.700   7.474  20.387  0.00  0.00    +0.000 NA
ATOM     18  C   UNL     1       2.498   6.413  20.151  0.00  0.00    +0.000 A 
ATOM     19  C   UNL     1       4.184   7.532  16.971  0.00  0.00    +0.000 C 
ENDROOT
BRANCH  18  20
ATOM     20  N   UNL     1       2.582   5.398  21.097  0.00  0.00    +0.000 N 
ATOM     21  H   UNL     1       3.526   5.140  21.350  0.00  0.00    +0.000 HD
BRANCH  20  22
ATOM     22  C   UNL     1       1.665   4.275  21.027  0.00  0.00    +0.000 C 
BRANCH  22  23
ATOM     23  C   UNL     1       2.251   3.241  20.090  0.00  0.00    +0.000 A 
ATOM     24  C   UNL     1       1.641   3.000  18.846  0.00  0.00    +0.000 A 
ATOM     25  C   UNL     1       2.179   2.077  17.952  0.00  0.00    +0.000 A 
ATOM     26  C   UNL     1       3.344   1.391  18.284  0.00  0.00    +0.000 A 
ATOM     27  C   UNL     1       3.967   1.627  19.510  0.00  0.00    +0.000 A 
ATOM     28  C   UNL     1       3.425   2.549  20.410  0.00  0.00    +0.000 A 
ENDBRANCH  22  23
ENDBRANCH  20  22
ENDBRANCH  18  20
BRANCH   1  29
ATOM     29  C   UNL     1       5.253   6.252  15.200  0.00  0.00    +0.000 C 
BRANCH  29  30
ATOM     30  C   UNL     1       6.025   4.987  14.752  0.00  0.00    +0.000 C 
BRANCH  30  32
ATOM     31  C   UNL     1       7.773   5.279  13.125  0.00  0.00    +0.000 C 
ATOM     32  N   UNL     1       7.450   5.276  14.548  0.00  0.00    +0.000 NA
ATOM     33  H   UNL     1       7.672   6.191  14.944  0.00  0.00    +0.000 HD
ENDBRANCH  30  32
ENDBRANCH  29  30
ENDBRANCH   1  29
BRANCH   9  34
ATOM     34  C   UNL     1      -0.981   8.508  21.054  0.00  0.00    +0.000 C 
BRANCH  34  35
ATOM     35  N   UNL     1      -0.640   8.480  22.466  0.00  0.00    +0.000 NA
ATOM     36  H   UNL     1      -1.319   9.051  22.965  0.00  0.00    +0.000 HD
ATOM     37  H   UNL     1       0.265   8.926  22.595  0.00  0.00    +0.000 HD
ENDBRANCH  34  35
ENDBRANCH   9  34
TORSDOF 8
ENDMDL
MODEL 6
REMARK VINA RESULT:      -6.8      2.223      7.180
REMARK  Name = 
REMARK  9 active torsions:
REMARK  status: ('A' for Active; 'I' for Inactive)
REMARK    1  A    between atoms: C_1  and  N_2
REMARK    2  A    between atoms: N_2  and  C_3
REMARK    3  A    between atoms: C_3  and  C_4
REMARK    4  A    between atoms: C_4  and  N_5
REMARK    5  A    between atoms: C_13  and  C_14
REMARK    6  A    between atoms: C_14  and  N_15
REMARK    7  A    between atoms: C_24  and  N_25
REMARK    8  A    between atoms: N_25  and  C_26
REMARK    9  A    between atoms: C_26  and  C_27
REMARK                            x       y       z     vdW  Elec       q    Type
REMARK                         _______ _______ _______ _____ _____    ______ ____
ROOT
ATOM      1  N   UNL     1       1.651  15.065  19.689  0.00  0.00    +0.000 NA
ATOM      2  C   UNL     1       2.443  14.215  18.786  0.00  0.00    +0.000 C 
ATOM      3  C   UNL     1       2.209  12.715  19.018  0.00  0.00    +0.000 C 
ATOM      4  C   UNL     1       0.751  12.368  18.950  0.00  0.00    +0.000 A 
ATOM      5  C   UNL     1      -0.183  13.324  19.287  0.00  0.00    +0.000 A 
ATOM      6  N   UNL     1      -1.503  13.078  19.279  0.00  0.00    +0.000 NA
ATOM      7  C   UNL     1      -1.913  11.857  18.909  0.00  0.00    +0.000 A 
ATOM      8  N   UNL     1      -3.342  11.651  18.809  0.00  0.00    +0.000 N 
ATOM      9  C   UNL     1      -4.004  10.694  18.032  0.00  0.00    +0.000 A 
ATOM     10  C   UNL     1      -5.365  10.895  18.184  0.00  0.00    +0.000 A 
ATOM     11  C   UNL     1      -5.571  11.982  19.058  0.00  0.00    +0.000 A 
ATOM     12  C   UNL     1      -6.728  12.622  19.549  0.00  0.00    +0.000 A 
ATOM     13  C   UNL     1      -6.611  13.686  20.444  0.00  0.00    +0.000 A 
ATOM     14  C   UNL     1      -5.358  14.114  20.861  0.00  0.00    +0.000 A 
ATOM     15  C   UNL     1      -4.197  13.499  20.383  0.00  0.00    +0.000 A 
ATOM     16  C   UNL     1      -4.310  12.439  19.455  0.00  0.00    +0.000 A 
ATOM     17  N   UNL     1      -1.069  10.853  18.598  0.00  0.00    +0.000 NA
ATOM     18  C   UNL     1       0.254  11.104  18.655  0.00  0.00    +0.000 A 
ATOM     19  C   UNL     1       0.210  14.744  19.633  0.00  0.00    +0.000 C 
ENDROOT
BRANCH  18  20
ATOM     20  N   UNL     1       1.155  10.056  18.505  0.00  0.00    +0.000 N 
ATOM     21  H   UNL     1       1.232   9.703  17.561  0.00  0.00    +0.000 HD
BRANCH  20  22
ATOM     22  C   UNL     1       1.236   9.027  19.526  0.00  0.00    +0.000 C 
BRANCH  22  23
ATOM     23  C   UNL     1       2.164   7.939  19.031  0.00  0.00    +0.000 A 
ATOM     24  C   UNL     1       2.889   8.128  17.841  0.00  0.00    +0.000 A 
ATOM     25  C   UNL     1       3.775   7.155  17.381  0.00  0.00    +0.000 A 
ATOM     26  C   UNL     1       3.959   5.986  18.112  0.00  0.00    +0.000 A 
ATOM     27  C   UNL     1       3.255   5.789  19.301  0.00  0.00    +0.000 A 
ATOM     28  C   UNL     1       2.362   6.762  19.760  0.00  0.00    +0.000 A 
ENDBRANCH  22  23
ENDBRANCH  20  22
ENDBRANCH  18  20
BRANCH   1  29
ATOM     29  C   UNL     1       1.877  16.492  19.345  0.00  0.00    +0.000 C 
BRANCH  29  30
ATOM     30  C   UNL     1       2.890  16.733  18.199  0.00  0.00    +0.000 C 
BRANCH  30  32
ATOM     31  C   UNL     1       0.957  17.985  17.503  0.00  0.00    +0.000 C 
ATOM     32  N   UNL     1       2.331  17.622  17.172  0.00  0.00    +0.000 NA
ATOM     33  H   UNL     1       2.896  18.470  17.111  0.00  0.00    +0.000 HD
ENDBRANCH  30  32
ENDBRANCH  29  30
ENDBRANCH   1  29
BRANCH   9  34
ATOM     34  C   UNL     1      -3.353   9.717  17.118  0.00  0.00    +0.000 C 
BRANCH  34  35
ATOM     35  N   UNL     1      -3.349  10.240  15.763  0.00  0.00    +0.000 NA
ATOM     36  H   UNL     1      -3.402   9.453  15.120  0.00  0.00    +0.000 HD
ATOM     37  H   UNL     1      -2.456  10.697  15.589  0.00  0.00    +0.000 HD
ENDBRANCH  34  35
ENDBRANCH   9  34
TORSDOF 8
ENDMDL
MODEL 7
REMARK VINA RESULT:      -6.8      1.329      2.101
REMARK  Name = 
REMARK  9 active torsions:
REMARK  status: ('A' for Active; 'I' for Inactive)
REMARK    1  A    between atoms: C_1  and  N_2
REMARK    2  A    between atoms: N_2  and  C_3
REMARK    3  A    between atoms: C_3  and  C_4
REMARK    4  A    between atoms: C_4  and  N_5
REMARK    5  A    between atoms: C_13  and  C_14
REMARK    6  A    between atoms: C_14  and  N_15
REMARK    7  A    between atoms: C_24  and  N_25
REMARK    8  A    between atoms: N_25  and  C_26
REMARK    9  A    between atoms: C_26  and  C_27
REMARK                            x       y       z     vdW  Elec       q    Type
REMARK                         _______ _______ _______ _____ _____    ______ ____
ROOT
ATOM      1  N   UNL     1       2.579  14.780  17.772  0.00  0.00    +0.000 NA
ATOM      2  C   UNL     1       1.813  15.494  18.805  0.00  0.00    +0.000 C 
ATOM      3  C   UNL     1       0.427  14.879  19.055  0.00  0.00    +0.000 C 
ATOM      4  C   UNL     1       0.524  13.415  19.366  0.00  0.00    +0.000 A 
ATOM      5  C   UNL     1       1.575  12.687  18.852  0.00  0.00    +0.000 A 
ATOM      6  N   UNL     1       1.711  11.368  19.063  0.00  0.00    +0.000 NA
ATOM      7  C   UNL     1       0.791  10.753  19.817  0.00  0.00    +0.000 A 
ATOM      8  N   UNL     1       1.017   9.355  20.114  0.00  0.00    +0.000 N 
ATOM      9  C   UNL     1       0.517   8.631  21.202  0.00  0.00    +0.000 A 
ATOM     10  C   UNL     1       1.035   7.350  21.131  0.00  0.00    +0.000 A 
ATOM     11  C   UNL     1       1.869   7.257  19.997  0.00  0.00    +0.000 A 
ATOM     12  C   UNL     1       2.649   6.215  19.454  0.00  0.00    +0.000 A 
ATOM     13  C   UNL     1       3.367   6.422  18.276  0.00  0.00    +0.000 A 
ATOM     14  C   UNL     1       3.311   7.650  17.629  0.00  0.00    +0.000 A 
ATOM     15  C   UNL     1       2.548   8.698  18.153  0.00  0.00    +0.000 A 
ATOM     16  C   UNL     1       1.842   8.501  19.361  0.00  0.00    +0.000 A 
ATOM     17  N   UNL     1      -0.288  11.379  20.330  0.00  0.00    +0.000 NA
ATOM     18  C   UNL     1      -0.433  12.694  20.071  0.00  0.00    +0.000 A 
ATOM     19  C   UNL     1       2.691  13.336  18.062  0.00  0.00    +0.000 C 
ENDROOT
BRANCH  18  20
ATOM     20  N   UNL     1      -1.610  13.336  20.438  0.00  0.00    +0.000 N 
ATOM     21  H   UNL     1      -1.474  14.205  20.938  0.00  0.00    +0.000 HD
BRANCH  20  22
ATOM     22  C   UNL     1      -2.736  12.554  20.914  0.00  0.00    +0.000 C 
BRANCH  22  23
ATOM     23  C   UNL     1      -3.748  12.447  19.794  0.00  0.00    +0.000 A 
ATOM     24  C   UNL     1      -3.444  11.691  18.648  0.00  0.00    +0.000 A 
ATOM     25  C   UNL     1      -4.371  11.550  17.618  0.00  0.00    +0.000 A 
ATOM     26  C   UNL     1      -5.621  12.151  17.725  0.00  0.00    +0.000 A 
ATOM     27  C   UNL     1      -5.941  12.896  18.861  0.00  0.00    +0.000 A 
ATOM     28  C   UNL     1      -5.011  13.043  19.893  0.00  0.00    +0.000 A 
ENDBRANCH  22  23
ENDBRANCH  20  22
ENDBRANCH  18  20
BRANCH   1  29
ATOM     29  C   UNL     1       3.927  15.390  17.651  0.00  0.00    +0.000 C 
BRANCH  29  30
ATOM     30  C   UNL     1       4.915  15.016  18.785  0.00  0.00    +0.000 C 
BRANCH  30  32
ATOM     31  C   UNL     1       5.302  15.849  21.008  0.00  0.00    +0.000 C 
ATOM     32  N   UNL     1       5.271  16.192  19.590  0.00  0.00    +0.000 NA
ATOM     33  H   UNL     1       6.190  16.533  19.308  0.00  0.00    +0.000 HD
ENDBRANCH  30  32
ENDBRANCH  29  30
ENDBRANCH   1  29
BRANCH   9  34
ATOM     34  C   UNL     1      -0.326   9.182  22.297  0.00  0.00    +0.000 C 
BRANCH  34  35
ATOM     35  N   UNL     1       0.515   9.853  23.274  0.00  0.00    +0.000 NA
ATOM     36  H   UNL     1       1.129  10.493  22.774  0.00  0.00    +0.000 HD
ATOM     37  H   UNL     1       1.116   9.164  23.720  0.00  0.00    +0.000 HD
ENDBRANCH  34  35
ENDBRANCH   9  34
TORSDOF 8
ENDMDL
MODEL 8
REMARK VINA RESULT:      -6.7      1.927      2.482
REMARK  Name = 
REMARK  9 active torsions:
REMARK  status: ('A' for Active; 'I' for Inactive)
REMARK    1  A    between atoms: C_1  and  N_2
REMARK    2  A    between atoms: N_2  and  C_3
REMARK    3  A    between atoms: C_3  and  C_4
REMARK    4  A    between atoms: C_4  and  N_5
REMARK    5  A    between atoms: C_13  and  C_14
REMARK    6  A    between atoms: C_14  and  N_15
REMARK    7  A    between atoms: C_24  and  N_25
REMARK    8  A    between atoms: N_25  and  C_26
REMARK    9  A    between atoms: C_26  and  C_27
REMARK                            x       y       z     vdW  Elec       q    Type
REMARK                         _______ _______ _______ _____ _____    ______ ____
ROOT
ATOM      1  N   UNL     1      -0.662  15.835  19.054  0.00  0.00    +0.000 NA
ATOM      2  C   UNL     1      -1.315  16.157  20.333  0.00  0.00    +0.000 C 
ATOM      3  C   UNL     1      -2.351  15.104  20.757  0.00  0.00    +0.000 C 
ATOM      4  C   UNL     1      -1.756  13.727  20.782  0.00  0.00    +0.000 A 
ATOM      5  C   UNL     1      -0.704  13.434  19.942  0.00  0.00    +0.000 A 
ATOM      6  N   UNL     1      -0.141  12.216  19.888  0.00  0.00    +0.000 NA
ATOM      7  C   UNL     1      -0.619  11.265  20.700  0.00  0.00    +0.000 A 
ATOM      8  N   UNL     1       0.072   9.994  20.696  0.00  0.00    +0.000 N 
ATOM      9  C   UNL     1       0.097   9.043  21.722  0.00  0.00    +0.000 A 
ATOM     10  C   UNL     1       0.931   8.013  21.324  0.00  0.00    +0.000 A 
ATOM     11  C   UNL     1       1.440   8.308  20.042  0.00  0.00    +0.000 A 
ATOM     12  C   UNL     1       2.326   7.634  19.175  0.00  0.00    +0.000 A 
ATOM     13  C   UNL     1       2.629   8.178  17.927  0.00  0.00    +0.000 A 
ATOM     14  C   UNL     1       2.056   9.378  17.530  0.00  0.00    +0.000 A 
ATOM     15  C   UNL     1       1.180  10.066  18.375  0.00  0.00    +0.000 A 
ATOM     16  C   UNL     1       0.891   9.533  19.651  0.00  0.00    +0.000 A 
ATOM     17  N   UNL     1      -1.667  11.454  21.528  0.00  0.00    +0.000 NA
ATOM     18  C   UNL     1      -2.250  12.669  21.536  0.00  0.00    +0.000 A 
ATOM     19  C   UNL     1      -0.063  14.484  19.059  0.00  0.00    +0.000 C 
ENDROOT
BRANCH  18  20
ATOM     20  N   UNL     1      -3.430  12.855  22.247  0.00  0.00    +0.000 N 
ATOM     21  H   UNL     1      -4.056  13.541  21.846  0.00  0.00    +0.000 HD
BRANCH  20  22
ATOM     22  C   UNL     1      -3.400  12.866  23.698  0.00  0.00    +0.000 C 
BRANCH  22  23
ATOM     23  C   UNL     1      -3.693  14.274  24.169  0.00  0.00    +0.000 A 
ATOM     24  C   UNL     1      -2.727  14.979  24.910  0.00  0.00    +0.000 A 
ATOM     25  C   UNL     1      -2.960  16.287  25.327  0.00  0.00    +0.000 A 
ATOM     26  C   UNL     1      -4.157  16.916  24.996  0.00  0.00    +0.000 A 
ATOM     27  C   UNL     1      -5.120  16.234  24.252  0.00  0.00    +0.000 A 
ATOM     28  C   UNL     1      -4.890  14.919  23.838  0.00  0.00    +0.000 A 
ENDBRANCH  22  23
ENDBRANCH  20  22
ENDBRANCH  18  20
BRANCH   1  29
ATOM     29  C   UNL     1       0.374  16.858  18.761  0.00  0.00    +0.000 C 
BRANCH  29  30
ATOM     30  C   UNL     1       1.825  16.431  19.097  0.00  0.00    +0.000 C 
BRANCH  30  32
ATOM     31  C   UNL     1       3.489  15.979  17.420  0.00  0.00    +0.000 C 
ATOM     32  N   UNL     1       2.786  17.024  18.158  0.00  0.00    +0.000 NA
ATOM     33  H   UNL     1       2.290  17.624  17.498  0.00  0.00    +0.000 HD
ENDBRANCH  30  32
ENDBRANCH  29  30
ENDBRANCH   1  29
BRANCH   9  34
ATOM     34  C   UNL     1      -0.563   9.180  23.049  0.00  0.00    +0.000 C 
BRANCH  34  35
ATOM     35  N   UNL     1       0.407   9.617  24.038  0.00  0.00    +0.000 NA
ATOM     36  H   UNL     1       1.298   9.755  23.566  0.00  0.00    +0.000 HD
ATOM     37  H   UNL     1       0.549   8.868  24.712  0.00  0.00    +0.000 HD
ENDBRANCH  34  35
ENDBRANCH   9  34
TORSDOF 8
ENDMDL
MODEL 9
REMARK VINA RESULT:      -6.7      0.917      1.343
REMARK  Name = 
REMARK  9 active torsions:
REMARK  status: ('A' for Active; 'I' for Inactive)
REMARK    1  A    between atoms: C_1  and  N_2
REMARK    2  A    between atoms: N_2  and  C_3
REMARK    3  A    between atoms: C_3  and  C_4
REMARK    4  A    between atoms: C_4  and  N_5
REMARK    5  A    between atoms: C_13  and  C_14
REMARK    6  A    between atoms: C_14  and  N_15
REMARK    7  A    between atoms: C_24  and  N_25
REMARK    8  A    between atoms: N_25  and  C_26
REMARK    9  A    between atoms: C_26  and  C_27
REMARK                            x       y       z     vdW  Elec       q    Type
REMARK                         _______ _______ _______ _____ _____    ______ ____
ROOT
ATOM      1  N   UNL     1       1.270  15.300  18.448  0.00  0.00    +0.000 NA
ATOM      2  C   UNL     1       0.540  15.832  19.610  0.00  0.00    +0.000 C 
ATOM      3  C   UNL     1      -0.730  15.032  19.937  0.00  0.00    +0.000 C 
ATOM      4  C   UNL     1      -0.431  13.571  20.107  0.00  0.00    +0.000 A 
ATOM      5  C   UNL     1       0.637  13.022  19.432  0.00  0.00    +0.000 A 
ATOM      6  N   UNL     1       0.947  11.717  19.511  0.00  0.00    +0.000 NA
ATOM      7  C   UNL     1       0.190  10.937  20.293  0.00  0.00    +0.000 A 
ATOM      8  N   UNL     1       0.608   9.560  20.442  0.00  0.00    +0.000 N 
ATOM      9  C   UNL     1       0.314   8.698  21.505  0.00  0.00    +0.000 A 
ATOM     10  C   UNL     1       0.968   7.501  21.271  0.00  0.00    +0.000 A 
ATOM     11  C   UNL     1       1.681   7.600  20.058  0.00  0.00    +0.000 A 
ATOM     12  C   UNL     1       2.515   6.707  19.352  0.00  0.00    +0.000 A 
ATOM     13  C   UNL     1       3.073   7.091  18.133  0.00  0.00    +0.000 A 
ATOM     14  C   UNL     1       2.807   8.348  17.606  0.00  0.00    +0.000 A 
ATOM     15  C   UNL     1       1.988   9.251  18.292  0.00  0.00    +0.000 A 
ATOM     16  C   UNL     1       1.442   8.876  19.540  0.00  0.00    +0.000 A 
ATOM     17  N   UNL     1      -0.893  11.383  20.961  0.00  0.00    +0.000 NA
ATOM     18  C   UNL     1      -1.217  12.686  20.835  0.00  0.00    +0.000 A 
ATOM     19  C   UNL     1       1.580  13.863  18.597  0.00  0.00    +0.000 C 
ENDROOT
BRANCH  18  20
ATOM     20  N   UNL     1      -2.414  13.146  21.368  0.00  0.00    +0.000 N 
ATOM     21  H   UNL     1      -2.484  13.060  22.374  0.00  0.00    +0.000 HD
BRANCH  20  22
ATOM     22  C   UNL     1      -3.659  12.887  20.669  0.00  0.00    +0.000 C 
BRANCH  22  23
ATOM     23  C   UNL     1      -4.773  12.818  21.691  0.00  0.00    +0.000 A 
ATOM     24  C   UNL     1      -6.076  12.479  21.283  0.00  0.00    +0.000 A 
ATOM     25  C   UNL     1      -7.112  12.378  22.208  0.00  0.00    +0.000 A 
ATOM     26  C   UNL     1      -6.857  12.600  23.558  0.00  0.00    +0.000 A 
ATOM     27  C   UNL     1      -5.568  12.926  23.980  0.00  0.00    +0.000 A 
ATOM     28  C   UNL     1      -4.529  13.034  23.052  0.00  0.00    +0.000 A 
ENDBRANCH  22  23
ENDBRANCH  20  22
ENDBRANCH  18  20
BRANCH   1  29
ATOM     29  C   UNL     1       2.518  16.080  18.253  0.00  0.00    +0.000 C 
BRANCH  29  30
ATOM     30  C   UNL     1       3.763  15.510  18.976  0.00  0.00    +0.000 C 
BRANCH  30  32
ATOM     31  C   UNL     1       3.838  17.363  20.510  0.00  0.00    +0.000 C 
ATOM     32  N   UNL     1       4.594  16.586  19.533  0.00  0.00    +0.000 NA
ATOM     33  H   UNL     1       5.413  16.182  19.988  0.00  0.00    +0.000 HD
ENDBRANCH  30  32
ENDBRANCH  29  30
ENDBRANCH   1  29
BRANCH   9  34
ATOM     34  C   UNL     1      -0.465   9.055  22.721  0.00  0.00    +0.000 C 
BRANCH  34  35
ATOM     35  N   UNL     1       0.371   9.815  23.634  0.00  0.00    +0.000 NA
ATOM     36  H   UNL     1       1.161   9.230  23.900  0.00  0.00    +0.000 HD
ATOM     37  H   UNL     1      -0.154   9.998  24.486  0.00  0.00    +0.000 HD
ENDBRANCH  34  35
ENDBRANCH   9  34
TORSDOF 8
ENDMDL
