MODEL 1
REMARK VINA RESULT:      -7.1      0.000      0.000
REMARK  Name = 
REMARK  6 active torsions:
REMARK  status: ('A' for Active; 'I' for Inactive)
REMARK    1  A    between atoms: C_1  and  C_2
REMARK    2  A    between atoms: C_2  and  N_3
REMARK    3  A    between atoms: N_6  and  C_7
REMARK    4  A    between atoms: C_7  and  C_8
REMARK    5  A    between atoms: C_8  and  C_9
REMARK    6  A    between atoms: N_11  and  C_12
REMARK                            x       y       z     vdW  Elec       q    Type
REMARK                         _______ _______ _______ _____ _____    ______ ____
ROOT
ATOM      1  C   UNL     1       7.950   8.335  17.978  0.00  0.00    +0.000 C 
ATOM      2  O   UNL     1       8.446   7.550  18.768  0.00  0.00    +0.000 OA
ATOM      3  N   UNL     1       6.940   7.974  17.128  0.00  0.00    +0.000 N 
ATOM      4  H   UNL     1       6.639   8.678  16.434  0.00  0.00    +0.000 HD
ENDROOT
BRANCH   3   5
ATOM      5  C   UNL     1       6.328   6.685  17.045  0.00  0.00    +0.000 A 
ATOM      6  C   UNL     1       6.977   5.542  16.493  0.00  0.00    +0.000 A 
ATOM      7  C   UNL     1       6.308   4.313  16.398  0.00  0.00    +0.000 A 
ATOM      8  C   UNL     1       5.003   4.249  16.855  0.00  0.00    +0.000 A 
ATOM      9  C   UNL     1       4.377   5.310  17.398  0.00  0.00    +0.000 A 
ATOM     10  C   UNL     1       5.000   6.547  17.525  0.00  0.00    +0.000 A 
ATOM     11  O   UNL     1       3.133   4.959  17.740  0.00  0.00    +0.000 OA
ATOM     12  C   UNL     1       2.967   3.622  17.391  0.00  0.00    +0.000 C 
ATOM     13  O   UNL     1       4.175   3.204  16.842  0.00  0.00    +0.000 OA
ENDBRANCH   3   5
BRANCH   1  14
ATOM     14  C   UNL     1       8.536   9.705  17.884  0.00  0.00    +0.000 C 
BRANCH  14  15
ATOM     15  C   UNL     1       9.307  10.066  19.160  0.00  0.00    +0.000 C 
BRANCH  15  19
ATOM     16  N   UNL     1      12.065  12.536  18.682  0.00  0.00    +0.000 NA
ATOM     17  C   UNL     1      11.806  11.761  19.912  0.00  0.00    +0.000 C 
ATOM     18  C   UNL     1      10.357  11.956  20.388  0.00  0.00    +0.000 C 
ATOM     19  N   UNL     1       9.383  11.532  19.351  0.00  0.00    +0.000 NA
ATOM     20  C   UNL     1       9.645  12.239  18.077  0.00  0.00    +0.000 C 
ATOM     21  C   UNL     1      11.121  12.107  17.625  0.00  0.00    +0.000 C 
BRANCH  16  23
ATOM     22  C   UNL     1      12.265  14.783  17.565  0.00  0.00    +0.000 C 
ATOM     23  C   UNL     1      12.045  14.011  18.868  0.00  0.00    +0.000 C 
ENDBRANCH  16  23
ENDBRANCH  15  19
ENDBRANCH  14  15
ENDBRANCH   1  14
TORSDOF 5
ENDMDL
MODEL 2
REMARK VINA RESULT:      -6.9      5.583      8.137
REMARK  Name = 
REMARK  6 active torsions:
REMARK  status: ('A' for Active; 'I' for Inactive)
REMARK    1  A    between atoms: C_1  and  C_2
REMARK    2  A    between atoms: C_2  and  N_3
REMARK    3  A    between atoms: N_6  and  C_7
REMARK    4  A    between atoms: C_7  and  C_8
REMARK    5  A    between atoms: C_8  and  C_9
REMARK    6  A    between atoms: N_11  and  C_12
REMARK                            x       y       z     vdW  Elec       q    Type
REMARK                         _______ _______ _______ _____ _____    ______ ____
ROOT
ATOM      1  C   UNL     1       2.850   5.768  19.190  0.00  0.00    +0.000 C 
ATOM      2  O   UNL     1       2.180   5.593  18.188  0.00  0.00    +0.000 OA
ATOM      3  N   UNL     1       2.776   6.919  19.925  0.00  0.00    +0.000 N 
ATOM      4  H   UNL     1       3.442   7.017  20.710  0.00  0.00    +0.000 HD
ENDROOT
BRANCH   3   5
ATOM      5  C   UNL     1       1.931   8.040  19.654  0.00  0.00    +0.000 A 
ATOM      6  C   UNL     1       1.883   8.699  18.391  0.00  0.00    +0.000 A 
ATOM      7  C   UNL     1       1.066   9.822  18.198  0.00  0.00    +0.000 A 
ATOM      8  C   UNL     1       0.313  10.267  19.271  0.00  0.00    +0.000 A 
ATOM      9  C   UNL     1       0.328   9.649  20.467  0.00  0.00    +0.000 A 
ATOM     10  C   UNL     1       1.113   8.526  20.706  0.00  0.00    +0.000 A 
ATOM     11  O   UNL     1      -0.483  10.300  21.308  0.00  0.00    +0.000 OA
ATOM     12  C   UNL     1      -1.026  11.376  20.613  0.00  0.00    +0.000 C 
ATOM     13  O   UNL     1      -0.505  11.319  19.325  0.00  0.00    +0.000 OA
ENDBRANCH   3   5
BRANCH   1  14
ATOM     14  C   UNL     1       3.847   4.720  19.563  0.00  0.00    +0.000 C 
BRANCH  14  15
ATOM     15  C   UNL     1       5.280   5.199  19.297  0.00  0.00    +0.000 C 
BRANCH  15  19
ATOM     16  N   UNL     1       6.362   5.661  15.754  0.00  0.00    +0.000 NA
ATOM     17  C   UNL     1       5.037   5.180  16.195  0.00  0.00    +0.000 C 
ATOM     18  C   UNL     1       5.177   3.973  17.136  0.00  0.00    +0.000 C 
ATOM     19  N   UNL     1       5.978   4.313  18.339  0.00  0.00    +0.000 NA
ATOM     20  C   UNL     1       7.296   4.860  17.944  0.00  0.00    +0.000 C 
ATOM     21  C   UNL     1       7.167   6.032  16.939  0.00  0.00    +0.000 C 
BRANCH  16  23
ATOM     22  C   UNL     1       6.204   4.088  13.796  0.00  0.00    +0.000 C 
ATOM     23  C   UNL     1       7.095   4.720  14.868  0.00  0.00    +0.000 C 
ENDBRANCH  16  23
ENDBRANCH  15  19
ENDBRANCH  14  15
ENDBRANCH   1  14
TORSDOF 5
ENDMDL
MODEL 3
REMARK VINA RESULT:      -6.9      5.942      8.380
REMARK  Name = 
REMARK  6 active torsions:
REMARK  status: ('A' for Active; 'I' for Inactive)
REMARK    1  A    between atoms: C_1  and  C_2
REMARK    2  A    between atoms: C_2  and  N_3
REMARK    3  A    between atoms: N_6  and  C_7
REMARK    4  A    between atoms: C_7  and  C_8
REMARK    5  A    between atoms: C_8  and  C_9
REMARK    6  A    between atoms: N_11  and  C_12
REMARK                            x       y       z     vdW  Elec       q    Type
REMARK                         _______ _______ _______ _____ _____    ______ ____
ROOT
ATOM      1  C   UNL     1       2.447   5.466  20.068  0.00  0.00    +0.000 C 
ATOM      2  O   UNL     1       1.327   5.047  20.297  0.00  0.00    +0.000 OA
ATOM      3  N   UNL     1       2.728   6.804  20.006  0.00  0.00    +0.000 N 
ATOM      4  H   UNL     1       3.685   7.069  19.721  0.00  0.00    +0.000 HD
ENDROOT
BRANCH   3   5
ATOM      5  C   UNL     1       1.797   7.870  20.204  0.00  0.00    +0.000 A 
ATOM      6  C   UNL     1       1.112   8.096  21.435  0.00  0.00    +0.000 A 
ATOM      7  C   UNL     1       0.177   9.133  21.556  0.00  0.00    +0.000 A 
ATOM      8  C   UNL     1      -0.059   9.925  20.445  0.00  0.00    +0.000 A 
ATOM      9  C   UNL     1       0.590   9.743  19.280  0.00  0.00    +0.000 A 
ATOM     10  C   UNL     1       1.534   8.736  19.112  0.00  0.00    +0.000 A 
ATOM     11  O   UNL     1       0.156  10.642  18.390  0.00  0.00    +0.000 OA
ATOM     12  C   UNL     1      -0.812  11.419  19.021  0.00  0.00    +0.000 C 
ATOM     13  O   UNL     1      -0.915  10.941  20.323  0.00  0.00    +0.000 OA
ENDBRANCH   3   5
BRANCH   1  14
ATOM     14  C   UNL     1       3.520   4.475  19.756  0.00  0.00    +0.000 C 
BRANCH  14  15
ATOM     15  C   UNL     1       4.795   5.175  19.268  0.00  0.00    +0.000 C 
BRANCH  15  19
ATOM     16  N   UNL     1       6.617   4.454  16.090  0.00  0.00    +0.000 NA
ATOM     17  C   UNL     1       6.997   5.473  17.089  0.00  0.00    +0.000 C 
ATOM     18  C   UNL     1       5.822   6.423  17.378  0.00  0.00    +0.000 C 
ATOM     19  N   UNL     1       4.639   5.684  17.886  0.00  0.00    +0.000 NA
ATOM     20  C   UNL     1       4.259   4.606  16.944  0.00  0.00    +0.000 C 
ATOM     21  C   UNL     1       5.455   3.686  16.592  0.00  0.00    +0.000 C 
BRANCH  16  23
ATOM     22  C   UNL     1       6.181   3.894  13.675  0.00  0.00    +0.000 C 
ATOM     23  C   UNL     1       6.370   4.990  14.726  0.00  0.00    +0.000 C 
ENDBRANCH  16  23
ENDBRANCH  15  19
ENDBRANCH  14  15
ENDBRANCH   1  14
TORSDOF 5
ENDMDL
MODEL 4
REMARK VINA RESULT:      -6.8      6.074      8.074
REMARK  Name = 
REMARK  6 active torsions:
REMARK  status: ('A' for Active; 'I' for Inactive)
REMARK    1  A    between atoms: C_1  and  C_2
REMARK    2  A    between atoms: C_2  and  N_3
REMARK    3  A    between atoms: N_6  and  C_7
REMARK    4  A    between atoms: C_7  and  C_8
REMARK    5  A    between atoms: C_8  and  C_9
REMARK    6  A    between atoms: N_11  and  C_12
REMARK                            x       y       z     vdW  Elec       q    Type
REMARK                         _______ _______ _______ _____ _____    ______ ____
ROOT
ATOM      1  C   UNL     1       2.675   4.961  19.549  0.00  0.00    +0.000 C 
ATOM      2  O   UNL     1       1.606   4.697  19.028  0.00  0.00    +0.000 OA
ATOM      3  N   UNL     1       3.052   6.246  19.830  0.00  0.00    +0.000 N 
ATOM      4  H   UNL     1       4.010   6.384  20.192  0.00  0.00    +0.000 HD
ENDROOT
BRANCH   3   5
ATOM      5  C   UNL     1       2.282   7.424  19.582  0.00  0.00    +0.000 A 
ATOM      6  C   UNL     1       2.238   8.081  18.317  0.00  0.00    +0.000 A 
ATOM      7  C   UNL     1       1.499   9.260  18.146  0.00  0.00    +0.000 A 
ATOM      8  C   UNL     1       0.818   9.762  19.242  0.00  0.00    +0.000 A 
ATOM      9  C   UNL     1       0.829   9.149  20.440  0.00  0.00    +0.000 A 
ATOM     10  C   UNL     1       1.538   7.972  20.658  0.00  0.00    +0.000 A 
ATOM     11  O   UNL     1       0.098   9.860  21.305  0.00  0.00    +0.000 OA
ATOM     12  C   UNL     1      -0.389  10.971  20.622  0.00  0.00    +0.000 C 
ATOM     13  O   UNL     1       0.081  10.871  19.317  0.00  0.00    +0.000 OA
ENDBRANCH   3   5
BRANCH   1  14
ATOM     14  C   UNL     1       3.632   3.842  19.798  0.00  0.00    +0.000 C 
BRANCH  14  15
ATOM     15  C   UNL     1       4.972   4.094  19.095  0.00  0.00    +0.000 C 
BRANCH  15  19
ATOM     16  N   UNL     1       6.823   4.336  15.862  0.00  0.00    +0.000 NA
ATOM     17  C   UNL     1       7.171   5.046  17.109  0.00  0.00    +0.000 C 
ATOM     18  C   UNL     1       5.969   5.846  17.638  0.00  0.00    +0.000 C 
ATOM     19  N   UNL     1       4.806   4.963  17.908  0.00  0.00    +0.000 NA
ATOM     20  C   UNL     1       4.459   4.182  16.699  0.00  0.00    +0.000 C 
ATOM     21  C   UNL     1       5.682   3.428  16.117  0.00  0.00    +0.000 C 
BRANCH  16  23
ATOM     22  C   UNL     1       7.394   4.856  13.467  0.00  0.00    +0.000 C 
ATOM     23  C   UNL     1       6.565   5.224  14.699  0.00  0.00    +0.000 C 
ENDBRANCH  16  23
ENDBRANCH  15  19
ENDBRANCH  14  15
ENDBRANCH   1  14
TORSDOF 5
ENDMDL
MODEL 5
REMARK VINA RESULT:      -6.8      6.205      8.816
REMARK  Name = 
REMARK  6 active torsions:
REMARK  status: ('A' for Active; 'I' for Inactive)
REMARK    1  A    between atoms: C_1  and  C_2
REMARK    2  A    between atoms: C_2  and  N_3
REMARK    3  A    between atoms: N_6  and  C_7
REMARK    4  A    between atoms: C_7  and  C_8
REMARK    5  A    between atoms: C_8  and  C_9
REMARK    6  A    between atoms: N_11  and  C_12
REMARK                            x       y       z     vdW  Elec       q    Type
REMARK                         _______ _______ _______ _____ _____    ______ ____
ROOT
ATOM      1  C   UNL     1       2.076   5.843  20.375  0.00  0.00    +0.000 C 
ATOM      2  O   UNL     1       0.936   5.457  20.562  0.00  0.00    +0.000 OA
ATOM      3  N   UNL     1       2.399   7.173  20.344  0.00  0.00    +0.000 N 
ATOM      4  H   UNL     1       3.374   7.411  20.093  0.00  0.00    +0.000 HD
ENDROOT
BRANCH   3   5
ATOM      5  C   UNL     1       1.497   8.265  20.532  0.00  0.00    +0.000 A 
ATOM      6  C   UNL     1       0.936   9.014  19.456  0.00  0.00    +0.000 A 
ATOM      7  C   UNL     1       0.091  10.104  19.704  0.00  0.00    +0.000 A 
ATOM      8  C   UNL     1      -0.178  10.427  21.024  0.00  0.00    +0.000 A 
ATOM      9  C   UNL     1       0.324   9.723  22.055  0.00  0.00    +0.000 A 
ATOM     10  C   UNL     1       1.159   8.627  21.861  0.00  0.00    +0.000 A 
ATOM     11  O   UNL     1      -0.094  10.266  23.203  0.00  0.00    +0.000 OA
ATOM     12  C   UNL     1      -0.889  11.362  22.880  0.00  0.00    +0.000 C 
ATOM     13  O   UNL     1      -0.926  11.428  21.491  0.00  0.00    +0.000 OA
ENDBRANCH   3   5
BRANCH   1  14
ATOM     14  C   UNL     1       3.126   4.824  20.079  0.00  0.00    +0.000 C 
BRANCH  14  15
ATOM     15  C   UNL     1       4.377   5.477  19.478  0.00  0.00    +0.000 C 
BRANCH  15  19
ATOM     16  N   UNL     1       5.867   4.114  16.338  0.00  0.00    +0.000 NA
ATOM     17  C   UNL     1       6.434   5.203  17.159  0.00  0.00    +0.000 C 
ATOM     18  C   UNL     1       5.401   6.322  17.375  0.00  0.00    +0.000 C 
ATOM     19  N   UNL     1       4.181   5.811  18.049  0.00  0.00    +0.000 NA
ATOM     20  C   UNL     1       3.611   4.673  17.292  0.00  0.00    +0.000 C 
ATOM     21  C   UNL     1       4.664   3.572  17.008  0.00  0.00    +0.000 C 
BRANCH  16  23
ATOM     22  C   UNL     1       6.853   4.772  14.118  0.00  0.00    +0.000 C 
ATOM     23  C   UNL     1       5.586   4.489  14.927  0.00  0.00    +0.000 C 
ENDBRANCH  16  23
ENDBRANCH  15  19
ENDBRANCH  14  15
ENDBRANCH   1  14
TORSDOF 5
ENDMDL
MODEL 6
REMARK VINA RESULT:      -6.8      5.668      8.158
REMARK  Name = 
REMARK  6 active torsions:
REMARK  status: ('A' for Active; 'I' for Inactive)
REMARK    1  A    between atoms: C_1  and  C_2
REMARK    2  A    between atoms: C_2  and  N_3
REMARK    3  A    between atoms: N_6  and  C_7
REMARK    4  A    between atoms: C_7  and  C_8
REMARK    5  A    between atoms: C_8  and  C_9
REMARK    6  A    between atoms: N_11  and  C_12
REMARK                            x       y       z     vdW  Elec       q    Type
REMARK                         _______ _______ _______ _____ _____    ______ ____
ROOT
ATOM      1  C   UNL     1       2.702   5.339  19.733  0.00  0.00    +0.000 C 
ATOM      2  O   UNL     1       1.589   4.948  19.429  0.00  0.00    +0.000 OA
ATOM      3  N   UNL     1       2.948   6.638  20.084  0.00  0.00    +0.000 N 
ATOM      4  H   UNL     1       3.935   6.901  20.243  0.00  0.00    +0.000 HD
ENDROOT
BRANCH   3   5
ATOM      5  C   UNL     1       1.983   7.690  20.156  0.00  0.00    +0.000 A 
ATOM      6  C   UNL     1       1.184   7.944  21.310  0.00  0.00    +0.000 A 
ATOM      7  C   UNL     1       0.221   8.963  21.306  0.00  0.00    +0.000 A 
ATOM      8  C   UNL     1       0.072   9.708  20.149  0.00  0.00    +0.000 A 
ATOM      9  C   UNL     1       0.828   9.499  19.055  0.00  0.00    +0.000 A 
ATOM     10  C   UNL     1       1.804   8.508  19.013  0.00  0.00    +0.000 A 
ATOM     11  O   UNL     1       0.460  10.355  18.097  0.00  0.00    +0.000 OA
ATOM     12  C   UNL     1      -0.576  11.132  18.608  0.00  0.00    +0.000 C 
ATOM     13  O   UNL     1      -0.788  10.699  19.912  0.00  0.00    +0.000 OA
ENDBRANCH   3   5
BRANCH   1  14
ATOM     14  C   UNL     1       3.840   4.377  19.628  0.00  0.00    +0.000 C 
BRANCH  14  15
ATOM     15  C   UNL     1       5.141   5.099  19.255  0.00  0.00    +0.000 C 
BRANCH  15  19
ATOM     16  N   UNL     1       6.261   5.684  15.742  0.00  0.00    +0.000 NA
ATOM     17  C   UNL     1       4.984   5.062  16.148  0.00  0.00    +0.000 C 
ATOM     18  C   UNL     1       5.229   3.874  17.093  0.00  0.00    +0.000 C 
ATOM     19  N   UNL     1       5.957   4.295  18.316  0.00  0.00    +0.000 NA
ATOM     20  C   UNL     1       7.218   4.982  17.956  0.00  0.00    +0.000 C 
ATOM     21  C   UNL     1       6.989   6.137  16.948  0.00  0.00    +0.000 C 
BRANCH  16  23
ATOM     22  C   UNL     1       6.324   4.102  13.786  0.00  0.00    +0.000 C 
ATOM     23  C   UNL     1       7.114   4.829  14.876  0.00  0.00    +0.000 C 
ENDBRANCH  16  23
ENDBRANCH  15  19
ENDBRANCH  14  15
ENDBRANCH   1  14
TORSDOF 5
ENDMDL
MODEL 7
REMARK VINA RESULT:      -6.8      0.883      1.548
REMARK  Name = 
REMARK  6 active torsions:
REMARK  status: ('A' for Active; 'I' for Inactive)
REMARK    1  A    between atoms: C_1  and  C_2
REMARK    2  A    between atoms: C_2  and  N_3
REMARK    3  A    between atoms: N_6  and  C_7
REMARK    4  A    between atoms: C_7  and  C_8
REMARK    5  A    between atoms: C_8  and  C_9
REMARK    6  A    between atoms: N_11  and  C_12
REMARK                            x       y       z     vdW  Elec       q    Type
REMARK                         _______ _______ _______ _____ _____    ______ ____
ROOT
ATOM      1  C   UNL     1       7.953   8.236  17.943  0.00  0.00    +0.000 C 
ATOM      2  O   UNL     1       8.404   7.441  18.749  0.00  0.00    +0.000 OA
ATOM      3  N   UNL     1       6.942   7.905  17.081  0.00  0.00    +0.000 N 
ATOM      4  H   UNL     1       6.680   8.613  16.374  0.00  0.00    +0.000 HD
ENDROOT
BRANCH   3   5
ATOM      5  C   UNL     1       6.281   6.641  17.002  0.00  0.00    +0.000 A 
ATOM      6  C   UNL     1       6.868   5.483  16.413  0.00  0.00    +0.000 A 
ATOM      7  C   UNL     1       6.152   4.281  16.325  0.00  0.00    +0.000 A 
ATOM      8  C   UNL     1       4.861   4.258  16.825  0.00  0.00    +0.000 A 
ATOM      9  C   UNL     1       4.294   5.333  17.403  0.00  0.00    +0.000 A 
ATOM     10  C   UNL     1       4.966   6.545  17.525  0.00  0.00    +0.000 A 
ATOM     11  O   UNL     1       3.050   5.023  17.782  0.00  0.00    +0.000 OA
ATOM     12  C   UNL     1       2.823   3.697  17.422  0.00  0.00    +0.000 C 
ATOM     13  O   UNL     1       3.995   3.244  16.826  0.00  0.00    +0.000 OA
ENDBRANCH   3   5
BRANCH   1  14
ATOM     14  C   UNL     1       8.594   9.580  17.843  0.00  0.00    +0.000 C 
BRANCH  14  15
ATOM     15  C   UNL     1       9.095  10.057  19.213  0.00  0.00    +0.000 C 
BRANCH  15  19
ATOM     16  N   UNL     1       9.360  13.781  19.212  0.00  0.00    +0.000 NA
ATOM     17  C   UNL     1       9.099  12.935  18.030  0.00  0.00    +0.000 C 
ATOM     18  C   UNL     1      10.181  11.853  17.880  0.00  0.00    +0.000 C 
ATOM     19  N   UNL     1      10.245  10.980  19.079  0.00  0.00    +0.000 NA
ATOM     20  C   UNL     1      10.444  11.792  20.300  0.00  0.00    +0.000 C 
ATOM     21  C   UNL     1       9.399  12.931  20.423  0.00  0.00    +0.000 C 
BRANCH  16  23
ATOM     22  C   UNL     1      10.539  15.572  17.895  0.00  0.00    +0.000 C 
ATOM     23  C   UNL     1      10.572  14.634  19.103  0.00  0.00    +0.000 C 
ENDBRANCH  16  23
ENDBRANCH  15  19
ENDBRANCH  14  15
ENDBRANCH   1  14
TORSDOF 5
ENDMDL
MODEL 8
REMARK VINA RESULT:      -6.7      1.280      1.296
REMARK  Name = 
REMARK  6 active torsions:
REMARK  status: ('A' for Active; 'I' for Inactive)
REMARK    1  A    between atoms: C_1  and  C_2
REMARK    2  A    between atoms: C_2  and  N_3
REMARK    3  A    between atoms: N_6  and  C_7
REMARK    4  A    between atoms: C_7  and  C_8
REMARK    5  A    between atoms: C_8  and  C_9
REMARK    6  A    between atoms: N_11  and  C_12
REMARK                            x       y       z     vdW  Elec       q    Type
REMARK                         _______ _______ _______ _____ _____    ______ ____
ROOT
ATOM      1  C   UNL     1       8.071   8.204  18.125  0.00  0.00    +0.000 C 
ATOM      2  O   UNL     1       7.296   8.618  17.282  0.00  0.00    +0.000 OA
ATOM      3  N   UNL     1       8.041   6.911  18.572  0.00  0.00    +0.000 N 
ATOM      4  H   UNL     1       8.677   6.669  19.350  0.00  0.00    +0.000 HD
ENDROOT
BRANCH   3   5
ATOM      5  C   UNL     1       7.145   5.887  18.132  0.00  0.00    +0.000 A 
ATOM      6  C   UNL     1       7.154   5.353  16.810  0.00  0.00    +0.000 A 
ATOM      7  C   UNL     1       6.221   4.380  16.423  0.00  0.00    +0.000 A 
ATOM      8  C   UNL     1       5.296   3.960  17.364  0.00  0.00    +0.000 A 
ATOM      9  C   UNL     1       5.282   4.436  18.623  0.00  0.00    +0.000 A 
ATOM     10  C   UNL     1       6.192   5.394  19.058  0.00  0.00    +0.000 A 
ATOM     11  O   UNL     1       4.282   3.861  19.299  0.00  0.00    +0.000 OA
ATOM     12  C   UNL     1       3.636   2.991  18.426  0.00  0.00    +0.000 C 
ATOM     13  O   UNL     1       4.311   3.074  17.213  0.00  0.00    +0.000 OA
ENDBRANCH   3   5
BRANCH   1  14
ATOM     14  C   UNL     1       9.020   9.175  18.747  0.00  0.00    +0.000 C 
BRANCH  14  15
ATOM     15  C   UNL     1       8.944  10.543  18.057  0.00  0.00    +0.000 C 
BRANCH  15  19
ATOM     16  N   UNL     1      11.725  13.029  18.194  0.00  0.00    +0.000 NA
ATOM     17  C   UNL     1      11.747  11.677  18.788  0.00  0.00    +0.000 C 
ATOM     18  C   UNL     1      10.542  11.468  19.721  0.00  0.00    +0.000 C 
ATOM     19  N   UNL     1       9.259  11.643  18.996  0.00  0.00    +0.000 NA
ATOM     20  C   UNL     1       9.217  12.964  18.330  0.00  0.00    +0.000 C 
ATOM     21  C   UNL     1      10.463  13.213  17.443  0.00  0.00    +0.000 C 
BRANCH  16  23
ATOM     22  C   UNL     1      12.333  15.453  18.495  0.00  0.00    +0.000 C 
ATOM     23  C   UNL     1      11.949  14.132  19.165  0.00  0.00    +0.000 C 
ENDBRANCH  16  23
ENDBRANCH  15  19
ENDBRANCH  14  15
ENDBRANCH   1  14
TORSDOF 5
ENDMDL
MODEL 9
REMARK VINA RESULT:      -6.7      2.661      9.235
REMARK  Name = 
REMARK  6 active torsions:
REMARK  status: ('A' for Active; 'I' for Inactive)
REMARK    1  A    between atoms: C_1  and  C_2
REMARK    2  A    between atoms: C_2  and  N_3
REMARK    3  A    between atoms: N_6  and  C_7
REMARK    4  A    between atoms: C_7  and  C_8
REMARK    5  A    between atoms: C_8  and  C_9
REMARK    6  A    between atoms: N_11  and  C_12
REMARK                            x       y       z     vdW  Elec       q    Type
REMARK                         _______ _______ _______ _____ _____    ______ ____
ROOT
ATOM      1  C   UNL     1       8.119   8.491  18.177  0.00  0.00    +0.000 C 
ATOM      2  O   UNL     1       7.536   9.186  17.365  0.00  0.00    +0.000 OA
ATOM      3  N   UNL     1       9.018   9.010  19.069  0.00  0.00    +0.000 N 
ATOM      4  H   UNL     1       9.530   8.337  19.664  0.00  0.00    +0.000 HD
ENDROOT
BRANCH   3   5
ATOM      5  C   UNL     1       9.388  10.386  19.190  0.00  0.00    +0.000 A 
ATOM      6  C   UNL     1       9.352  11.102  20.422  0.00  0.00    +0.000 A 
ATOM      7  C   UNL     1       9.684  12.463  20.471  0.00  0.00    +0.000 A 
ATOM      8  C   UNL     1      10.044  13.084  19.287  0.00  0.00    +0.000 A 
ATOM      9  C   UNL     1      10.104  12.423  18.116  0.00  0.00    +0.000 A 
ATOM     10  C   UNL     1       9.795  11.071  18.017  0.00  0.00    +0.000 A 
ATOM     11  O   UNL     1      10.470  13.273  17.150  0.00  0.00    +0.000 OA
ATOM     12  C   UNL     1      10.641  14.522  17.738  0.00  0.00    +0.000 C 
ATOM     13  O   UNL     1      10.371  14.363  19.093  0.00  0.00    +0.000 OA
ENDBRANCH   3   5
BRANCH   1  14
ATOM     14  C   UNL     1       7.903   7.014  18.126  0.00  0.00    +0.000 C 
BRANCH  14  15
ATOM     15  C   UNL     1       6.765   6.655  17.162  0.00  0.00    +0.000 C 
BRANCH  15  19
ATOM     16  N   UNL     1       3.968   4.550  18.460  0.00  0.00    +0.000 NA
ATOM     17  C   UNL     1       5.161   4.965  19.225  0.00  0.00    +0.000 C 
ATOM     18  C   UNL     1       6.451   4.573  18.485  0.00  0.00    +0.000 C 
ATOM     19  N   UNL     1       6.515   5.196  17.139  0.00  0.00    +0.000 NA
ATOM     20  C   UNL     1       5.305   4.858  16.355  0.00  0.00    +0.000 C 
ATOM     21  C   UNL     1       3.999   5.184  17.122  0.00  0.00    +0.000 C 
BRANCH  16  23
ATOM     22  C   UNL     1       2.503   2.685  17.617  0.00  0.00    +0.000 C 
ATOM     23  C   UNL     1       3.780   3.079  18.363  0.00  0.00    +0.000 C 
ENDBRANCH  16  23
ENDBRANCH  15  19
ENDBRANCH  14  15
ENDBRANCH   1  14
TORSDOF 5
ENDMDL
