MODEL 1
REMARK VINA RESULT:      -7.1      0.000      0.000
REMARK  Name = 
REMARK  5 active torsions:
REMARK  status: ('A' for Active; 'I' for Inactive)
REMARK    1  A    between atoms: C_1  and  N_2
REMARK    2  A    between atoms: C_6  and  C_8
REMARK    3  A    between atoms: C_8  and  N_9
REMARK    4  A    between atoms: N_9  and  C_10
REMARK    5  A    between atoms: C_12  and  C_13
REMARK                            x       y       z     vdW  Elec       q    Type
REMARK                         _______ _______ _______ _____ _____    ______ ____
ROOT
ATOM      1  N   UNL     1       3.654   5.930  19.739  0.00  0.00    +0.000 NA
ATOM      2  H   UNL     1       3.744   5.627  20.711  0.00  0.00    +0.000 HD
ENDROOT
BRANCH   1   3
ATOM      3  C   UNL     1       4.038   4.902  18.770  0.00  0.00    +0.000 C 
ATOM      4  C   UNL     1       4.787   3.670  19.174  0.00  0.00    +0.000 C 
ATOM      5  C   UNL     1       5.524   4.772  18.466  0.00  0.00    +0.000 C 
BRANCH   5   6
ATOM      6  C   UNL     1       5.923   4.752  17.016  0.00  0.00    +0.000 A 
ATOM      7  C   UNL     1       5.195   4.113  16.005  0.00  0.00    +0.000 A 
ATOM      8  C   UNL     1       5.647   4.148  14.685  0.00  0.00    +0.000 A 
ATOM      9  C   UNL     1       6.826   4.816  14.410  0.00  0.00    +0.000 A 
ATOM     10  F   UNL     1       7.259   4.859  13.142  0.00  0.00    +0.000 F 
ATOM     11  N   UNL     1       7.576   5.433  15.341  0.00  0.00    +0.000 NA
ATOM     12  C   UNL     1       7.108   5.376  16.609  0.00  0.00    +0.000 A 
ENDBRANCH   5   6
ENDBRANCH   1   3
BRANCH   1  13
ATOM     13  C   UNL     1       2.276   6.417  19.531  0.00  0.00    +0.000 C 
BRANCH  13  19
ATOM     14  C   UNL     1      -1.511  11.624  20.203  0.00  0.00    +0.000 C 
ATOM     15  N   UNL     1      -0.211  10.963  20.107  0.00  0.00    +0.000 NA
ATOM     16  C   UNL     1       0.198  10.811  18.693  0.00  0.00    +0.000 C 
ATOM     17  C   UNL     1       1.549  10.081  18.547  0.00  0.00    +0.000 C 
ATOM     18  N   UNL     1       1.564   8.809  19.275  0.00  0.00    +0.000 N 
ATOM     19  C   UNL     1       2.289   7.745  18.754  0.00  0.00    +0.000 C 
ATOM     20  O   UNL     1       2.931   7.849  17.701  0.00  0.00    +0.000 OA
ATOM     21  C   UNL     1       1.105   8.916  20.665  0.00  0.00    +0.000 C 
ATOM     22  C   UNL     1      -0.254   9.637  20.754  0.00  0.00    +0.000 C 
ENDBRANCH  13  19
ENDBRANCH   1  13
TORSDOF 4
ENDMDL
MODEL 2
REMARK VINA RESULT:      -7.1      1.211      1.293
REMARK  Name = 
REMARK  5 active torsions:
REMARK  status: ('A' for Active; 'I' for Inactive)
REMARK    1  A    between atoms: C_1  and  N_2
REMARK    2  A    between atoms: C_6  and  C_8
REMARK    3  A    between atoms: C_8  and  N_9
REMARK    4  A    between atoms: N_9  and  C_10
REMARK    5  A    between atoms: C_12  and  C_13
REMARK                            x       y       z     vdW  Elec       q    Type
REMARK                         _______ _______ _______ _____ _____    ______ ____
ROOT
ATOM      1  N   UNL     1       3.526   6.472  19.845  0.00  0.00    +0.000 NA
ATOM      2  H   UNL     1       3.929   6.318  20.772  0.00  0.00    +0.000 HD
ENDROOT
BRANCH   1   3
ATOM      3  C   UNL     1       3.808   5.391  18.900  0.00  0.00    +0.000 C 
ATOM      4  C   UNL     1       4.303   4.051  19.351  0.00  0.00    +0.000 C 
ATOM      5  C   UNL     1       5.270   5.010  18.715  0.00  0.00    +0.000 C 
BRANCH   5   6
ATOM      6  C   UNL     1       5.776   4.916  17.302  0.00  0.00    +0.000 A 
ATOM      7  C   UNL     1       5.281   4.027  16.343  0.00  0.00    +0.000 A 
ATOM      8  C   UNL     1       5.817   4.013  15.054  0.00  0.00    +0.000 A 
ATOM      9  C   UNL     1       6.847   4.888  14.760  0.00  0.00    +0.000 A 
ATOM     10  F   UNL     1       7.358   4.884  13.520  0.00  0.00    +0.000 F 
ATOM     11  N   UNL     1       7.375   5.753  15.644  0.00  0.00    +0.000 NA
ATOM     12  C   UNL     1       6.832   5.736  16.883  0.00  0.00    +0.000 A 
ENDBRANCH   5   6
ENDBRANCH   1   3
BRANCH   1  13
ATOM     13  C   UNL     1       2.079   6.721  20.004  0.00  0.00    +0.000 C 
BRANCH  13  19
ATOM     14  C   UNL     1      -1.362  11.264  23.073  0.00  0.00    +0.000 C 
ATOM     15  N   UNL     1      -0.176  10.785  22.366  0.00  0.00    +0.000 NA
ATOM     16  C   UNL     1      -0.347  10.921  20.903  0.00  0.00    +0.000 C 
ATOM     17  C   UNL     1       0.870  10.388  20.117  0.00  0.00    +0.000 C 
ATOM     18  N   UNL     1       1.223   9.022  20.517  0.00  0.00    +0.000 N 
ATOM     19  C   UNL     1       1.731   8.152  19.560  0.00  0.00    +0.000 C 
ATOM     20  O   UNL     1       1.905   8.505  18.387  0.00  0.00    +0.000 OA
ATOM     21  C   UNL     1       1.339   8.842  21.969  0.00  0.00    +0.000 C 
ATOM     22  C   UNL     1       0.094   9.374  22.703  0.00  0.00    +0.000 C 
ENDBRANCH  13  19
ENDBRANCH   1  13
TORSDOF 4
ENDMDL
MODEL 3
REMARK VINA RESULT:      -6.9      3.093      6.545
REMARK  Name = 
REMARK  5 active torsions:
REMARK  status: ('A' for Active; 'I' for Inactive)
REMARK    1  A    between atoms: C_1  and  N_2
REMARK    2  A    between atoms: C_6  and  C_8
REMARK    3  A    between atoms: C_8  and  N_9
REMARK    4  A    between atoms: N_9  and  C_10
REMARK    5  A    between atoms: C_12  and  C_13
REMARK                            x       y       z     vdW  Elec       q    Type
REMARK                         _______ _______ _______ _____ _____    ______ ____
ROOT
ATOM      1  N   UNL     1       3.351   2.606  19.593  0.00  0.00    +0.000 NA
ATOM      2  H   UNL     1       3.434   1.822  20.243  0.00  0.00    +0.000 HD
ENDROOT
BRANCH   1   3
ATOM      3  C   UNL     1       3.169   3.898  20.257  0.00  0.00    +0.000 C 
ATOM      4  C   UNL     1       2.226   4.073  21.407  0.00  0.00    +0.000 C 
ATOM      5  C   UNL     1       1.827   4.587  20.052  0.00  0.00    +0.000 C 
BRANCH   5   6
ATOM      6  C   UNL     1       1.861   6.030  19.631  0.00  0.00    +0.000 A 
ATOM      7  C   UNL     1       2.227   6.473  18.355  0.00  0.00    +0.000 A 
ATOM      8  C   UNL     1       2.228   7.837  18.059  0.00  0.00    +0.000 A 
ATOM      9  C   UNL     1       1.871   8.728  19.054  0.00  0.00    +0.000 A 
ATOM     10  F   UNL     1       1.863  10.039  18.770  0.00  0.00    +0.000 F 
ATOM     11  N   UNL     1       1.527   8.363  20.302  0.00  0.00    +0.000 NA
ATOM     12  C   UNL     1       1.539   7.034  20.553  0.00  0.00    +0.000 A 
ENDBRANCH   5   6
ENDBRANCH   1   3
BRANCH   1  13
ATOM     13  C   UNL     1       4.524   2.591  18.696  0.00  0.00    +0.000 C 
BRANCH  13  19
ATOM     14  C   UNL     1       7.681   8.121  17.527  0.00  0.00    +0.000 C 
ATOM     15  N   UNL     1       7.163   6.810  17.139  0.00  0.00    +0.000 NA
ATOM     16  C   UNL     1       5.763   6.916  16.673  0.00  0.00    +0.000 C 
ATOM     17  C   UNL     1       5.165   5.546  16.291  0.00  0.00    +0.000 C 
ATOM     18  N   UNL     1       5.325   4.561  17.366  0.00  0.00    +0.000 N 
ATOM     19  C   UNL     1       4.337   3.603  17.553  0.00  0.00    +0.000 C 
ATOM     20  O   UNL     1       3.335   3.552  16.828  0.00  0.00    +0.000 OA
ATOM     21  C   UNL     1       6.693   4.477  17.892  0.00  0.00    +0.000 C 
ATOM     22  C   UNL     1       7.236   5.867  18.273  0.00  0.00    +0.000 C 
ENDBRANCH  13  19
ENDBRANCH   1  13
TORSDOF 4
ENDMDL
MODEL 4
REMARK VINA RESULT:      -6.8      3.176      4.611
REMARK  Name = 
REMARK  5 active torsions:
REMARK  status: ('A' for Active; 'I' for Inactive)
REMARK    1  A    between atoms: C_1  and  N_2
REMARK    2  A    between atoms: C_6  and  C_8
REMARK    3  A    between atoms: C_8  and  N_9
REMARK    4  A    between atoms: N_9  and  C_10
REMARK    5  A    between atoms: C_12  and  C_13
REMARK                            x       y       z     vdW  Elec       q    Type
REMARK                         _______ _______ _______ _____ _____    ______ ____
ROOT
ATOM      1  N   UNL     1       4.559   2.724  17.707  0.00  0.00    +0.000 NA
ATOM      2  H   UNL     1       5.110   1.913  17.422  0.00  0.00    +0.000 HD
ENDROOT
BRANCH   1   3
ATOM      3  C   UNL     1       5.009   3.978  17.099  0.00  0.00    +0.000 C 
ATOM      4  C   UNL     1       5.608   4.024  15.727  0.00  0.00    +0.000 C 
ATOM      5  C   UNL     1       6.511   4.148  16.921  0.00  0.00    +0.000 C 
BRANCH   5   6
ATOM      6  C   UNL     1       7.114   5.433  17.419  0.00  0.00    +0.000 A 
ATOM      7  C   UNL     1       7.737   5.584  18.663  0.00  0.00    +0.000 A 
ATOM      8  C   UNL     1       8.267   6.820  19.037  0.00  0.00    +0.000 A 
ATOM      9  C   UNL     1       8.152   7.880  18.158  0.00  0.00    +0.000 A 
ATOM     10  F   UNL     1       8.667   9.066  18.511  0.00  0.00    +0.000 F 
ATOM     11  N   UNL     1       7.549   7.800  16.958  0.00  0.00    +0.000 NA
ATOM     12  C   UNL     1       7.046   6.588  16.630  0.00  0.00    +0.000 A 
ENDBRANCH   5   6
ENDBRANCH   1   3
BRANCH   1  13
ATOM     13  C   UNL     1       3.137   2.440  17.428  0.00  0.00    +0.000 C 
BRANCH  13  19
ATOM     14  C   UNL     1       1.866   7.871  20.713  0.00  0.00    +0.000 C 
ATOM     15  N   UNL     1       1.472   6.642  20.028  0.00  0.00    +0.000 NA
ATOM     16  C   UNL     1       1.517   5.488  20.952  0.00  0.00    +0.000 C 
ATOM     17  C   UNL     1       1.146   4.161  20.256  0.00  0.00    +0.000 C 
ATOM     18  N   UNL     1       1.940   3.940  19.043  0.00  0.00    +0.000 N 
ATOM     19  C   UNL     1       2.292   2.642  18.698  0.00  0.00    +0.000 C 
ATOM     20  O   UNL     1       1.940   1.669  19.378  0.00  0.00    +0.000 OA
ATOM     21  C   UNL     1       1.965   5.092  18.134  0.00  0.00    +0.000 C 
ATOM     22  C   UNL     1       2.356   6.385  18.874  0.00  0.00    +0.000 C 
ENDBRANCH  13  19
ENDBRANCH   1  13
TORSDOF 4
ENDMDL
MODEL 5
REMARK VINA RESULT:      -6.8      3.882      8.248
REMARK  Name = 
REMARK  5 active torsions:
REMARK  status: ('A' for Active; 'I' for Inactive)
REMARK    1  A    between atoms: C_1  and  N_2
REMARK    2  A    between atoms: C_6  and  C_8
REMARK    3  A    between atoms: C_8  and  N_9
REMARK    4  A    between atoms: N_9  and  C_10
REMARK    5  A    between atoms: C_12  and  C_13
REMARK                            x       y       z     vdW  Elec       q    Type
REMARK                         _______ _______ _______ _____ _____    ______ ____
ROOT
ATOM      1  N   UNL     1       2.375   5.314  21.044  0.00  0.00    +0.000 NA
ATOM      2  H   UNL     1       3.362   5.391  20.790  0.00  0.00    +0.000 HD
ENDROOT
BRANCH   1   3
ATOM      3  C   UNL     1       1.552   6.408  20.526  0.00  0.00    +0.000 C 
ATOM      4  C   UNL     1       2.009   7.278  19.395  0.00  0.00    +0.000 C 
ATOM      5  C   UNL     1       2.050   7.821  20.795  0.00  0.00    +0.000 C 
BRANCH   5   6
ATOM      6  C   UNL     1       1.059   8.793  21.375  0.00  0.00    +0.000 A 
ATOM      7  C   UNL     1       0.125   9.512  20.621  0.00  0.00    +0.000 A 
ATOM      8  C   UNL     1      -0.755  10.394  21.250  0.00  0.00    +0.000 A 
ATOM      9  C   UNL     1      -0.671  10.543  22.622  0.00  0.00    +0.000 A 
ATOM     10  F   UNL     1      -1.521  11.383  23.230  0.00  0.00    +0.000 F 
ATOM     11  N   UNL     1       0.216   9.893  23.395  0.00  0.00    +0.000 NA
ATOM     12  C   UNL     1       1.054   9.049  22.751  0.00  0.00    +0.000 A 
ENDBRANCH   5   6
ENDBRANCH   1   3
BRANCH   1  13
ATOM     13  C   UNL     1       1.888   3.988  20.613  0.00  0.00    +0.000 C 
BRANCH  13  19
ATOM     14  C   UNL     1       7.062   5.209  16.920  0.00  0.00    +0.000 C 
ATOM     15  N   UNL     1       5.980   4.353  17.403  0.00  0.00    +0.000 NA
ATOM     16  C   UNL     1       4.739   4.590  16.634  0.00  0.00    +0.000 C 
ATOM     17  C   UNL     1       3.560   3.734  17.140  0.00  0.00    +0.000 C 
ATOM     18  N   UNL     1       3.360   3.879  18.586  0.00  0.00    +0.000 N 
ATOM     19  C   UNL     1       2.069   3.818  19.095  0.00  0.00    +0.000 C 
ATOM     20  O   UNL     1       1.089   3.630  18.364  0.00  0.00    +0.000 OA
ATOM     21  C   UNL     1       4.587   3.710  19.372  0.00  0.00    +0.000 C 
ATOM     22  C   UNL     1       5.726   4.598  18.837  0.00  0.00    +0.000 C 
ENDBRANCH  13  19
ENDBRANCH   1  13
TORSDOF 4
ENDMDL
MODEL 6
REMARK VINA RESULT:      -6.7      3.747      8.824
REMARK  Name = 
REMARK  5 active torsions:
REMARK  status: ('A' for Active; 'I' for Inactive)
REMARK    1  A    between atoms: C_1  and  N_2
REMARK    2  A    between atoms: C_6  and  C_8
REMARK    3  A    between atoms: C_8  and  N_9
REMARK    4  A    between atoms: N_9  and  C_10
REMARK    5  A    between atoms: C_12  and  C_13
REMARK                            x       y       z     vdW  Elec       q    Type
REMARK                         _______ _______ _______ _____ _____    ______ ____
ROOT
ATOM      1  N   UNL     1       1.673   8.688  18.909  0.00  0.00    +0.000 NA
ATOM      2  H   UNL     1       2.118   8.881  19.809  0.00  0.00    +0.000 HD
ENDROOT
BRANCH   1   3
ATOM      3  C   UNL     1       0.963   9.840  18.352  0.00  0.00    +0.000 C 
ATOM      4  C   UNL     1       0.971  11.179  19.025  0.00  0.00    +0.000 C 
ATOM      5  C   UNL     1      -0.261  10.323  19.120  0.00  0.00    +0.000 C 
BRANCH   5   6
ATOM      6  C   UNL     1      -1.522  10.533  18.328  0.00  0.00    +0.000 A 
ATOM      7  C   UNL     1      -1.839   9.845  17.151  0.00  0.00    +0.000 A 
ATOM      8  C   UNL     1      -3.037  10.110  16.484  0.00  0.00    +0.000 A 
ATOM      9  C   UNL     1      -3.885  11.067  17.009  0.00  0.00    +0.000 A 
ATOM     10  F   UNL     1      -5.040  11.318  16.375  0.00  0.00    +0.000 F 
ATOM     11  N   UNL     1      -3.626  11.771  18.126  0.00  0.00    +0.000 NA
ATOM     12  C   UNL     1      -2.456  11.489  18.743  0.00  0.00    +0.000 A 
ENDBRANCH   5   6
ENDBRANCH   1   3
BRANCH   1  13
ATOM     13  C   UNL     1       2.699   8.158  17.988  0.00  0.00    +0.000 C 
BRANCH  13  19
ATOM     14  C   UNL     1       6.210   3.834  14.690  0.00  0.00    +0.000 C 
ATOM     15  N   UNL     1       5.855   4.571  15.901  0.00  0.00    +0.000 NA
ATOM     16  C   UNL     1       4.764   3.890  16.630  0.00  0.00    +0.000 C 
ATOM     17  C   UNL     1       4.332   4.659  17.896  0.00  0.00    +0.000 C 
ATOM     18  N   UNL     1       4.020   6.062  17.604  0.00  0.00    +0.000 N 
ATOM     19  C   UNL     1       3.014   6.691  18.326  0.00  0.00    +0.000 C 
ATOM     20  O   UNL     1       2.387   6.103  19.216  0.00  0.00    +0.000 OA
ATOM     21  C   UNL     1       5.059   6.748  16.827  0.00  0.00    +0.000 C 
ATOM     22  C   UNL     1       5.441   5.949  15.567  0.00  0.00    +0.000 C 
ENDBRANCH  13  19
ENDBRANCH   1  13
TORSDOF 4
ENDMDL
MODEL 7
REMARK VINA RESULT:      -6.5      1.852      2.233
REMARK  Name = 
REMARK  5 active torsions:
REMARK  status: ('A' for Active; 'I' for Inactive)
REMARK    1  A    between atoms: C_1  and  N_2
REMARK    2  A    between atoms: C_6  and  C_8
REMARK    3  A    between atoms: C_8  and  N_9
REMARK    4  A    between atoms: N_9  and  C_10
REMARK    5  A    between atoms: C_12  and  C_13
REMARK                            x       y       z     vdW  Elec       q    Type
REMARK                         _______ _______ _______ _____ _____    ______ ____
ROOT
ATOM      1  N   UNL     1       2.537   6.367  20.604  0.00  0.00    +0.000 NA
ATOM      2  H   UNL     1       2.762   5.832  21.445  0.00  0.00    +0.000 HD
ENDROOT
BRANCH   1   3
ATOM      3  C   UNL     1       2.579   5.569  19.378  0.00  0.00    +0.000 C 
ATOM      4  C   UNL     1       2.563   4.071  19.405  0.00  0.00    +0.000 C 
ATOM      5  C   UNL     1       3.856   4.782  19.120  0.00  0.00    +0.000 C 
BRANCH   5   6
ATOM      6  C   UNL     1       4.481   4.926  17.760  0.00  0.00    +0.000 A 
ATOM      7  C   UNL     1       4.671   6.146  17.103  0.00  0.00    +0.000 A 
ATOM      8  C   UNL     1       5.261   6.179  15.838  0.00  0.00    +0.000 A 
ATOM      9  C   UNL     1       5.640   4.983  15.256  0.00  0.00    +0.000 A 
ATOM     10  F   UNL     1       6.214   5.012  14.045  0.00  0.00    +0.000 F 
ATOM     11  N   UNL     1       5.467   3.779  15.832  0.00  0.00    +0.000 NA
ATOM     12  C   UNL     1       4.890   3.787  17.055  0.00  0.00    +0.000 A 
ENDBRANCH   5   6
ENDBRANCH   1   3
BRANCH   1  13
ATOM     13  C   UNL     1       1.229   7.023  20.807  0.00  0.00    +0.000 C 
BRANCH  13  19
ATOM     14  C   UNL     1      -1.715  12.244  23.253  0.00  0.00    +0.000 C 
ATOM     15  N   UNL     1      -0.540  11.512  22.783  0.00  0.00    +0.000 NA
ATOM     16  C   UNL     1      -0.381  11.657  21.320  0.00  0.00    +0.000 C 
ATOM     17  C   UNL     1       0.827  10.865  20.777  0.00  0.00    +0.000 C 
ATOM     18  N   UNL     1       0.795   9.461  21.201  0.00  0.00    +0.000 N 
ATOM     19  C   UNL     1       1.288   8.488  20.342  0.00  0.00    +0.000 C 
ATOM     20  O   UNL     1       1.764   8.777  19.236  0.00  0.00    +0.000 OA
ATOM     21  C   UNL     1       0.577   9.284  22.642  0.00  0.00    +0.000 C 
ATOM     22  C   UNL     1      -0.648  10.080  23.129  0.00  0.00    +0.000 C 
ENDBRANCH  13  19
ENDBRANCH   1  13
TORSDOF 4
ENDMDL
MODEL 8
REMARK VINA RESULT:      -6.5      2.208      3.187
REMARK  Name = 
REMARK  5 active torsions:
REMARK  status: ('A' for Active; 'I' for Inactive)
REMARK    1  A    between atoms: C_1  and  N_2
REMARK    2  A    between atoms: C_6  and  C_8
REMARK    3  A    between atoms: C_8  and  N_9
REMARK    4  A    between atoms: N_9  and  C_10
REMARK    5  A    between atoms: C_12  and  C_13
REMARK                            x       y       z     vdW  Elec       q    Type
REMARK                         _______ _______ _______ _____ _____    ______ ____
ROOT
ATOM      1  N   UNL     1       1.816   7.127  20.566  0.00  0.00    +0.000 NA
ATOM      2  H   UNL     1       0.889   6.766  20.331  0.00  0.00    +0.000 HD
ENDROOT
BRANCH   1   3
ATOM      3  C   UNL     1       2.704   7.250  19.408  0.00  0.00    +0.000 C 
ATOM      4  C   UNL     1       2.182   7.254  18.004  0.00  0.00    +0.000 C 
ATOM      5  C   UNL     1       2.854   6.017  18.529  0.00  0.00    +0.000 C 
BRANCH   5   6
ATOM      6  C   UNL     1       4.255   5.586  18.193  0.00  0.00    +0.000 A 
ATOM      7  C   UNL     1       4.903   5.876  16.987  0.00  0.00    +0.000 A 
ATOM      8  C   UNL     1       6.207   5.431  16.767  0.00  0.00    +0.000 A 
ATOM      9  C   UNL     1       6.830   4.696  17.759  0.00  0.00    +0.000 A 
ATOM     10  F   UNL     1       8.086   4.275  17.553  0.00  0.00    +0.000 F 
ATOM     11  N   UNL     1       6.252   4.372  18.930  0.00  0.00    +0.000 NA
ATOM     12  C   UNL     1       4.988   4.818  19.107  0.00  0.00    +0.000 A 
ENDBRANCH   5   6
ENDBRANCH   1   3
BRANCH   1  13
ATOM     13  C   UNL     1       1.647   8.405  21.287  0.00  0.00    +0.000 C 
BRANCH  13  19
ATOM     14  C   UNL     1      -0.069  14.114  18.765  0.00  0.00    +0.000 C 
ATOM     15  N   UNL     1      -0.122  12.656  18.841  0.00  0.00    +0.000 NA
ATOM     16  C   UNL     1      -1.125  12.218  19.836  0.00  0.00    +0.000 C 
ATOM     17  C   UNL     1      -1.184  10.682  19.976  0.00  0.00    +0.000 C 
ATOM     18  N   UNL     1       0.141  10.105  20.223  0.00  0.00    +0.000 N 
ATOM     19  C   UNL     1       0.244   8.981  21.033  0.00  0.00    +0.000 C 
ATOM     20  O   UNL     1      -0.753   8.449  21.537  0.00  0.00    +0.000 OA
ATOM     21  C   UNL     1       1.172  10.568  19.288  0.00  0.00    +0.000 C 
ATOM     22  C   UNL     1       1.201  12.106  19.198  0.00  0.00    +0.000 C 
ENDBRANCH  13  19
ENDBRANCH   1  13
TORSDOF 4
ENDMDL
MODEL 9
REMARK VINA RESULT:      -6.5      3.862      5.133
REMARK  Name = 
REMARK  5 active torsions:
REMARK  status: ('A' for Active; 'I' for Inactive)
REMARK    1  A    between atoms: C_1  and  N_2
REMARK    2  A    between atoms: C_6  and  C_8
REMARK    3  A    between atoms: C_8  and  N_9
REMARK    4  A    between atoms: N_9  and  C_10
REMARK    5  A    between atoms: C_12  and  C_13
REMARK                            x       y       z     vdW  Elec       q    Type
REMARK                         _______ _______ _______ _____ _____    ______ ____
ROOT
ATOM      1  N   UNL     1       2.060   8.579  17.408  0.00  0.00    +0.000 NA
ATOM      2  H   UNL     1       2.503   8.737  16.500  0.00  0.00    +0.000 HD
ENDROOT
BRANCH   1   3
ATOM      3  C   UNL     1       2.753   7.584  18.229  0.00  0.00    +0.000 C 
ATOM      4  C   UNL     1       3.893   6.772  17.697  0.00  0.00    +0.000 C 
ATOM      5  C   UNL     1       2.546   6.124  17.850  0.00  0.00    +0.000 C 
BRANCH   5   6
ATOM      6  C   UNL     1       2.161   5.182  18.958  0.00  0.00    +0.000 A 
ATOM      7  C   UNL     1       2.545   5.335  20.294  0.00  0.00    +0.000 A 
ATOM      8  C   UNL     1       2.138   4.406  21.253  0.00  0.00    +0.000 A 
ATOM      9  C   UNL     1       1.361   3.336  20.846  0.00  0.00    +0.000 A 
ATOM     10  F   UNL     1       0.962   2.446  21.765  0.00  0.00    +0.000 F 
ATOM     11  N   UNL     1       0.977   3.128  19.574  0.00  0.00    +0.000 NA
ATOM     12  C   UNL     1       1.392   4.047  18.673  0.00  0.00    +0.000 A 
ENDBRANCH   5   6
ENDBRANCH   1   3
BRANCH   1  13
ATOM     13  C   UNL     1       1.926   9.881  18.091  0.00  0.00    +0.000 C 
BRANCH  13  19
ATOM     14  C   UNL     1      -0.866  13.557  22.630  0.00  0.00    +0.000 C 
ATOM     15  N   UNL     1      -0.618  13.163  21.244  0.00  0.00    +0.000 NA
ATOM     16  C   UNL     1      -1.535  12.079  20.833  0.00  0.00    +0.000 C 
ATOM     17  C   UNL     1      -1.278  11.606  19.387  0.00  0.00    +0.000 C 
ATOM     18  N   UNL     1       0.130  11.263  19.167  0.00  0.00    +0.000 N 
ATOM     19  C   UNL     1       0.441  10.229  18.293  0.00  0.00    +0.000 C 
ATOM     20  O   UNL     1      -0.438   9.603  17.686  0.00  0.00    +0.000 OA
ATOM     21  C   UNL     1       1.069  12.295  19.621  0.00  0.00    +0.000 C 
ATOM     22  C   UNL     1       0.780  12.719  21.074  0.00  0.00    +0.000 C 
ENDBRANCH  13  19
ENDBRANCH   1  13
TORSDOF 4
ENDMDL
