MODEL 1
REMARK VINA RESULT:      -8.0      0.000      0.000
REMARK  Name = 
REMARK  8 active torsions:
REMARK  status: ('A' for Active; 'I' for Inactive)
REMARK    1  A    between atoms: C_1  and  N_2
REMARK    2  A    between atoms: N_2  and  C_3
REMARK    3  A    between atoms: N_2  and  C_12
REMARK    4  A    between atoms: C_3  and  C_4
REMARK    5  A    between atoms: C_7  and  C_8
REMARK    6  A    between atoms: N_15  and  C_16
REMARK    7  A    between atoms: C_16  and  C_17
REMARK    8  A    between atoms: C_19  and  C_20
REMARK                            x       y       z     vdW  Elec       q    Type
REMARK                         _______ _______ _______ _____ _____    ______ ____
ROOT
ATOM      1  C   UNL     1       3.402   4.482  17.727  0.00  0.00    +0.000 C 
ATOM      2  C   UNL     1       4.185   3.518  18.625  0.00  0.00    +0.000 C 
ATOM      3  C   UNL     1       5.370   4.343  19.085  0.00  0.00    +0.000 C 
ATOM      4  N   UNL     1       5.806   5.072  17.886  0.00  0.00    +0.000 NA
ATOM      5  C   UNL     1       4.571   5.307  17.101  0.00  0.00    +0.000 C 
ENDROOT
BRANCH   1   7
ATOM      6  C   UNL     1       1.632   4.541  19.436  0.00  0.00    +0.000 C 
ATOM      7  N   UNL     1       2.403   5.308  18.449  0.00  0.00    +0.000 NA
BRANCH   7   8
ATOM      8  C   UNL     1       2.964   6.527  19.092  0.00  0.00    +0.000 C 
BRANCH   8   9
ATOM      9  C   UNL     1       2.414   7.829  18.595  0.00  0.00    +0.000 A 
ATOM     10  N   UNL     1       2.680   8.328  17.379  0.00  0.00    +0.000 NA
ATOM     11  O   UNL     1       1.910   9.495  17.340  0.00  0.00    +0.000 OA
ATOM     12  C   UNL     1       1.255   9.575  18.538  0.00  0.00    +0.000 A 
ATOM     13  N   UNL     1       1.545   8.579  19.348  0.00  0.00    +0.000 NA
BRANCH  12  14
ATOM     14  C   UNL     1       0.277  10.686  18.885  0.00  0.00    +0.000 C 
ATOM     15  C   UNL     1      -1.194  10.466  18.587  0.00  0.00    +0.000 C 
ATOM     16  C   UNL     1      -0.723  10.449  20.000  0.00  0.00    +0.000 C 
ENDBRANCH  12  14
ENDBRANCH   8   9
ENDBRANCH   7   8
ENDBRANCH   1   7
BRANCH   4  17
ATOM     17  C   UNL     1       6.819   4.299  17.146  0.00  0.00    +0.000 C 
BRANCH  17  18
ATOM     18  C   UNL     1       6.859   4.554  15.677  0.00  0.00    +0.000 A 
ATOM     19  N   UNL     1       6.258   3.893  14.714  0.00  0.00    +0.000 NA
ATOM     20  C   UNL     1       6.785   4.479  13.594  0.00  0.00    +0.000 A 
ATOM     21  N   UNL     1       7.634   5.487  13.828  0.00  0.00    +0.000 NA
ATOM     22  O   UNL     1       7.689   5.539  15.226  0.00  0.00    +0.000 OA
BRANCH  20  23
ATOM     23  C   UNL     1       6.486   3.974  12.193  0.00  0.00    +0.000 C 
ATOM     24  C   UNL     1       6.495   2.470  11.982  0.00  0.00    +0.000 C 
ATOM     25  C   UNL     1       5.204   3.210  11.935  0.00  0.00    +0.000 C 
ENDBRANCH  20  23
ENDBRANCH  17  18
ENDBRANCH   4  17
TORSDOF 7
ENDMDL
MODEL 2
REMARK VINA RESULT:      -7.4      1.564      1.852
REMARK  Name = 
REMARK  8 active torsions:
REMARK  status: ('A' for Active; 'I' for Inactive)
REMARK    1  A    between atoms: C_1  and  N_2
REMARK    2  A    between atoms: N_2  and  C_3
REMARK    3  A    between atoms: N_2  and  C_12
REMARK    4  A    between atoms: C_3  and  C_4
REMARK    5  A    between atoms: C_7  and  C_8
REMARK    6  A    between atoms: N_15  and  C_16
REMARK    7  A    between atoms: C_16  and  C_17
REMARK    8  A    between atoms: C_19  and  C_20
REMARK                            x       y       z     vdW  Elec       q    Type
REMARK                         _______ _______ _______ _____ _____    ______ ____
ROOT
ATOM      1  C   UNL     1       3.775   3.783  18.318  0.00  0.00    +0.000 C 
ATOM      2  C   UNL     1       4.960   4.057  19.250  0.00  0.00    +0.000 C 
ATOM      3  C   UNL     1       5.480   5.400  18.780  0.00  0.00    +0.000 C 
ATOM      4  N   UNL     1       5.440   5.324  17.314  0.00  0.00    +0.000 NA
ATOM      5  C   UNL     1       4.287   4.447  16.999  0.00  0.00    +0.000 C 
ENDROOT
BRANCH   1   7
ATOM      6  C   UNL     1       1.385   3.357  18.717  0.00  0.00    +0.000 C 
ATOM      7  N   UNL     1       2.483   4.328  18.803  0.00  0.00    +0.000 NA
BRANCH   7   8
ATOM      8  C   UNL     1       2.535   4.904  20.172  0.00  0.00    +0.000 C 
BRANCH   8   9
ATOM      9  C   UNL     1       2.043   6.314  20.298  0.00  0.00    +0.000 A 
ATOM     10  N   UNL     1       2.379   7.293  19.447  0.00  0.00    +0.000 NA
ATOM     11  O   UNL     1       1.643   8.387  19.914  0.00  0.00    +0.000 OA
ATOM     12  C   UNL     1       0.933   7.949  20.998  0.00  0.00    +0.000 A 
ATOM     13  N   UNL     1       1.158   6.683  21.281  0.00  0.00    +0.000 NA
BRANCH  12  14
ATOM     14  C   UNL     1      -0.032   8.828  21.778  0.00  0.00    +0.000 C 
ATOM     15  C   UNL     1       0.528   9.696  22.890  0.00  0.00    +0.000 C 
ATOM     16  C   UNL     1       0.071  10.333  21.622  0.00  0.00    +0.000 C 
ENDBRANCH  12  14
ENDBRANCH   8   9
ENDBRANCH   7   8
ENDBRANCH   1   7
BRANCH   4  17
ATOM     17  C   UNL     1       6.715   4.810  16.782  0.00  0.00    +0.000 C 
BRANCH  17  18
ATOM     18  C   UNL     1       6.832   4.828  15.295  0.00  0.00    +0.000 A 
ATOM     19  N   UNL     1       6.173   4.113  14.412  0.00  0.00    +0.000 NA
ATOM     20  C   UNL     1       6.810   4.445  13.245  0.00  0.00    +0.000 A 
ATOM     21  N   UNL     1       7.784   5.355  13.370  0.00  0.00    +0.000 NA
ATOM     22  O   UNL     1       7.805   5.613  14.745  0.00  0.00    +0.000 OA
BRANCH  20  23
ATOM     23  C   UNL     1       6.485   3.776  11.922  0.00  0.00    +0.000 C 
ATOM     24  C   UNL     1       6.383   2.260  11.918  0.00  0.00    +0.000 C 
ATOM     25  C   UNL     1       5.151   3.079  11.747  0.00  0.00    +0.000 C 
ENDBRANCH  20  23
ENDBRANCH  17  18
ENDBRANCH   4  17
TORSDOF 7
ENDMDL
MODEL 3
REMARK VINA RESULT:      -7.2      1.295      1.670
REMARK  Name = 
REMARK  8 active torsions:
REMARK  status: ('A' for Active; 'I' for Inactive)
REMARK    1  A    between atoms: C_1  and  N_2
REMARK    2  A    between atoms: N_2  and  C_3
REMARK    3  A    between atoms: N_2  and  C_12
REMARK    4  A    between atoms: C_3  and  C_4
REMARK    5  A    between atoms: C_7  and  C_8
REMARK    6  A    between atoms: N_15  and  C_16
REMARK    7  A    between atoms: C_16  and  C_17
REMARK    8  A    between atoms: C_19  and  C_20
REMARK                            x       y       z     vdW  Elec       q    Type
REMARK                         _______ _______ _______ _____ _____    ______ ____
ROOT
ATOM      1  C   UNL     1       3.654   4.185  18.946  0.00  0.00    +0.000 C 
ATOM      2  C   UNL     1       4.829   5.093  19.323  0.00  0.00    +0.000 C 
ATOM      3  C   UNL     1       5.013   5.965  18.098  0.00  0.00    +0.000 C 
ATOM      4  N   UNL     1       4.866   5.048  16.960  0.00  0.00    +0.000 NA
ATOM      5  C   UNL     1       3.901   4.017  17.412  0.00  0.00    +0.000 C 
ENDROOT
BRANCH   1   7
ATOM      6  C   UNL     1       1.278   3.717  19.380  0.00  0.00    +0.000 C 
ATOM      7  N   UNL     1       2.322   4.745  19.282  0.00  0.00    +0.000 NA
BRANCH   7   8
ATOM      8  C   UNL     1       2.304   5.593  20.503  0.00  0.00    +0.000 C 
BRANCH   8   9
ATOM      9  C   UNL     1       1.843   7.005  20.301  0.00  0.00    +0.000 A 
ATOM     10  N   UNL     1       1.354   7.772  21.286  0.00  0.00    +0.000 NA
ATOM     11  O   UNL     1       1.130   8.998  20.652  0.00  0.00    +0.000 OA
ATOM     12  C   UNL     1       1.515   8.844  19.348  0.00  0.00    +0.000 A 
ATOM     13  N   UNL     1       1.948   7.629  19.083  0.00  0.00    +0.000 NA
BRANCH  12  14
ATOM     14  C   UNL     1       1.469   9.965  18.322  0.00  0.00    +0.000 C 
ATOM     15  C   UNL     1       0.195  10.783  18.212  0.00  0.00    +0.000 C 
ATOM     16  C   UNL     1       1.410  11.397  18.817  0.00  0.00    +0.000 C 
ENDBRANCH  12  14
ENDBRANCH   8   9
ENDBRANCH   7   8
ENDBRANCH   1   7
BRANCH   4  17
ATOM     17  C   UNL     1       6.171   4.484  16.573  0.00  0.00    +0.000 C 
BRANCH  17  18
ATOM     18  C   UNL     1       6.476   4.544  15.114  0.00  0.00    +0.000 A 
ATOM     19  N   UNL     1       5.950   3.841  14.136  0.00  0.00    +0.000 NA
ATOM     20  C   UNL     1       6.722   4.215  13.069  0.00  0.00    +0.000 A 
ATOM     21  N   UNL     1       7.654   5.137  13.339  0.00  0.00    +0.000 NA
ATOM     22  O   UNL     1       7.494   5.359  14.711  0.00  0.00    +0.000 OA
BRANCH  20  23
ATOM     23  C   UNL     1       6.581   3.574  11.699  0.00  0.00    +0.000 C 
ATOM     24  C   UNL     1       7.224   2.212  11.501  0.00  0.00    +0.000 C 
ATOM     25  C   UNL     1       5.740   2.324  11.544  0.00  0.00    +0.000 C 
ENDBRANCH  20  23
ENDBRANCH  17  18
ENDBRANCH   4  17
TORSDOF 7
ENDMDL
MODEL 4
REMARK VINA RESULT:      -7.2      0.855      1.059
REMARK  Name = 
REMARK  8 active torsions:
REMARK  status: ('A' for Active; 'I' for Inactive)
REMARK    1  A    between atoms: C_1  and  N_2
REMARK    2  A    between atoms: N_2  and  C_3
REMARK    3  A    between atoms: N_2  and  C_12
REMARK    4  A    between atoms: C_3  and  C_4
REMARK    5  A    between atoms: C_7  and  C_8
REMARK    6  A    between atoms: N_15  and  C_16
REMARK    7  A    between atoms: C_16  and  C_17
REMARK    8  A    between atoms: C_19  and  C_20
REMARK                            x       y       z     vdW  Elec       q    Type
REMARK                         _______ _______ _______ _____ _____    ______ ____
ROOT
ATOM      1  C   UNL     1       3.301   4.778  18.213  0.00  0.00    +0.000 C 
ATOM      2  C   UNL     1       4.257   4.055  19.167  0.00  0.00    +0.000 C 
ATOM      3  C   UNL     1       5.494   4.931  19.163  0.00  0.00    +0.000 C 
ATOM      4  N   UNL     1       5.681   5.308  17.756  0.00  0.00    +0.000 NA
ATOM      5  C   UNL     1       4.315   5.372  17.183  0.00  0.00    +0.000 C 
ENDROOT
BRANCH   1   7
ATOM      6  C   UNL     1       2.070   5.431  20.241  0.00  0.00    +0.000 C 
ATOM      7  N   UNL     1       2.444   5.796  18.869  0.00  0.00    +0.000 NA
BRANCH   7   8
ATOM      8  C   UNL     1       3.006   7.173  18.854  0.00  0.00    +0.000 C 
BRANCH   8   9
ATOM      9  C   UNL     1       1.999   8.281  18.794  0.00  0.00    +0.000 A 
ATOM     10  N   UNL     1       1.532   8.794  17.647  0.00  0.00    +0.000 NA
ATOM     11  O   UNL     1       0.587   9.730  18.080  0.00  0.00    +0.000 OA
ATOM     12  C   UNL     1       0.578   9.678  19.446  0.00  0.00    +0.000 A 
ATOM     13  N   UNL     1       1.442   8.810  19.931  0.00  0.00    +0.000 NA
BRANCH  12  14
ATOM     14  C   UNL     1      -0.348  10.518  20.311  0.00  0.00    +0.000 C 
ATOM     15  C   UNL     1      -0.439  10.191  21.790  0.00  0.00    +0.000 C 
ATOM     16  C   UNL     1       0.265  11.430  21.356  0.00  0.00    +0.000 C 
ENDBRANCH  12  14
ENDBRANCH   8   9
ENDBRANCH   7   8
ENDBRANCH   1   7
BRANCH   4  17
ATOM     17  C   UNL     1       6.547   4.336  17.067  0.00  0.00    +0.000 C 
BRANCH  17  18
ATOM     18  C   UNL     1       6.721   4.570  15.603  0.00  0.00    +0.000 A 
ATOM     19  N   UNL     1       6.135   3.958  14.600  0.00  0.00    +0.000 NA
ATOM     20  C   UNL     1       6.797   4.482  13.521  0.00  0.00    +0.000 A 
ATOM     21  N   UNL     1       7.716   5.409  13.816  0.00  0.00    +0.000 NA
ATOM     22  O   UNL     1       7.671   5.470  15.213  0.00  0.00    +0.000 OA
BRANCH  20  23
ATOM     23  C   UNL     1       6.558   3.992  12.103  0.00  0.00    +0.000 C 
ATOM     24  C   UNL     1       7.059   2.600  11.757  0.00  0.00    +0.000 C 
ATOM     25  C   UNL     1       5.594   2.849  11.863  0.00  0.00    +0.000 C 
ENDBRANCH  20  23
ENDBRANCH  17  18
ENDBRANCH   4  17
TORSDOF 7
ENDMDL
MODEL 5
REMARK VINA RESULT:      -7.1      1.680      2.207
REMARK  Name = 
REMARK  8 active torsions:
REMARK  status: ('A' for Active; 'I' for Inactive)
REMARK    1  A    between atoms: C_1  and  N_2
REMARK    2  A    between atoms: N_2  and  C_3
REMARK    3  A    between atoms: N_2  and  C_12
REMARK    4  A    between atoms: C_3  and  C_4
REMARK    5  A    between atoms: C_7  and  C_8
REMARK    6  A    between atoms: N_15  and  C_16
REMARK    7  A    between atoms: C_16  and  C_17
REMARK    8  A    between atoms: C_19  and  C_20
REMARK                            x       y       z     vdW  Elec       q    Type
REMARK                         _______ _______ _______ _____ _____    ______ ____
ROOT
ATOM      1  C   UNL     1       3.045   6.043  18.570  0.00  0.00    +0.000 C 
ATOM      2  C   UNL     1       3.757   5.053  19.498  0.00  0.00    +0.000 C 
ATOM      3  C   UNL     1       5.217   5.440  19.377  0.00  0.00    +0.000 C 
ATOM      4  N   UNL     1       5.420   5.693  17.945  0.00  0.00    +0.000 NA
ATOM      5  C   UNL     1       4.124   6.218  17.453  0.00  0.00    +0.000 C 
ENDROOT
BRANCH   1   7
ATOM      6  C   UNL     1       2.218   8.340  18.270  0.00  0.00    +0.000 C 
ATOM      7  N   UNL     1       2.647   7.312  19.226  0.00  0.00    +0.000 NA
BRANCH   7   8
ATOM      8  C   UNL     1       1.619   7.158  20.289  0.00  0.00    +0.000 C 
BRANCH   8   9
ATOM      9  C   UNL     1       1.186   8.427  20.958  0.00  0.00    +0.000 A 
ATOM     10  N   UNL     1       1.823   8.963  22.009  0.00  0.00    +0.000 NA
ATOM     11  O   UNL     1       1.116  10.148  22.237  0.00  0.00    +0.000 OA
ATOM     12  C   UNL     1       0.129  10.206  21.293  0.00  0.00    +0.000 A 
ATOM     13  N   UNL     1       0.124   9.161  20.492  0.00  0.00    +0.000 NA
BRANCH  12  14
ATOM     14  C   UNL     1      -0.845  11.367  21.168  0.00  0.00    +0.000 C 
ATOM     15  C   UNL     1      -0.410  12.585  20.375  0.00  0.00    +0.000 C 
ATOM     16  C   UNL     1      -1.441  11.671  19.807  0.00  0.00    +0.000 C 
ENDBRANCH  12  14
ENDBRANCH   8   9
ENDBRANCH   7   8
ENDBRANCH   1   7
BRANCH   4  17
ATOM     17  C   UNL     1       5.841   4.462  17.252  0.00  0.00    +0.000 C 
BRANCH  17  18
ATOM     18  C   UNL     1       6.224   4.642  15.821  0.00  0.00    +0.000 A 
ATOM     19  N   UNL     1       5.652   4.141  14.750  0.00  0.00    +0.000 NA
ATOM     20  C   UNL     1       6.522   4.516  13.761  0.00  0.00    +0.000 A 
ATOM     21  N   UNL     1       7.560   5.255  14.170  0.00  0.00    +0.000 NA
ATOM     22  O   UNL     1       7.366   5.340  15.553  0.00  0.00    +0.000 OA
BRANCH  20  23
ATOM     23  C   UNL     1       6.360   4.064  12.320  0.00  0.00    +0.000 C 
ATOM     24  C   UNL     1       6.440   2.572  12.049  0.00  0.00    +0.000 C 
ATOM     25  C   UNL     1       5.132   3.272  11.922  0.00  0.00    +0.000 C 
ENDBRANCH  20  23
ENDBRANCH  17  18
ENDBRANCH   4  17
TORSDOF 7
ENDMDL
MODEL 6
REMARK VINA RESULT:      -7.0      1.060      1.539
REMARK  Name = 
REMARK  8 active torsions:
REMARK  status: ('A' for Active; 'I' for Inactive)
REMARK    1  A    between atoms: C_1  and  N_2
REMARK    2  A    between atoms: N_2  and  C_3
REMARK    3  A    between atoms: N_2  and  C_12
REMARK    4  A    between atoms: C_3  and  C_4
REMARK    5  A    between atoms: C_7  and  C_8
REMARK    6  A    between atoms: N_15  and  C_16
REMARK    7  A    between atoms: C_16  and  C_17
REMARK    8  A    between atoms: C_19  and  C_20
REMARK                            x       y       z     vdW  Elec       q    Type
REMARK                         _______ _______ _______ _____ _____    ______ ____
ROOT
ATOM      1  C   UNL     1       3.988   6.254  18.941  0.00  0.00    +0.000 C 
ATOM      2  C   UNL     1       4.200   6.593  17.461  0.00  0.00    +0.000 C 
ATOM      3  C   UNL     1       4.127   5.244  16.774  0.00  0.00    +0.000 C 
ATOM      4  N   UNL     1       4.885   4.338  17.645  0.00  0.00    +0.000 NA
ATOM      5  C   UNL     1       4.683   4.857  19.019  0.00  0.00    +0.000 C 
ENDROOT
BRANCH   1   7
ATOM      6  C   UNL     1       2.166   4.976  19.990  0.00  0.00    +0.000 C 
ATOM      7  N   UNL     1       2.566   6.242  19.363  0.00  0.00    +0.000 NA
BRANCH   7   8
ATOM      8  C   UNL     1       2.175   7.379  20.239  0.00  0.00    +0.000 C 
BRANCH   8   9
ATOM      9  C   UNL     1       1.497   8.522  19.548  0.00  0.00    +0.000 A 
ATOM     10  N   UNL     1       1.661   8.802  18.247  0.00  0.00    +0.000 NA
ATOM     11  O   UNL     1       0.797   9.884  18.045  0.00  0.00    +0.000 OA
ATOM     12  C   UNL     1       0.197  10.139  19.247  0.00  0.00    +0.000 A 
ATOM     13  N   UNL     1       0.608   9.335  20.205  0.00  0.00    +0.000 NA
BRANCH  12  14
ATOM     14  C   UNL     1      -0.850  11.223  19.447  0.00  0.00    +0.000 C 
ATOM     15  C   UNL     1      -0.386  12.667  19.501  0.00  0.00    +0.000 C 
ATOM     16  C   UNL     1      -1.130  12.181  18.305  0.00  0.00    +0.000 C 
ENDBRANCH  12  14
ENDBRANCH   8   9
ENDBRANCH   7   8
ENDBRANCH   1   7
BRANCH   4  17
ATOM     17  C   UNL     1       6.303   4.298  17.249  0.00  0.00    +0.000 C 
BRANCH  17  18
ATOM     18  C   UNL     1       6.559   4.522  15.796  0.00  0.00    +0.000 A 
ATOM     19  N   UNL     1       5.972   3.960  14.764  0.00  0.00    +0.000 NA
ATOM     20  C   UNL     1       6.720   4.433  13.718  0.00  0.00    +0.000 A 
ATOM     21  N   UNL     1       7.695   5.285  14.059  0.00  0.00    +0.000 NA
ATOM     22  O   UNL     1       7.593   5.346  15.453  0.00  0.00    +0.000 OA
BRANCH  20  23
ATOM     23  C   UNL     1       6.507   3.967  12.289  0.00  0.00    +0.000 C 
ATOM     24  C   UNL     1       6.424   2.469  12.053  0.00  0.00    +0.000 C 
ATOM     25  C   UNL     1       5.200   3.304  11.909  0.00  0.00    +0.000 C 
ENDBRANCH  20  23
ENDBRANCH  17  18
ENDBRANCH   4  17
TORSDOF 7
ENDMDL
MODEL 7
REMARK VINA RESULT:      -6.9      1.029      1.290
REMARK  Name = 
REMARK  8 active torsions:
REMARK  status: ('A' for Active; 'I' for Inactive)
REMARK    1  A    between atoms: C_1  and  N_2
REMARK    2  A    between atoms: N_2  and  C_3
REMARK    3  A    between atoms: N_2  and  C_12
REMARK    4  A    between atoms: C_3  and  C_4
REMARK    5  A    between atoms: C_7  and  C_8
REMARK    6  A    between atoms: N_15  and  C_16
REMARK    7  A    between atoms: C_16  and  C_17
REMARK    8  A    between atoms: C_19  and  C_20
REMARK                            x       y       z     vdW  Elec       q    Type
REMARK                         _______ _______ _______ _____ _____    ______ ____
ROOT
ATOM      1  C   UNL     1       3.591   5.036  17.546  0.00  0.00    +0.000 C 
ATOM      2  C   UNL     1       4.001   3.625  17.980  0.00  0.00    +0.000 C 
ATOM      3  C   UNL     1       5.099   3.870  18.996  0.00  0.00    +0.000 C 
ATOM      4  N   UNL     1       5.913   4.945  18.415  0.00  0.00    +0.000 NA
ATOM      5  C   UNL     1       4.964   5.775  17.635  0.00  0.00    +0.000 C 
ENDROOT
BRANCH   1   7
ATOM      6  C   UNL     1       1.762   4.648  19.146  0.00  0.00    +0.000 C 
ATOM      7  N   UNL     1       2.527   5.643  18.383  0.00  0.00    +0.000 NA
BRANCH   7   8
ATOM      8  C   UNL     1       3.001   6.716  19.296  0.00  0.00    +0.000 C 
BRANCH   8   9
ATOM      9  C   UNL     1       2.020   7.817  19.563  0.00  0.00    +0.000 A 
ATOM     10  N   UNL     1       1.415   7.998  20.745  0.00  0.00    +0.000 NA
ATOM     11  O   UNL     1       0.662   9.159  20.543  0.00  0.00    +0.000 OA
ATOM     12  C   UNL     1       0.899   9.562  19.257  0.00  0.00    +0.000 A 
ATOM     13  N   UNL     1       1.717   8.759  18.611  0.00  0.00    +0.000 NA
BRANCH  12  14
ATOM     14  C   UNL     1       0.296  10.819  18.649  0.00  0.00    +0.000 C 
ATOM     15  C   UNL     1      -0.843  11.497  19.387  0.00  0.00    +0.000 C 
ATOM     16  C   UNL     1       0.501  12.140  19.364  0.00  0.00    +0.000 C 
ENDBRANCH  12  14
ENDBRANCH   8   9
ENDBRANCH   7   8
ENDBRANCH   1   7
BRANCH   4  17
ATOM     17  C   UNL     1       7.001   4.389  17.592  0.00  0.00    +0.000 C 
BRANCH  17  18
ATOM     18  C   UNL     1       6.859   4.612  16.123  0.00  0.00    +0.000 A 
ATOM     19  N   UNL     1       6.095   3.973  15.267  0.00  0.00    +0.000 NA
ATOM     20  C   UNL     1       6.503   4.502  14.071  0.00  0.00    +0.000 A 
ATOM     21  N   UNL     1       7.437   5.457  14.163  0.00  0.00    +0.000 NA
ATOM     22  O   UNL     1       7.682   5.532  15.539  0.00  0.00    +0.000 OA
BRANCH  20  23
ATOM     23  C   UNL     1       5.989   3.991  12.737  0.00  0.00    +0.000 C 
ATOM     24  C   UNL     1       7.026   3.615  11.692  0.00  0.00    +0.000 C 
ATOM     25  C   UNL     1       6.227   2.545  12.352  0.00  0.00    +0.000 C 
ENDBRANCH  20  23
ENDBRANCH  17  18
ENDBRANCH   4  17
TORSDOF 7
ENDMDL
MODEL 8
REMARK VINA RESULT:      -6.9      1.266      1.744
REMARK  Name = 
REMARK  8 active torsions:
REMARK  status: ('A' for Active; 'I' for Inactive)
REMARK    1  A    between atoms: C_1  and  N_2
REMARK    2  A    between atoms: N_2  and  C_3
REMARK    3  A    between atoms: N_2  and  C_12
REMARK    4  A    between atoms: C_3  and  C_4
REMARK    5  A    between atoms: C_7  and  C_8
REMARK    6  A    between atoms: N_15  and  C_16
REMARK    7  A    between atoms: C_16  and  C_17
REMARK    8  A    between atoms: C_19  and  C_20
REMARK                            x       y       z     vdW  Elec       q    Type
REMARK                         _______ _______ _______ _____ _____    ______ ____
ROOT
ATOM      1  C   UNL     1       3.875   5.435  19.479  0.00  0.00    +0.000 C 
ATOM      2  C   UNL     1       4.294   6.438  18.399  0.00  0.00    +0.000 C 
ATOM      3  C   UNL     1       4.117   5.666  17.107  0.00  0.00    +0.000 C 
ATOM      4  N   UNL     1       4.645   4.326  17.397  0.00  0.00    +0.000 NA
ATOM      5  C   UNL     1       4.363   4.097  18.834  0.00  0.00    +0.000 C 
ENDROOT
BRANCH   1   7
ATOM      6  C   UNL     1       1.874   4.115  20.032  0.00  0.00    +0.000 C 
ATOM      7  N   UNL     1       2.426   5.455  19.796  0.00  0.00    +0.000 NA
BRANCH   7   8
ATOM      8  C   UNL     1       2.057   6.353  20.922  0.00  0.00    +0.000 C 
BRANCH   8   9
ATOM      9  C   UNL     1       1.559   7.710  20.529  0.00  0.00    +0.000 A 
ATOM     10  N   UNL     1       1.818   8.277  19.342  0.00  0.00    +0.000 NA
ATOM     11  O   UNL     1       1.105   9.479  19.402  0.00  0.00    +0.000 OA
ATOM     12  C   UNL     1       0.483   9.508  20.620  0.00  0.00    +0.000 A 
ATOM     13  N   UNL     1       0.745   8.446  21.353  0.00  0.00    +0.000 NA
BRANCH  12  14
ATOM     14  C   UNL     1      -0.432  10.637  21.068  0.00  0.00    +0.000 C 
ATOM     15  C   UNL     1       0.154  12.032  21.181  0.00  0.00    +0.000 C 
ATOM     16  C   UNL     1      -0.787  11.721  20.069  0.00  0.00    +0.000 C 
ENDBRANCH  12  14
ENDBRANCH   8   9
ENDBRANCH   7   8
ENDBRANCH   1   7
BRANCH   4  17
ATOM     17  C   UNL     1       6.080   4.250  17.073  0.00  0.00    +0.000 C 
BRANCH  17  18
ATOM     18  C   UNL     1       6.417   4.476  15.637  0.00  0.00    +0.000 A 
ATOM     19  N   UNL     1       5.909   3.894  14.575  0.00  0.00    +0.000 NA
ATOM     20  C   UNL     1       6.705   4.384  13.574  0.00  0.00    +0.000 A 
ATOM     21  N   UNL     1       7.634   5.263  13.967  0.00  0.00    +0.000 NA
ATOM     22  O   UNL     1       7.446   5.326  15.353  0.00  0.00    +0.000 OA
BRANCH  20  23
ATOM     23  C   UNL     1       6.591   3.907  12.137  0.00  0.00    +0.000 C 
ATOM     24  C   UNL     1       6.611   2.406  11.900  0.00  0.00    +0.000 C 
ATOM     25  C   UNL     1       5.347   3.165  11.694  0.00  0.00    +0.000 C 
ENDBRANCH  20  23
ENDBRANCH  17  18
ENDBRANCH   4  17
TORSDOF 7
ENDMDL
MODEL 9
REMARK VINA RESULT:      -6.9      1.330      1.570
REMARK  Name = 
REMARK  8 active torsions:
REMARK  status: ('A' for Active; 'I' for Inactive)
REMARK    1  A    between atoms: C_1  and  N_2
REMARK    2  A    between atoms: N_2  and  C_3
REMARK    3  A    between atoms: N_2  and  C_12
REMARK    4  A    between atoms: C_3  and  C_4
REMARK    5  A    between atoms: C_7  and  C_8
REMARK    6  A    between atoms: N_15  and  C_16
REMARK    7  A    between atoms: C_16  and  C_17
REMARK    8  A    between atoms: C_19  and  C_20
REMARK                            x       y       z     vdW  Elec       q    Type
REMARK                         _______ _______ _______ _____ _____    ______ ____
ROOT
ATOM      1  C   UNL     1       3.025   5.666  17.900  0.00  0.00    +0.000 C 
ATOM      2  C   UNL     1       3.666   4.744  18.943  0.00  0.00    +0.000 C 
ATOM      3  C   UNL     1       5.037   5.350  19.159  0.00  0.00    +0.000 C 
ATOM      4  N   UNL     1       5.504   5.710  17.814  0.00  0.00    +0.000 NA
ATOM      5  C   UNL     1       4.279   6.063  17.057  0.00  0.00    +0.000 C 
ENDROOT
BRANCH   1   7
ATOM      6  C   UNL     1       2.358   6.861  19.945  0.00  0.00    +0.000 C 
ATOM      7  N   UNL     1       2.298   6.823  18.478  0.00  0.00    +0.000 NA
BRANCH   7   8
ATOM      8  C   UNL     1       2.708   8.142  17.927  0.00  0.00    +0.000 C 
BRANCH   8   9
ATOM      9  C   UNL     1       1.710   9.248  18.091  0.00  0.00    +0.000 A 
ATOM     10  N   UNL     1       0.418   9.134  17.753  0.00  0.00    +0.000 NA
ATOM     11  O   UNL     1      -0.122  10.364  18.143  0.00  0.00    +0.000 OA
ATOM     12  C   UNL     1       0.903  11.091  18.681  0.00  0.00    +0.000 A 
ATOM     13  N   UNL     1       2.053  10.450  18.658  0.00  0.00    +0.000 NA
BRANCH  12  14
ATOM     14  C   UNL     1       0.726  12.483  19.266  0.00  0.00    +0.000 C 
ATOM     15  C   UNL     1       0.120  13.559  18.384  0.00  0.00    +0.000 C 
ATOM     16  C   UNL     1      -0.680  12.995  19.507  0.00  0.00    +0.000 C 
ENDBRANCH  12  14
ENDBRANCH   8   9
ENDBRANCH   7   8
ENDBRANCH   1   7
BRANCH   4  17
ATOM     17  C   UNL     1       6.254   4.597  17.207  0.00  0.00    +0.000 C 
BRANCH  17  18
ATOM     18  C   UNL     1       6.522   4.739  15.746  0.00  0.00    +0.000 A 
ATOM     19  N   UNL     1       5.935   4.128  14.742  0.00  0.00    +0.000 NA
ATOM     20  C   UNL     1       6.696   4.535  13.678  0.00  0.00    +0.000 A 
ATOM     21  N   UNL     1       7.679   5.392  13.978  0.00  0.00    +0.000 NA
ATOM     22  O   UNL     1       7.568   5.530  15.367  0.00  0.00    +0.000 OA
BRANCH  20  23
ATOM     23  C   UNL     1       6.487   3.995  12.274  0.00  0.00    +0.000 C 
ATOM     24  C   UNL     1       6.403   2.486  12.117  0.00  0.00    +0.000 C 
ATOM     25  C   UNL     1       5.180   3.313  11.926  0.00  0.00    +0.000 C 
ENDBRANCH  20  23
ENDBRANCH  17  18
ENDBRANCH   4  17
TORSDOF 7
ENDMDL
