MODEL 1
REMARK VINA RESULT:      -8.4      0.000      0.000
REMARK  Name = 
REMARK  7 active torsions:
REMARK  status: ('A' for Active; 'I' for Inactive)
REMARK    1  A    between atoms: C_1  and  N_2
REMARK    2  A    between atoms: N_2  and  C_3
REMARK    3  A    between atoms: C_3  and  C_4
REMARK    4  A    between atoms: C_8  and  C_9
REMARK    5  A    between atoms: N_11  and  C_12
REMARK    6  A    between atoms: C_21  and  C_22
REMARK    7  A    between atoms: C_22  and  N_23
REMARK                            x       y       z     vdW  Elec       q    Type
REMARK                         _______ _______ _______ _____ _____    ______ ____
ROOT
ATOM      1  C   UNL     1       6.428   6.000  17.116  0.00  0.00    +0.000 A 
ATOM      2  C   UNL     1       7.024   5.064  17.979  0.00  0.00    +0.000 A 
ATOM      3  C   UNL     1       7.971   5.466  18.916  0.00  0.00    +0.000 A 
ATOM      4  C   UNL     1       8.347   6.804  18.982  0.00  0.00    +0.000 A 
ATOM      5  C   UNL     1       7.788   7.751  18.109  0.00  0.00    +0.000 A 
ATOM      6  C   UNL     1       6.834   7.347  17.170  0.00  0.00    +0.000 A 
ENDROOT
BRANCH   5   7
ATOM      7  C   UNL     1       8.281   9.147  18.225  0.00  0.00    +0.000 C 
ATOM      8  O   UNL     1       7.907   9.938  17.365  0.00  0.00    +0.000 OA
ATOM      9  N   UNL     1       9.179   9.413  19.249  0.00  0.00    +0.000 N 
ATOM     10  H   UNL     1       9.538   8.632  19.777  0.00  0.00    +0.000 HD
BRANCH   9  11
ATOM     11  C   UNL     1       9.794  10.673  19.478  0.00  0.00    +0.000 A 
ATOM     12  C   UNL     1      10.657  11.275  18.560  0.00  0.00    +0.000 A 
ATOM     13  C   UNL     1      11.283  12.491  18.847  0.00  0.00    +0.000 A 
ATOM     14  C   UNL     1      11.042  13.126  20.061  0.00  0.00    +0.000 A 
ATOM     15  C   UNL     1      10.165  12.550  20.977  0.00  0.00    +0.000 A 
ATOM     16  C   UNL     1       9.533  11.333  20.682  0.00  0.00    +0.000 A 
ENDBRANCH   9  11
ENDBRANCH   5   7
BRANCH   1  17
ATOM     17  C   UNL     1       5.277   5.585  16.218  0.00  0.00    +0.000 C 
BRANCH  17  19
ATOM     18  C   UNL     1       3.757   6.806  17.807  0.00  0.00    +0.000 C 
ATOM     19  N   UNL     1       4.032   5.623  16.991  0.00  0.00    +0.000 N 
ATOM     20  C   UNL     1       3.569   4.409  17.510  0.00  0.00    +0.000 A 
ATOM     21  C   UNL     1       2.364   4.354  18.189  0.00  0.00    +0.000 A 
ATOM     22  C   UNL     1       1.922   3.133  18.663  0.00  0.00    +0.000 A 
ATOM     23  N   UNL     1       2.628   2.002  18.487  0.00  0.00    +0.000 NA
ATOM     24  C   UNL     1       3.774   2.140  17.807  0.00  0.00    +0.000 A 
ATOM     25  N   UNL     1       4.275   3.282  17.305  0.00  0.00    +0.000 NA
BRANCH  22  26
ATOM     26  C   UNL     1       0.590   3.049  19.375  0.00  0.00    +0.000 C 
BRANCH  26  27
ATOM     27  N   UNL     1       0.730   2.921  20.829  0.00  0.00    +0.000 NA
ATOM     28  H   UNL     1       0.615   1.936  21.071  0.00  0.00    +0.000 HD
ATOM     29  H   UNL     1      -0.047   3.408  21.274  0.00  0.00    +0.000 HD
ENDBRANCH  26  27
ENDBRANCH  22  26
ENDBRANCH  17  19
ENDBRANCH   1  17
TORSDOF 6
ENDMDL
MODEL 2
REMARK VINA RESULT:      -8.2      6.064      8.374
REMARK  Name = 
REMARK  7 active torsions:
REMARK  status: ('A' for Active; 'I' for Inactive)
REMARK    1  A    between atoms: C_1  and  N_2
REMARK    2  A    between atoms: N_2  and  C_3
REMARK    3  A    between atoms: C_3  and  C_4
REMARK    4  A    between atoms: C_8  and  C_9
REMARK    5  A    between atoms: N_11  and  C_12
REMARK    6  A    between atoms: C_21  and  C_22
REMARK    7  A    between atoms: C_22  and  N_23
REMARK                            x       y       z     vdW  Elec       q    Type
REMARK                         _______ _______ _______ _____ _____    ______ ____
ROOT
ATOM      1  C   UNL     1       1.933   7.589  19.700  0.00  0.00    +0.000 A 
ATOM      2  C   UNL     1       2.033   8.255  18.466  0.00  0.00    +0.000 A 
ATOM      3  C   UNL     1       1.625   9.578  18.339  0.00  0.00    +0.000 A 
ATOM      4  C   UNL     1       1.091  10.241  19.440  0.00  0.00    +0.000 A 
ATOM      5  C   UNL     1       0.953   9.587  20.674  0.00  0.00    +0.000 A 
ATOM      6  C   UNL     1       1.366   8.258  20.802  0.00  0.00    +0.000 A 
ENDROOT
BRANCH   5   7
ATOM      7  C   UNL     1       0.333  10.361  21.780  0.00  0.00    +0.000 C 
ATOM      8  O   UNL     1       0.569   9.979  22.921  0.00  0.00    +0.000 OA
ATOM      9  N   UNL     1      -0.514  11.400  21.422  0.00  0.00    +0.000 N 
ATOM     10  H   UNL     1      -0.759  11.496  20.448  0.00  0.00    +0.000 HD
BRANCH   9  11
ATOM     11  C   UNL     1      -1.234  12.210  22.341  0.00  0.00    +0.000 A 
ATOM     12  C   UNL     1      -2.452  11.823  22.903  0.00  0.00    +0.000 A 
ATOM     13  C   UNL     1      -3.154  12.672  23.762  0.00  0.00    +0.000 A 
ATOM     14  C   UNL     1      -2.634  13.924  24.079  0.00  0.00    +0.000 A 
ATOM     15  C   UNL     1      -1.407  14.314  23.545  0.00  0.00    +0.000 A 
ATOM     16  C   UNL     1      -0.703  13.456  22.689  0.00  0.00    +0.000 A 
ENDBRANCH   9  11
ENDBRANCH   5   7
BRANCH   1  17
ATOM     17  C   UNL     1       2.536   6.207  19.874  0.00  0.00    +0.000 C 
BRANCH  17  19
ATOM     18  C   UNL     1       1.912   4.784  17.895  0.00  0.00    +0.000 C 
ATOM     19  N   UNL     1       2.876   5.667  18.555  0.00  0.00    +0.000 N 
ATOM     20  C   UNL     1       4.224   5.378  18.314  0.00  0.00    +0.000 A 
ATOM     21  C   UNL     1       4.631   4.933  17.068  0.00  0.00    +0.000 A 
ATOM     22  C   UNL     1       5.975   4.686  16.856  0.00  0.00    +0.000 A 
ATOM     23  N   UNL     1       6.893   4.860  17.822  0.00  0.00    +0.000 NA
ATOM     24  C   UNL     1       6.417   5.307  18.993  0.00  0.00    +0.000 A 
ATOM     25  N   UNL     1       5.134   5.580  19.284  0.00  0.00    +0.000 NA
BRANCH  22  26
ATOM     26  C   UNL     1       6.441   4.235  15.489  0.00  0.00    +0.000 C 
BRANCH  26  27
ATOM     27  N   UNL     1       7.459   5.121  14.916  0.00  0.00    +0.000 NA
ATOM     28  H   UNL     1       7.035   5.627  14.137  0.00  0.00    +0.000 HD
ATOM     29  H   UNL     1       8.195   4.547  14.506  0.00  0.00    +0.000 HD
ENDBRANCH  26  27
ENDBRANCH  22  26
ENDBRANCH  17  19
ENDBRANCH   1  17
TORSDOF 6
ENDMDL
MODEL 3
REMARK VINA RESULT:      -8.1      1.072      1.881
REMARK  Name = 
REMARK  7 active torsions:
REMARK  status: ('A' for Active; 'I' for Inactive)
REMARK    1  A    between atoms: C_1  and  N_2
REMARK    2  A    between atoms: N_2  and  C_3
REMARK    3  A    between atoms: C_3  and  C_4
REMARK    4  A    between atoms: C_8  and  C_9
REMARK    5  A    between atoms: N_11  and  C_12
REMARK    6  A    between atoms: C_21  and  C_22
REMARK    7  A    between atoms: C_22  and  N_23
REMARK                            x       y       z     vdW  Elec       q    Type
REMARK                         _______ _______ _______ _____ _____    ______ ____
ROOT
ATOM      1  C   UNL     1       6.856   6.373  17.080  0.00  0.00    +0.000 A 
ATOM      2  C   UNL     1       7.339   5.440  18.013  0.00  0.00    +0.000 A 
ATOM      3  C   UNL     1       8.152   5.845  19.066  0.00  0.00    +0.000 A 
ATOM      4  C   UNL     1       8.508   7.185  19.183  0.00  0.00    +0.000 A 
ATOM      5  C   UNL     1       8.063   8.130  18.244  0.00  0.00    +0.000 A 
ATOM      6  C   UNL     1       7.244   7.723  17.188  0.00  0.00    +0.000 A 
ENDROOT
BRANCH   5   7
ATOM      7  C   UNL     1       8.529   9.528  18.425  0.00  0.00    +0.000 C 
ATOM      8  O   UNL     1       8.184  10.341  17.573  0.00  0.00    +0.000 OA
ATOM      9  N   UNL     1       9.373   9.776  19.499  0.00  0.00    +0.000 N 
ATOM     10  H   UNL     1       9.719   8.984  20.019  0.00  0.00    +0.000 HD
BRANCH   9  11
ATOM     11  C   UNL     1       9.958  11.036  19.794  0.00  0.00    +0.000 A 
ATOM     12  C   UNL     1       9.435  11.912  20.749  0.00  0.00    +0.000 A 
ATOM     13  C   UNL     1      10.011  13.165  20.971  0.00  0.00    +0.000 A 
ATOM     14  C   UNL     1      11.130  13.555  20.242  0.00  0.00    +0.000 A 
ATOM     15  C   UNL     1      11.678  12.682  19.304  0.00  0.00    +0.000 A 
ATOM     16  C   UNL     1      11.101  11.422  19.088  0.00  0.00    +0.000 A 
ENDBRANCH   9  11
ENDBRANCH   5   7
BRANCH   1  17
ATOM     17  C   UNL     1       5.835   5.953  16.037  0.00  0.00    +0.000 C 
BRANCH  17  19
ATOM     18  C   UNL     1       5.341   3.554  15.466  0.00  0.00    +0.000 C 
ATOM     19  N   UNL     1       5.267   4.659  16.423  0.00  0.00    +0.000 N 
ATOM     20  C   UNL     1       4.126   4.682  17.233  0.00  0.00    +0.000 A 
ATOM     21  C   UNL     1       3.575   3.500  17.696  0.00  0.00    +0.000 A 
ATOM     22  C   UNL     1       2.465   3.560  18.519  0.00  0.00    +0.000 A 
ATOM     23  N   UNL     1       1.906   4.729  18.877  0.00  0.00    +0.000 NA
ATOM     24  C   UNL     1       2.510   5.826  18.398  0.00  0.00    +0.000 A 
ATOM     25  N   UNL     1       3.592   5.860  17.602  0.00  0.00    +0.000 NA
BRANCH  22  26
ATOM     26  C   UNL     1       1.873   2.279  19.064  0.00  0.00    +0.000 C 
BRANCH  26  27
ATOM     27  N   UNL     1       0.678   1.849  18.331  0.00  0.00    +0.000 NA
ATOM     28  H   UNL     1       0.441   0.905  18.640  0.00  0.00    +0.000 HD
ATOM     29  H   UNL     1       0.916   1.765  17.343  0.00  0.00    +0.000 HD
ENDBRANCH  26  27
ENDBRANCH  22  26
ENDBRANCH  17  19
ENDBRANCH   1  17
TORSDOF 6
ENDMDL
MODEL 4
REMARK VINA RESULT:      -8.1      1.242      2.072
REMARK  Name = 
REMARK  7 active torsions:
REMARK  status: ('A' for Active; 'I' for Inactive)
REMARK    1  A    between atoms: C_1  and  N_2
REMARK    2  A    between atoms: N_2  and  C_3
REMARK    3  A    between atoms: C_3  and  C_4
REMARK    4  A    between atoms: C_8  and  C_9
REMARK    5  A    between atoms: N_11  and  C_12
REMARK    6  A    between atoms: C_21  and  C_22
REMARK    7  A    between atoms: C_22  and  N_23
REMARK                            x       y       z     vdW  Elec       q    Type
REMARK                         _______ _______ _______ _____ _____    ______ ____
ROOT
ATOM      1  C   UNL     1       6.123   6.109  17.372  0.00  0.00    +0.000 A 
ATOM      2  C   UNL     1       6.864   5.135  18.063  0.00  0.00    +0.000 A 
ATOM      3  C   UNL     1       7.990   5.489  18.800  0.00  0.00    +0.000 A 
ATOM      4  C   UNL     1       8.398   6.818  18.834  0.00  0.00    +0.000 A 
ATOM      5  C   UNL     1       7.692   7.805  18.126  0.00  0.00    +0.000 A 
ATOM      6  C   UNL     1       6.559   7.448  17.389  0.00  0.00    +0.000 A 
ENDROOT
BRANCH   5   7
ATOM      7  C   UNL     1       8.227   9.188  18.186  0.00  0.00    +0.000 C 
ATOM      8  O   UNL     1       7.853   9.964  17.313  0.00  0.00    +0.000 OA
ATOM      9  N   UNL     1       9.158   9.460  19.180  0.00  0.00    +0.000 N 
ATOM     10  H   UNL     1       9.509   8.685  19.722  0.00  0.00    +0.000 HD
BRANCH   9  11
ATOM     11  C   UNL     1       9.813  10.708  19.354  0.00  0.00    +0.000 A 
ATOM     12  C   UNL     1       9.826  11.397  20.568  0.00  0.00    +0.000 A 
ATOM     13  C   UNL     1      10.438  12.647  20.683  0.00  0.00    +0.000 A 
ATOM     14  C   UNL     1      11.059  13.221  19.577  0.00  0.00    +0.000 A 
ATOM     15  C   UNL     1      11.076  12.535  18.365  0.00  0.00    +0.000 A 
ATOM     16  C   UNL     1      10.466  11.277  18.255  0.00  0.00    +0.000 A 
ENDBRANCH   9  11
ENDBRANCH   5   7
BRANCH   1  17
ATOM     17  C   UNL     1       4.805   5.743  16.715  0.00  0.00    +0.000 C 
BRANCH  17  19
ATOM     18  C   UNL     1       3.834   3.423  16.733  0.00  0.00    +0.000 C 
ATOM     19  N   UNL     1       4.191   4.642  17.461  0.00  0.00    +0.000 N 
ATOM     20  C   UNL     1       3.340   4.987  18.517  0.00  0.00    +0.000 A 
ATOM     21  C   UNL     1       2.781   4.001  19.312  0.00  0.00    +0.000 A 
ATOM     22  C   UNL     1       1.969   4.378  20.366  0.00  0.00    +0.000 A 
ATOM     23  N   UNL     1       1.705   5.669  20.637  0.00  0.00    +0.000 NA
ATOM     24  C   UNL     1       2.299   6.558  19.829  0.00  0.00    +0.000 A 
ATOM     25  N   UNL     1       3.106   6.282  18.790  0.00  0.00    +0.000 NA
BRANCH  22  26
ATOM     26  C   UNL     1       1.379   3.316  21.268  0.00  0.00    +0.000 C 
BRANCH  26  27
ATOM     27  N   UNL     1       2.396   2.613  22.057  0.00  0.00    +0.000 NA
ATOM     28  H   UNL     1       2.953   3.312  22.550  0.00  0.00    +0.000 HD
ATOM     29  H   UNL     1       3.038   2.147  21.417  0.00  0.00    +0.000 HD
ENDBRANCH  26  27
ENDBRANCH  22  26
ENDBRANCH  17  19
ENDBRANCH   1  17
TORSDOF 6
ENDMDL
MODEL 5
REMARK VINA RESULT:      -7.8      4.855      7.120
REMARK  Name = 
REMARK  7 active torsions:
REMARK  status: ('A' for Active; 'I' for Inactive)
REMARK    1  A    between atoms: C_1  and  N_2
REMARK    2  A    between atoms: N_2  and  C_3
REMARK    3  A    between atoms: C_3  and  C_4
REMARK    4  A    between atoms: C_8  and  C_9
REMARK    5  A    between atoms: N_11  and  C_12
REMARK    6  A    between atoms: C_21  and  C_22
REMARK    7  A    between atoms: C_22  and  N_23
REMARK                            x       y       z     vdW  Elec       q    Type
REMARK                         _______ _______ _______ _____ _____    ______ ____
ROOT
ATOM      1  C   UNL     1       3.691   5.356  19.513  0.00  0.00    +0.000 A 
ATOM      2  C   UNL     1       2.830   4.871  20.512  0.00  0.00    +0.000 A 
ATOM      3  C   UNL     1       1.667   5.560  20.843  0.00  0.00    +0.000 A 
ATOM      4  C   UNL     1       1.367   6.753  20.193  0.00  0.00    +0.000 A 
ATOM      5  C   UNL     1       2.228   7.273  19.213  0.00  0.00    +0.000 A 
ATOM      6  C   UNL     1       3.395   6.579  18.879  0.00  0.00    +0.000 A 
ENDROOT
BRANCH   5   7
ATOM      7  C   UNL     1       1.847   8.572  18.604  0.00  0.00    +0.000 C 
ATOM      8  O   UNL     1       2.298   8.813  17.489  0.00  0.00    +0.000 OA
ATOM      9  N   UNL     1       1.078   9.429  19.380  0.00  0.00    +0.000 N 
ATOM     10  H   UNL     1       0.924   9.180  20.345  0.00  0.00    +0.000 HD
BRANCH   9  11
ATOM     11  C   UNL     1       0.668  10.729  18.984  0.00  0.00    +0.000 A 
ATOM     12  C   UNL     1       1.529  11.828  18.973  0.00  0.00    +0.000 A 
ATOM     13  C   UNL     1       1.072  13.102  18.628  0.00  0.00    +0.000 A 
ATOM     14  C   UNL     1      -0.262  13.289  18.276  0.00  0.00    +0.000 A 
ATOM     15  C   UNL     1      -1.128  12.198  18.258  0.00  0.00    +0.000 A 
ATOM     16  C   UNL     1      -0.663  10.920  18.599  0.00  0.00    +0.000 A 
ENDBRANCH   9  11
ENDBRANCH   5   7
BRANCH   1  17
ATOM     17  C   UNL     1       4.863   4.516  19.040  0.00  0.00    +0.000 C 
BRANCH  17  19
ATOM     18  C   UNL     1       3.852   2.706  17.615  0.00  0.00    +0.000 C 
ATOM     19  N   UNL     1       4.560   3.983  17.709  0.00  0.00    +0.000 N 
ATOM     20  C   UNL     1       5.495   4.233  16.697  0.00  0.00    +0.000 A 
ATOM     21  C   UNL     1       5.243   3.824  15.398  0.00  0.00    +0.000 A 
ATOM     22  C   UNL     1       6.174   4.113  14.418  0.00  0.00    +0.000 A 
ATOM     23  N   UNL     1       7.313   4.774  14.688  0.00  0.00    +0.000 NA
ATOM     24  C   UNL     1       7.471   5.146  15.967  0.00  0.00    +0.000 A 
ATOM     25  N   UNL     1       6.618   4.916  16.979  0.00  0.00    +0.000 NA
BRANCH  22  26
ATOM     26  C   UNL     1       5.898   3.706  12.987  0.00  0.00    +0.000 C 
BRANCH  26  27
ATOM     27  N   UNL     1       7.028   3.976  12.092  0.00  0.00    +0.000 NA
ATOM     28  H   UNL     1       7.871   4.049  12.661  0.00  0.00    +0.000 HD
ATOM     29  H   UNL     1       6.896   4.895  11.672  0.00  0.00    +0.000 HD
ENDBRANCH  26  27
ENDBRANCH  22  26
ENDBRANCH  17  19
ENDBRANCH   1  17
TORSDOF 6
ENDMDL
MODEL 6
REMARK VINA RESULT:      -7.8      3.204      7.297
REMARK  Name = 
REMARK  7 active torsions:
REMARK  status: ('A' for Active; 'I' for Inactive)
REMARK    1  A    between atoms: C_1  and  N_2
REMARK    2  A    between atoms: N_2  and  C_3
REMARK    3  A    between atoms: C_3  and  C_4
REMARK    4  A    between atoms: C_8  and  C_9
REMARK    5  A    between atoms: N_11  and  C_12
REMARK    6  A    between atoms: C_21  and  C_22
REMARK    7  A    between atoms: C_22  and  N_23
REMARK                            x       y       z     vdW  Elec       q    Type
REMARK                         _______ _______ _______ _____ _____    ______ ____
ROOT
ATOM      1  C   UNL     1       4.116   3.347  17.716  0.00  0.00    +0.000 A 
ATOM      2  C   UNL     1       3.450   2.116  17.845  0.00  0.00    +0.000 A 
ATOM      3  C   UNL     1       2.261   2.024  18.562  0.00  0.00    +0.000 A 
ATOM      4  C   UNL     1       1.739   3.159  19.176  0.00  0.00    +0.000 A 
ATOM      5  C   UNL     1       2.404   4.393  19.087  0.00  0.00    +0.000 A 
ATOM      6  C   UNL     1       3.597   4.485  18.364  0.00  0.00    +0.000 A 
ENDROOT
BRANCH   5   7
ATOM      7  C   UNL     1       1.795   5.538  19.809  0.00  0.00    +0.000 C 
ATOM      8  O   UNL     1       0.884   5.278  20.589  0.00  0.00    +0.000 OA
ATOM      9  N   UNL     1       2.258   6.805  19.485  0.00  0.00    +0.000 N 
ATOM     10  H   UNL     1       2.886   6.891  18.699  0.00  0.00    +0.000 HD
BRANCH   9  11
ATOM     11  C   UNL     1       1.756   8.015  20.033  0.00  0.00    +0.000 A 
ATOM     12  C   UNL     1       1.626   8.231  21.406  0.00  0.00    +0.000 A 
ATOM     13  C   UNL     1       1.078   9.417  21.903  0.00  0.00    +0.000 A 
ATOM     14  C   UNL     1       0.661  10.411  21.023  0.00  0.00    +0.000 A 
ATOM     15  C   UNL     1       0.807  10.220  19.650  0.00  0.00    +0.000 A 
ATOM     16  C   UNL     1       1.364   9.031  19.156  0.00  0.00    +0.000 A 
ENDBRANCH   9  11
ENDBRANCH   5   7
BRANCH   1  17
ATOM     17  C   UNL     1       5.315   3.474  16.795  0.00  0.00    +0.000 C 
BRANCH  17  19
ATOM     18  C   UNL     1       5.452   5.347  15.121  0.00  0.00    +0.000 C 
ATOM     19  N   UNL     1       5.548   4.892  16.509  0.00  0.00    +0.000 N 
ATOM     20  C   UNL     1       6.498   5.552  17.297  0.00  0.00    +0.000 A 
ATOM     21  C   UNL     1       6.719   6.909  17.134  0.00  0.00    +0.000 A 
ATOM     22  C   UNL     1       7.643   7.535  17.950  0.00  0.00    +0.000 A 
ATOM     23  N   UNL     1       8.333   6.866  18.891  0.00  0.00    +0.000 NA
ATOM     24  C   UNL     1       8.047   5.560  18.993  0.00  0.00    +0.000 A 
ATOM     25  N   UNL     1       7.162   4.874  18.250  0.00  0.00    +0.000 NA
BRANCH  22  26
ATOM     26  C   UNL     1       7.870   9.024  17.810  0.00  0.00    +0.000 C 
BRANCH  26  27
ATOM     27  N   UNL     1       8.874   9.536  18.749  0.00  0.00    +0.000 NA
ATOM     28  H   UNL     1       8.522   9.395  19.696  0.00  0.00    +0.000 HD
ATOM     29  H   UNL     1       8.947  10.545  18.627  0.00  0.00    +0.000 HD
ENDBRANCH  26  27
ENDBRANCH  22  26
ENDBRANCH  17  19
ENDBRANCH   1  17
TORSDOF 6
ENDMDL
MODEL 7
REMARK VINA RESULT:      -7.6      7.312     10.020
REMARK  Name = 
REMARK  7 active torsions:
REMARK  status: ('A' for Active; 'I' for Inactive)
REMARK    1  A    between atoms: C_1  and  N_2
REMARK    2  A    between atoms: N_2  and  C_3
REMARK    3  A    between atoms: C_3  and  C_4
REMARK    4  A    between atoms: C_8  and  C_9
REMARK    5  A    between atoms: N_11  and  C_12
REMARK    6  A    between atoms: C_21  and  C_22
REMARK    7  A    between atoms: C_22  and  N_23
REMARK                            x       y       z     vdW  Elec       q    Type
REMARK                         _______ _______ _______ _____ _____    ______ ____
ROOT
ATOM      1  C   UNL     1      -0.255  10.829  20.585  0.00  0.00    +0.000 A 
ATOM      2  C   UNL     1      -0.347  10.489  21.946  0.00  0.00    +0.000 A 
ATOM      3  C   UNL     1       0.336   9.387  22.450  0.00  0.00    +0.000 A 
ATOM      4  C   UNL     1       1.099   8.600  21.592  0.00  0.00    +0.000 A 
ATOM      5  C   UNL     1       1.180   8.902  20.223  0.00  0.00    +0.000 A 
ATOM      6  C   UNL     1       0.496  10.012  19.718  0.00  0.00    +0.000 A 
ENDROOT
BRANCH   5   7
ATOM      7  C   UNL     1       1.983   7.982  19.378  0.00  0.00    +0.000 C 
ATOM      8  O   UNL     1       2.398   8.430  18.314  0.00  0.00    +0.000 OA
ATOM      9  N   UNL     1       2.129   6.678  19.831  0.00  0.00    +0.000 N 
ATOM     10  H   UNL     1       1.588   6.395  20.634  0.00  0.00    +0.000 HD
BRANCH   9  11
ATOM     11  C   UNL     1       2.814   5.651  19.130  0.00  0.00    +0.000 A 
ATOM     12  C   UNL     1       2.216   4.886  18.126  0.00  0.00    +0.000 A 
ATOM     13  C   UNL     1       2.910   3.848  17.498  0.00  0.00    +0.000 A 
ATOM     14  C   UNL     1       4.223   3.570  17.864  0.00  0.00    +0.000 A 
ATOM     15  C   UNL     1       4.841   4.340  18.846  0.00  0.00    +0.000 A 
ATOM     16  C   UNL     1       4.144   5.385  19.470  0.00  0.00    +0.000 A 
ENDBRANCH   9  11
ENDBRANCH   5   7
BRANCH   1  17
ATOM     17  C   UNL     1      -0.862  12.125  20.079  0.00  0.00    +0.000 C 
BRANCH  17  19
ATOM     18  C   UNL     1      -1.637  11.988  17.690  0.00  0.00    +0.000 C 
ATOM     19  N   UNL     1      -1.919  11.810  19.115  0.00  0.00    +0.000 N 
ATOM     20  C   UNL     1      -3.236  12.075  19.508  0.00  0.00    +0.000 A 
ATOM     21  C   UNL     1      -4.293  11.737  18.679  0.00  0.00    +0.000 A 
ATOM     22  C   UNL     1      -5.583  11.985  19.111  0.00  0.00    +0.000 A 
ATOM     23  N   UNL     1      -5.839  12.545  20.306  0.00  0.00    +0.000 NA
ATOM     24  C   UNL     1      -4.761  12.827  21.052  0.00  0.00    +0.000 A 
ATOM     25  N   UNL     1      -3.478  12.614  20.716  0.00  0.00    +0.000 NA
BRANCH  22  26
ATOM     26  C   UNL     1      -6.750  11.588  18.234  0.00  0.00    +0.000 C 
BRANCH  26  27
ATOM     27  N   UNL     1      -6.814  12.362  16.990  0.00  0.00    +0.000 NA
ATOM     28  H   UNL     1      -6.333  11.831  16.263  0.00  0.00    +0.000 HD
ATOM     29  H   UNL     1      -6.273  13.217  17.112  0.00  0.00    +0.000 HD
ENDBRANCH  26  27
ENDBRANCH  22  26
ENDBRANCH  17  19
ENDBRANCH   1  17
TORSDOF 6
ENDMDL
MODEL 8
REMARK VINA RESULT:      -7.6      5.594      8.309
REMARK  Name = 
REMARK  7 active torsions:
REMARK  status: ('A' for Active; 'I' for Inactive)
REMARK    1  A    between atoms: C_1  and  N_2
REMARK    2  A    between atoms: N_2  and  C_3
REMARK    3  A    between atoms: C_3  and  C_4
REMARK    4  A    between atoms: C_8  and  C_9
REMARK    5  A    between atoms: N_11  and  C_12
REMARK    6  A    between atoms: C_21  and  C_22
REMARK    7  A    between atoms: C_22  and  N_23
REMARK                            x       y       z     vdW  Elec       q    Type
REMARK                         _______ _______ _______ _____ _____    ______ ____
ROOT
ATOM      1  C   UNL     1       2.543   7.201  19.238  0.00  0.00    +0.000 A 
ATOM      2  C   UNL     1       2.730   7.890  18.027  0.00  0.00    +0.000 A 
ATOM      3  C   UNL     1       2.078   9.095  17.788  0.00  0.00    +0.000 A 
ATOM      4  C   UNL     1       1.215   9.612  18.749  0.00  0.00    +0.000 A 
ATOM      5  C   UNL     1       0.989   8.926  19.954  0.00  0.00    +0.000 A 
ATOM      6  C   UNL     1       1.647   7.716  20.195  0.00  0.00    +0.000 A 
ENDROOT
BRANCH   5   7
ATOM      7  C   UNL     1       0.020   9.533  20.901  0.00  0.00    +0.000 C 
ATOM      8  O   UNL     1      -0.465   8.788  21.747  0.00  0.00    +0.000 OA
ATOM      9  N   UNL     1      -0.307  10.866  20.699  0.00  0.00    +0.000 N 
ATOM     10  H   UNL     1       0.031  11.313  19.859  0.00  0.00    +0.000 HD
BRANCH   9  11
ATOM     11  C   UNL     1      -1.252  11.593  21.470  0.00  0.00    +0.000 A 
ATOM     12  C   UNL     1      -1.277  11.565  22.866  0.00  0.00    +0.000 A 
ATOM     13  C   UNL     1      -2.258  12.253  23.585  0.00  0.00    +0.000 A 
ATOM     14  C   UNL     1      -3.225  12.992  22.909  0.00  0.00    +0.000 A 
ATOM     15  C   UNL     1      -3.198  13.050  21.517  0.00  0.00    +0.000 A 
ATOM     16  C   UNL     1      -2.208  12.363  20.799  0.00  0.00    +0.000 A 
ENDBRANCH   9  11
ENDBRANCH   5   7
BRANCH   1  17
ATOM     17  C   UNL     1       3.385   5.980  19.560  0.00  0.00    +0.000 C 
BRANCH  17  19
ATOM     18  C   UNL     1       2.778   3.932  18.232  0.00  0.00    +0.000 C 
ATOM     19  N   UNL     1       3.541   5.176  18.346  0.00  0.00    +0.000 N 
ATOM     20  C   UNL     1       4.807   5.165  17.749  0.00  0.00    +0.000 A 
ATOM     21  C   UNL     1       5.013   4.487  16.560  0.00  0.00    +0.000 A 
ATOM     22  C   UNL     1       6.268   4.522  15.982  0.00  0.00    +0.000 A 
ATOM     23  N   UNL     1       7.292   5.190  16.542  0.00  0.00    +0.000 NA
ATOM     24  C   UNL     1       7.004   5.831  17.683  0.00  0.00    +0.000 A 
ATOM     25  N   UNL     1       5.815   5.858  18.309  0.00  0.00    +0.000 NA
BRANCH  22  26
ATOM     26  C   UNL     1       6.500   3.817  14.664  0.00  0.00    +0.000 C 
BRANCH  26  27
ATOM     27  N   UNL     1       5.447   4.089  13.681  0.00  0.00    +0.000 NA
ATOM     28  H   UNL     1       5.145   5.056  13.801  0.00  0.00    +0.000 HD
ATOM     29  H   UNL     1       4.635   3.515  13.908  0.00  0.00    +0.000 HD
ENDBRANCH  26  27
ENDBRANCH  22  26
ENDBRANCH  17  19
ENDBRANCH   1  17
TORSDOF 6
ENDMDL
MODEL 9
REMARK VINA RESULT:      -7.6      1.828      2.475
REMARK  Name = 
REMARK  7 active torsions:
REMARK  status: ('A' for Active; 'I' for Inactive)
REMARK    1  A    between atoms: C_1  and  N_2
REMARK    2  A    between atoms: N_2  and  C_3
REMARK    3  A    between atoms: C_3  and  C_4
REMARK    4  A    between atoms: C_8  and  C_9
REMARK    5  A    between atoms: N_11  and  C_12
REMARK    6  A    between atoms: C_21  and  C_22
REMARK    7  A    between atoms: C_22  and  N_23
REMARK                            x       y       z     vdW  Elec       q    Type
REMARK                         _______ _______ _______ _____ _____    ______ ____
ROOT
ATOM      1  C   UNL     1       6.804   7.032  17.190  0.00  0.00    +0.000 A 
ATOM      2  C   UNL     1       7.242   5.984  18.019  0.00  0.00    +0.000 A 
ATOM      3  C   UNL     1       8.148   6.224  19.047  0.00  0.00    +0.000 A 
ATOM      4  C   UNL     1       8.642   7.510  19.241  0.00  0.00    +0.000 A 
ATOM      5  C   UNL     1       8.242   8.567  18.406  0.00  0.00    +0.000 A 
ATOM      6  C   UNL     1       7.329   8.326  17.375  0.00  0.00    +0.000 A 
ENDROOT
BRANCH   5   7
ATOM      7  C   UNL     1       8.854   9.895  18.663  0.00  0.00    +0.000 C 
ATOM      8  O   UNL     1       9.331  10.077  19.778  0.00  0.00    +0.000 OA
ATOM      9  N   UNL     1       8.767  10.835  17.645  0.00  0.00    +0.000 N 
ATOM     10  H   UNL     1       8.193  10.612  16.845  0.00  0.00    +0.000 HD
BRANCH   9  11
ATOM     11  C   UNL     1       9.245  12.169  17.733  0.00  0.00    +0.000 A 
ATOM     12  C   UNL     1       8.443  13.240  18.131  0.00  0.00    +0.000 A 
ATOM     13  C   UNL     1       8.939  14.546  18.154  0.00  0.00    +0.000 A 
ATOM     14  C   UNL     1      10.258  14.794  17.784  0.00  0.00    +0.000 A 
ATOM     15  C   UNL     1      11.078  13.732  17.407  0.00  0.00    +0.000 A 
ATOM     16  C   UNL     1      10.578  12.422  17.393  0.00  0.00    +0.000 A 
ENDBRANCH   9  11
ENDBRANCH   5   7
BRANCH   1  17
ATOM     17  C   UNL     1       5.691   6.797  16.185  0.00  0.00    +0.000 C 
BRANCH  17  19
ATOM     18  C   UNL     1       5.547   4.629  14.917  0.00  0.00    +0.000 C 
ATOM     19  N   UNL     1       5.361   5.369  16.166  0.00  0.00    +0.000 N 
ATOM     20  C   UNL     1       4.286   4.955  16.961  0.00  0.00    +0.000 A 
ATOM     21  C   UNL     1       3.962   3.612  17.050  0.00  0.00    +0.000 A 
ATOM     22  C   UNL     1       2.913   3.234  17.867  0.00  0.00    +0.000 A 
ATOM     23  N   UNL     1       2.199   4.130  18.573  0.00  0.00    +0.000 NA
ATOM     24  C   UNL     1       2.589   5.406  18.441  0.00  0.00    +0.000 A 
ATOM     25  N   UNL     1       3.598   5.860  17.678  0.00  0.00    +0.000 NA
BRANCH  22  26
ATOM     26  C   UNL     1       2.568   1.767  18.005  0.00  0.00    +0.000 C 
BRANCH  26  27
ATOM     27  N   UNL     1       3.730   0.940  18.346  0.00  0.00    +0.000 NA
ATOM     28  H   UNL     1       4.553   1.357  17.910  0.00  0.00    +0.000 HD
ATOM     29  H   UNL     1       3.617   0.026  17.910  0.00  0.00    +0.000 HD
ENDBRANCH  26  27
ENDBRANCH  22  26
ENDBRANCH  17  19
ENDBRANCH   1  17
TORSDOF 6
ENDMDL
