MODEL 1
REMARK VINA RESULT:      -6.2      0.000      0.000
REMARK  Name = 
REMARK  6 active torsions:
REMARK  status: ('A' for Active; 'I' for Inactive)
REMARK    1  A    between atoms: C_1  and  C_2
REMARK    2  A    between atoms: C_2  and  C_12
REMARK    3  A    between atoms: N_3  and  N_4
REMARK    4  A    between atoms: N_4  and  C_5
REMARK    5  A    between atoms: C_5  and  C_6
REMARK    6  A    between atoms: C_12  and  O_14
REMARK                            x       y       z     vdW  Elec       q    Type
REMARK                         _______ _______ _______ _____ _____    ______ ____
ROOT
ATOM      1  N   UNL     1       3.985   6.468  17.446  0.00  0.00    +0.000 N 
ATOM      2  H   UNL     1       3.986   7.262  16.798  0.00  0.00    +0.000 HD
ENDROOT
BRANCH   1   5
ATOM      3  C   UNL     1       5.213   4.416  15.926  0.00  0.00    +0.000 C 
ATOM      4  C   UNL     1       5.783   5.144  17.113  0.00  0.00    +0.000 C 
ATOM      5  N   UNL     1       5.227   6.091  17.825  0.00  0.00    +0.000 NA
BRANCH   4   6
ATOM      6  C   UNL     1       7.185   4.705  17.547  0.00  0.00    +0.000 C 
ATOM      7  O   UNL     1       7.520   4.612  18.709  0.00  0.00    +0.000 OA
BRANCH   6   8
ATOM      8  O   UNL     1       7.958   4.438  16.479  0.00  0.00    +0.000 OA
ATOM      9  H   UNL     1       7.581   4.911  15.702  0.00  0.00    +0.000 HD
ENDBRANCH   6   8
ENDBRANCH   4   6
ENDBRANCH   1   5
BRANCH   1  10
ATOM     10  C   UNL     1       2.996   6.753  18.492  0.00  0.00    +0.000 C 
BRANCH  10  11
ATOM     11  C   UNL     1       2.305   5.477  18.920  0.00  0.00    +0.000 A 
ATOM     12  C   UNL     1       1.974   4.500  17.968  0.00  0.00    +0.000 A 
ATOM     13  C   UNL     1       1.293   3.341  18.345  0.00  0.00    +0.000 A 
ATOM     14  C   UNL     1       0.944   3.141  19.679  0.00  0.00    +0.000 A 
ATOM     15  C   UNL     1       1.280   4.097  20.636  0.00  0.00    +0.000 A 
ATOM     16  C   UNL     1       1.957   5.259  20.261  0.00  0.00    +0.000 A 
ENDBRANCH  10  11
ENDBRANCH   1  10
TORSDOF 5
ENDMDL
MODEL 2
REMARK VINA RESULT:      -6.2      1.778      2.378
REMARK  Name = 
REMARK  6 active torsions:
REMARK  status: ('A' for Active; 'I' for Inactive)
REMARK    1  A    between atoms: C_1  and  C_2
REMARK    2  A    between atoms: C_2  and  C_12
REMARK    3  A    between atoms: N_3  and  N_4
REMARK    4  A    between atoms: N_4  and  C_5
REMARK    5  A    between atoms: C_5  and  C_6
REMARK    6  A    between atoms: C_12  and  O_14
REMARK                            x       y       z     vdW  Elec       q    Type
REMARK                         _______ _______ _______ _____ _____    ______ ____
ROOT
ATOM      1  N   UNL     1       3.664   4.204  17.144  0.00  0.00    +0.000 N 
ATOM      2  H   UNL     1       3.527   4.807  17.962  0.00  0.00    +0.000 HD
ENDROOT
BRANCH   1   5
ATOM      3  C   UNL     1       5.692   5.285  18.803  0.00  0.00    +0.000 C 
ATOM      4  C   UNL     1       5.824   4.817  17.379  0.00  0.00    +0.000 C 
ATOM      5  N   UNL     1       4.897   4.318  16.601  0.00  0.00    +0.000 NA
BRANCH   4   6
ATOM      6  C   UNL     1       7.220   4.959  16.763  0.00  0.00    +0.000 C 
ATOM      7  O   UNL     1       7.475   5.748  15.878  0.00  0.00    +0.000 OA
BRANCH   6   8
ATOM      8  O   UNL     1       8.090   4.112  17.340  0.00  0.00    +0.000 OA
ATOM      9  H   UNL     1       8.157   3.309  16.773  0.00  0.00    +0.000 HD
ENDBRANCH   6   8
ENDBRANCH   4   6
ENDBRANCH   1   5
BRANCH   1  10
ATOM     10  C   UNL     1       3.183   2.863  17.498  0.00  0.00    +0.000 C 
BRANCH  10  11
ATOM     11  C   UNL     1       2.594   2.870  18.891  0.00  0.00    +0.000 A 
ATOM     12  C   UNL     1       1.238   3.178  19.084  0.00  0.00    +0.000 A 
ATOM     13  C   UNL     1       0.696   3.235  20.369  0.00  0.00    +0.000 A 
ATOM     14  C   UNL     1       1.501   2.972  21.476  0.00  0.00    +0.000 A 
ATOM     15  C   UNL     1       2.845   2.649  21.298  0.00  0.00    +0.000 A 
ATOM     16  C   UNL     1       3.390   2.597  20.014  0.00  0.00    +0.000 A 
ENDBRANCH  10  11
ENDBRANCH   1  10
TORSDOF 5
ENDMDL
MODEL 3
REMARK VINA RESULT:      -6.1      1.945      2.431
REMARK  Name = 
REMARK  6 active torsions:
REMARK  status: ('A' for Active; 'I' for Inactive)
REMARK    1  A    between atoms: C_1  and  C_2
REMARK    2  A    between atoms: C_2  and  C_12
REMARK    3  A    between atoms: N_3  and  N_4
REMARK    4  A    between atoms: N_4  and  C_5
REMARK    5  A    between atoms: C_5  and  C_6
REMARK    6  A    between atoms: C_12  and  O_14
REMARK                            x       y       z     vdW  Elec       q    Type
REMARK                         _______ _______ _______ _____ _____    ______ ____
ROOT
ATOM      1  N   UNL     1       5.524   3.589  18.648  0.00  0.00    +0.000 N 
ATOM      2  H   UNL     1       6.049   2.879  18.128  0.00  0.00    +0.000 HD
ENDROOT
BRANCH   1   5
ATOM      3  C   UNL     1       7.075   4.422  16.427  0.00  0.00    +0.000 C 
ATOM      4  C   UNL     1       6.905   5.130  17.744  0.00  0.00    +0.000 C 
ATOM      5  N   UNL     1       6.195   4.756  18.778  0.00  0.00    +0.000 NA
BRANCH   4   6
ATOM      6  C   UNL     1       7.675   6.445  17.891  0.00  0.00    +0.000 C 
ATOM      7  O   UNL     1       7.767   7.263  16.999  0.00  0.00    +0.000 OA
BRANCH   6   8
ATOM      8  O   UNL     1       8.208   6.556  19.120  0.00  0.00    +0.000 OA
ATOM      9  H   UNL     1       7.866   5.815  19.671  0.00  0.00    +0.000 HD
ENDBRANCH   6   8
ENDBRANCH   4   6
ENDBRANCH   1   5
BRANCH   1  10
ATOM     10  C   UNL     1       4.165   3.627  18.096  0.00  0.00    +0.000 C 
BRANCH  10  11
ATOM     11  C   UNL     1       3.149   3.384  19.190  0.00  0.00    +0.000 A 
ATOM     12  C   UNL     1       1.808   3.756  19.004  0.00  0.00    +0.000 A 
ATOM     13  C   UNL     1       0.872   3.581  20.025  0.00  0.00    +0.000 A 
ATOM     14  C   UNL     1       1.264   3.022  21.240  0.00  0.00    +0.000 A 
ATOM     15  C   UNL     1       2.590   2.635  21.432  0.00  0.00    +0.000 A 
ATOM     16  C   UNL     1       3.528   2.813  20.414  0.00  0.00    +0.000 A 
ENDBRANCH  10  11
ENDBRANCH   1  10
TORSDOF 5
ENDMDL
MODEL 4
REMARK VINA RESULT:      -6.1      2.220      2.901
REMARK  Name = 
REMARK  6 active torsions:
REMARK  status: ('A' for Active; 'I' for Inactive)
REMARK    1  A    between atoms: C_1  and  C_2
REMARK    2  A    between atoms: C_2  and  C_12
REMARK    3  A    between atoms: N_3  and  N_4
REMARK    4  A    between atoms: N_4  and  C_5
REMARK    5  A    between atoms: C_5  and  C_6
REMARK    6  A    between atoms: C_12  and  O_14
REMARK                            x       y       z     vdW  Elec       q    Type
REMARK                         _______ _______ _______ _____ _____    ______ ____
ROOT
ATOM      1  N   UNL     1       4.799   3.583  17.590  0.00  0.00    +0.000 N 
ATOM      2  H   UNL     1       5.562   3.367  18.238  0.00  0.00    +0.000 HD
ENDROOT
BRANCH   1   5
ATOM      3  C   UNL     1       7.441   4.582  17.360  0.00  0.00    +0.000 C 
ATOM      4  C   UNL     1       6.453   4.340  16.252  0.00  0.00    +0.000 C 
ATOM      5  N   UNL     1       5.230   3.882  16.343  0.00  0.00    +0.000 NA
BRANCH   4   6
ATOM      6  C   UNL     1       6.941   4.691  14.843  0.00  0.00    +0.000 C 
ATOM      7  O   UNL     1       7.794   5.526  14.626  0.00  0.00    +0.000 OA
BRANCH   6   8
ATOM      8  O   UNL     1       6.307   3.952  13.915  0.00  0.00    +0.000 OA
ATOM      9  H   UNL     1       5.985   3.128  14.349  0.00  0.00    +0.000 HD
ENDBRANCH   6   8
ENDBRANCH   4   6
ENDBRANCH   1   5
BRANCH   1  10
ATOM     10  C   UNL     1       3.781   2.537  17.740  0.00  0.00    +0.000 C 
BRANCH  10  11
ATOM     11  C   UNL     1       2.924   2.811  18.956  0.00  0.00    +0.000 A 
ATOM     12  C   UNL     1       3.423   2.558  20.244  0.00  0.00    +0.000 A 
ATOM     13  C   UNL     1       2.624   2.762  21.370  0.00  0.00    +0.000 A 
ATOM     14  C   UNL     1       1.320   3.231  21.222  0.00  0.00    +0.000 A 
ATOM     15  C   UNL     1       0.818   3.501  19.950  0.00  0.00    +0.000 A 
ATOM     16  C   UNL     1       1.614   3.294  18.822  0.00  0.00    +0.000 A 
ENDBRANCH  10  11
ENDBRANCH   1  10
TORSDOF 5
ENDMDL
MODEL 5
REMARK VINA RESULT:      -6.1      1.093      1.254
REMARK  Name = 
REMARK  6 active torsions:
REMARK  status: ('A' for Active; 'I' for Inactive)
REMARK    1  A    between atoms: C_1  and  C_2
REMARK    2  A    between atoms: C_2  and  C_12
REMARK    3  A    between atoms: N_3  and  N_4
REMARK    4  A    between atoms: N_4  and  C_5
REMARK    5  A    between atoms: C_5  and  C_6
REMARK    6  A    between atoms: C_12  and  O_14
REMARK                            x       y       z     vdW  Elec       q    Type
REMARK                         _______ _______ _______ _____ _____    ______ ____
ROOT
ATOM      1  N   UNL     1       4.035   5.898  17.340  0.00  0.00    +0.000 N 
ATOM      2  H   UNL     1       4.375   6.698  16.797  0.00  0.00    +0.000 HD
ENDROOT
BRANCH   1   5
ATOM      3  C   UNL     1       6.596   7.109  17.291  0.00  0.00    +0.000 C 
ATOM      4  C   UNL     1       6.181   5.871  18.040  0.00  0.00    +0.000 C 
ATOM      5  N   UNL     1       5.004   5.300  18.069  0.00  0.00    +0.000 NA
BRANCH   4   6
ATOM      6  C   UNL     1       7.285   5.190  18.855  0.00  0.00    +0.000 C 
ATOM      7  O   UNL     1       7.508   5.454  20.018  0.00  0.00    +0.000 OA
BRANCH   6   8
ATOM      8  O   UNL     1       7.940   4.280  18.113  0.00  0.00    +0.000 OA
ATOM      9  H   UNL     1       7.278   3.645  17.753  0.00  0.00    +0.000 HD
ENDBRANCH   6   8
ENDBRANCH   4   6
ENDBRANCH   1   5
BRANCH   1  10
ATOM     10  C   UNL     1       2.809   6.320  18.028  0.00  0.00    +0.000 C 
BRANCH  10  11
ATOM     11  C   UNL     1       2.150   5.135  18.697  0.00  0.00    +0.000 A 
ATOM     12  C   UNL     1       1.709   4.045  17.930  0.00  0.00    +0.000 A 
ATOM     13  C   UNL     1       1.056   2.968  18.532  0.00  0.00    +0.000 A 
ATOM     14  C   UNL     1       0.847   2.963  19.909  0.00  0.00    +0.000 A 
ATOM     15  C   UNL     1       1.293   4.031  20.685  0.00  0.00    +0.000 A 
ATOM     16  C   UNL     1       1.942   5.112  20.084  0.00  0.00    +0.000 A 
ENDBRANCH  10  11
ENDBRANCH   1  10
TORSDOF 5
ENDMDL
MODEL 6
REMARK VINA RESULT:      -6.1      1.010      1.523
REMARK  Name = 
REMARK  6 active torsions:
REMARK  status: ('A' for Active; 'I' for Inactive)
REMARK    1  A    between atoms: C_1  and  C_2
REMARK    2  A    between atoms: C_2  and  C_12
REMARK    3  A    between atoms: N_3  and  N_4
REMARK    4  A    between atoms: N_4  and  C_5
REMARK    5  A    between atoms: C_5  and  C_6
REMARK    6  A    between atoms: C_12  and  O_14
REMARK                            x       y       z     vdW  Elec       q    Type
REMARK                         _______ _______ _______ _____ _____    ______ ____
ROOT
ATOM      1  N   UNL     1       4.244   6.134  18.233  0.00  0.00    +0.000 N 
ATOM      2  H   UNL     1       4.359   6.309  19.237  0.00  0.00    +0.000 HD
ENDROOT
BRANCH   1   5
ATOM      3  C   UNL     1       6.783   7.138  17.471  0.00  0.00    +0.000 C 
ATOM      4  C   UNL     1       6.300   5.714  17.401  0.00  0.00    +0.000 C 
ATOM      5  N   UNL     1       5.132   5.237  17.746  0.00  0.00    +0.000 NA
BRANCH   4   6
ATOM      6  C   UNL     1       7.304   4.703  16.837  0.00  0.00    +0.000 C 
ATOM      7  O   UNL     1       7.500   4.556  15.649  0.00  0.00    +0.000 OA
BRANCH   6   8
ATOM      8  O   UNL     1       7.920   4.033  17.827  0.00  0.00    +0.000 OA
ATOM      9  H   UNL     1       8.892   4.101  17.684  0.00  0.00    +0.000 HD
ENDBRANCH   6   8
ENDBRANCH   4   6
ENDBRANCH   1   5
BRANCH   1  10
ATOM     10  C   UNL     1       2.816   5.903  17.985  0.00  0.00    +0.000 C 
BRANCH  10  11
ATOM     11  C   UNL     1       2.280   4.864  18.944  0.00  0.00    +0.000 A 
ATOM     12  C   UNL     1       1.500   3.798  18.468  0.00  0.00    +0.000 A 
ATOM     13  C   UNL     1       0.960   2.861  19.350  0.00  0.00    +0.000 A 
ATOM     14  C   UNL     1       1.202   2.973  20.718  0.00  0.00    +0.000 A 
ATOM     15  C   UNL     1       1.986   4.018  21.203  0.00  0.00    +0.000 A 
ATOM     16  C   UNL     1       2.524   4.959  20.322  0.00  0.00    +0.000 A 
ENDBRANCH  10  11
ENDBRANCH   1  10
TORSDOF 5
ENDMDL
MODEL 7
REMARK VINA RESULT:      -6.1      1.548      2.190
REMARK  Name = 
REMARK  6 active torsions:
REMARK  status: ('A' for Active; 'I' for Inactive)
REMARK    1  A    between atoms: C_1  and  C_2
REMARK    2  A    between atoms: C_2  and  C_12
REMARK    3  A    between atoms: N_3  and  N_4
REMARK    4  A    between atoms: N_4  and  C_5
REMARK    5  A    between atoms: C_5  and  C_6
REMARK    6  A    between atoms: C_12  and  O_14
REMARK                            x       y       z     vdW  Elec       q    Type
REMARK                         _______ _______ _______ _____ _____    ______ ____
ROOT
ATOM      1  N   UNL     1       3.949   4.356  17.014  0.00  0.00    +0.000 N 
ATOM      2  H   UNL     1       3.667   5.075  17.688  0.00  0.00    +0.000 HD
ENDROOT
BRANCH   1   5
ATOM      3  C   UNL     1       5.528   5.378  19.134  0.00  0.00    +0.000 C 
ATOM      4  C   UNL     1       6.007   4.727  17.865  0.00  0.00    +0.000 C 
ATOM      5  N   UNL     1       5.291   4.254  16.877  0.00  0.00    +0.000 NA
BRANCH   4   6
ATOM      6  C   UNL     1       7.527   4.624  17.709  0.00  0.00    +0.000 C 
ATOM      7  O   UNL     1       8.294   4.669  18.648  0.00  0.00    +0.000 OA
BRANCH   6   8
ATOM      8  O   UNL     1       7.870   4.471  16.418  0.00  0.00    +0.000 OA
ATOM      9  H   UNL     1       7.044   4.359  15.893  0.00  0.00    +0.000 HD
ENDBRANCH   6   8
ENDBRANCH   4   6
ENDBRANCH   1   5
BRANCH   1  10
ATOM     10  C   UNL     1       3.187   3.140  17.319  0.00  0.00    +0.000 C 
BRANCH  10  11
ATOM     11  C   UNL     1       2.609   3.221  18.714  0.00  0.00    +0.000 A 
ATOM     12  C   UNL     1       3.252   2.580  19.785  0.00  0.00    +0.000 A 
ATOM     13  C   UNL     1       2.701   2.608  21.067  0.00  0.00    +0.000 A 
ATOM     14  C   UNL     1       1.507   3.287  21.296  0.00  0.00    +0.000 A 
ATOM     15  C   UNL     1       0.865   3.941  20.245  0.00  0.00    +0.000 A 
ATOM     16  C   UNL     1       1.413   3.910  18.961  0.00  0.00    +0.000 A 
ENDBRANCH  10  11
ENDBRANCH   1  10
TORSDOF 5
ENDMDL
MODEL 8
REMARK VINA RESULT:      -6.0      0.915      1.890
REMARK  Name = 
REMARK  6 active torsions:
REMARK  status: ('A' for Active; 'I' for Inactive)
REMARK    1  A    between atoms: C_1  and  C_2
REMARK    2  A    between atoms: C_2  and  C_12
REMARK    3  A    between atoms: N_3  and  N_4
REMARK    4  A    between atoms: N_4  and  C_5
REMARK    5  A    between atoms: C_5  and  C_6
REMARK    6  A    between atoms: C_12  and  O_14
REMARK                            x       y       z     vdW  Elec       q    Type
REMARK                         _______ _______ _______ _____ _____    ______ ____
ROOT
ATOM      1  N   UNL     1       4.245   6.247  18.380  0.00  0.00    +0.000 N 
ATOM      2  H   UNL     1       4.145   6.398  19.389  0.00  0.00    +0.000 HD
ENDROOT
BRANCH   1   5
ATOM      3  C   UNL     1       6.645   7.236  17.242  0.00  0.00    +0.000 C 
ATOM      4  C   UNL     1       6.297   5.805  17.549  0.00  0.00    +0.000 C 
ATOM      5  N   UNL     1       5.193   5.334  18.071  0.00  0.00    +0.000 NA
BRANCH   4   6
ATOM      6  C   UNL     1       7.369   4.772  17.187  0.00  0.00    +0.000 C 
ATOM      7  O   UNL     1       7.740   4.574  16.049  0.00  0.00    +0.000 OA
BRANCH   6   8
ATOM      8  O   UNL     1       7.826   4.146  18.286  0.00  0.00    +0.000 OA
ATOM      9  H   UNL     1       7.265   4.417  19.048  0.00  0.00    +0.000 HD
ENDBRANCH   6   8
ENDBRANCH   4   6
ENDBRANCH   1   5
BRANCH   1  10
ATOM     10  C   UNL     1       2.899   6.065  17.825  0.00  0.00    +0.000 C 
BRANCH  10  11
ATOM     11  C   UNL     1       2.167   4.973  18.574  0.00  0.00    +0.000 A 
ATOM     12  C   UNL     1       1.996   5.063  19.965  0.00  0.00    +0.000 A 
ATOM     13  C   UNL     1       1.365   4.038  20.672  0.00  0.00    +0.000 A 
ATOM     14  C   UNL     1       0.889   2.917  19.996  0.00  0.00    +0.000 A 
ATOM     15  C   UNL     1       1.039   2.822  18.613  0.00  0.00    +0.000 A 
ATOM     16  C   UNL     1       1.673   3.844  17.905  0.00  0.00    +0.000 A 
ENDBRANCH  10  11
ENDBRANCH   1  10
TORSDOF 5
ENDMDL
MODEL 9
REMARK VINA RESULT:      -6.0      1.000      1.204
REMARK  Name = 
REMARK  6 active torsions:
REMARK  status: ('A' for Active; 'I' for Inactive)
REMARK    1  A    between atoms: C_1  and  C_2
REMARK    2  A    between atoms: C_2  and  C_12
REMARK    3  A    between atoms: N_3  and  N_4
REMARK    4  A    between atoms: N_4  and  C_5
REMARK    5  A    between atoms: C_5  and  C_6
REMARK    6  A    between atoms: C_12  and  O_14
REMARK                            x       y       z     vdW  Elec       q    Type
REMARK                         _______ _______ _______ _____ _____    ______ ____
ROOT
ATOM      1  N   UNL     1       3.609   5.456  17.358  0.00  0.00    +0.000 N 
ATOM      2  H   UNL     1       3.198   5.656  16.441  0.00  0.00    +0.000 HD
ENDROOT
BRANCH   1   5
ATOM      3  C   UNL     1       5.408   4.032  15.694  0.00  0.00    +0.000 C 
ATOM      4  C   UNL     1       5.734   5.134  16.664  0.00  0.00    +0.000 C 
ATOM      5  N   UNL     1       4.916   5.798  17.440  0.00  0.00    +0.000 NA
BRANCH   4   6
ATOM      6  C   UNL     1       7.215   5.511  16.763  0.00  0.00    +0.000 C 
ATOM      7  O   UNL     1       7.621   6.645  16.618  0.00  0.00    +0.000 OA
BRANCH   6   8
ATOM      8  O   UNL     1       7.970   4.432  17.034  0.00  0.00    +0.000 OA
ATOM      9  H   UNL     1       8.072   3.913  16.203  0.00  0.00    +0.000 HD
ENDBRANCH   6   8
ENDBRANCH   4   6
ENDBRANCH   1   5
BRANCH   1  10
ATOM     10  C   UNL     1       2.690   5.975  18.378  0.00  0.00    +0.000 C 
BRANCH  10  11
ATOM     11  C   UNL     1       2.205   4.850  19.266  0.00  0.00    +0.000 A 
ATOM     12  C   UNL     1       1.386   3.838  18.741  0.00  0.00    +0.000 A 
ATOM     13  C   UNL     1       0.894   2.823  19.562  0.00  0.00    +0.000 A 
ATOM     14  C   UNL     1       1.223   2.801  20.915  0.00  0.00    +0.000 A 
ATOM     15  C   UNL     1       2.048   3.792  21.447  0.00  0.00    +0.000 A 
ATOM     16  C   UNL     1       2.538   4.811  20.628  0.00  0.00    +0.000 A 
ENDBRANCH  10  11
ENDBRANCH   1  10
TORSDOF 5
ENDMDL
