MODEL 1
REMARK VINA RESULT:      -7.0      0.000      0.000
REMARK  Name = 
REMARK  4 active torsions:
REMARK  status: ('A' for Active; 'I' for Inactive)
REMARK    1  A    between atoms: C_1  and  C_2
REMARK    2  A    between atoms: C_2  and  N_3
REMARK    3  A    between atoms: C_6  and  C_7
REMARK    4  A    between atoms: N_10  and  C_11
REMARK                            x       y       z     vdW  Elec       q    Type
REMARK                         _______ _______ _______ _____ _____    ______ ____
ROOT
ATOM      1  N   UNL     1       2.232   7.392  19.540  0.00  0.00    +0.000 N 
ATOM      2  C   UNL     1       2.401   5.988  19.536  0.00  0.00    +0.000 A 
ATOM      3  C   UNL     1       1.917   5.252  20.593  0.00  0.00    +0.000 A 
ATOM      4  C   UNL     1       2.090   3.886  20.525  0.00  0.00    +0.000 A 
ATOM      5  C   UNL     1       1.512   2.985  21.575  0.00  0.00    +0.000 C 
ATOM      6  N   UNL     1       2.769   3.291  19.521  0.00  0.00    +0.000 NA
ATOM      7  C   UNL     1       3.291   4.088  18.576  0.00  0.00    +0.000 A 
ATOM      8  N   UNL     1       4.088   3.456  17.618  0.00  0.00    +0.000 N 
ATOM      9  N   UNL     1       3.093   5.409  18.548  0.00  0.00    +0.000 NA
ATOM     10  H   UNL     1       1.319   7.622  19.921  0.00  0.00    +0.000 HD
ATOM     11  H   UNL     1       4.160   2.481  17.868  0.00  0.00    +0.000 HD
ENDROOT
BRANCH   8  12
ATOM     12  C   UNL     1       5.116   3.963  16.807  0.00  0.00    +0.000 A 
ATOM     13  C   UNL     1       6.317   4.375  17.407  0.00  0.00    +0.000 A 
ATOM     14  C   UNL     1       7.364   4.910  16.651  0.00  0.00    +0.000 A 
ATOM     15  C   UNL     1       7.240   5.023  15.267  0.00  0.00    +0.000 A 
ATOM     16  C   UNL     1       6.078   4.585  14.647  0.00  0.00    +0.000 A 
ATOM     17  C   UNL     1       5.036   4.052  15.412  0.00  0.00    +0.000 A 
ENDBRANCH   8  12
BRANCH   1  19
ATOM     18  C   UNL     1       1.505   9.183  18.043  0.00  0.00    +0.000 C 
ATOM     19  C   UNL     1       2.411   7.977  18.209  0.00  0.00    +0.000 C 
ENDBRANCH   1  19
TORSDOF 2
ENDMDL
MODEL 2
REMARK VINA RESULT:      -7.0      0.106      1.166
REMARK  Name = 
REMARK  4 active torsions:
REMARK  status: ('A' for Active; 'I' for Inactive)
REMARK    1  A    between atoms: C_1  and  C_2
REMARK    2  A    between atoms: C_2  and  N_3
REMARK    3  A    between atoms: C_6  and  C_7
REMARK    4  A    between atoms: N_10  and  C_11
REMARK                            x       y       z     vdW  Elec       q    Type
REMARK                         _______ _______ _______ _____ _____    ______ ____
ROOT
ATOM      1  N   UNL     1       2.140   7.314  19.558  0.00  0.00    +0.000 N 
ATOM      2  C   UNL     1       2.345   5.915  19.561  0.00  0.00    +0.000 A 
ATOM      3  C   UNL     1       1.844   5.166  20.600  0.00  0.00    +0.000 A 
ATOM      4  C   UNL     1       2.054   3.805  20.540  0.00  0.00    +0.000 A 
ATOM      5  C   UNL     1       1.463   2.889  21.569  0.00  0.00    +0.000 C 
ATOM      6  N   UNL     1       2.785   3.228  19.562  0.00  0.00    +0.000 NA
ATOM      7  C   UNL     1       3.320   4.039  18.636  0.00  0.00    +0.000 A 
ATOM      8  N   UNL     1       4.168   3.428  17.708  0.00  0.00    +0.000 N 
ATOM      9  N   UNL     1       3.088   5.355  18.600  0.00  0.00    +0.000 NA
ATOM     10  H   UNL     1       1.208   7.520  19.905  0.00  0.00    +0.000 HD
ATOM     11  H   UNL     1       4.257   2.455  17.961  0.00  0.00    +0.000 HD
ENDROOT
BRANCH   8  12
ATOM     12  C   UNL     1       5.211   3.962  16.934  0.00  0.00    +0.000 A 
ATOM     13  C   UNL     1       5.019   4.124  15.552  0.00  0.00    +0.000 A 
ATOM     14  C   UNL     1       6.032   4.627  14.730  0.00  0.00    +0.000 A 
ATOM     15  C   UNL     1       7.257   5.003  15.279  0.00  0.00    +0.000 A 
ATOM     16  C   UNL     1       7.455   4.890  16.648  0.00  0.00    +0.000 A 
ATOM     17  C   UNL     1       6.436   4.384  17.463  0.00  0.00    +0.000 A 
ENDBRANCH   8  12
BRANCH   1  19
ATOM     18  C   UNL     1       1.535   9.175  18.092  0.00  0.00    +0.000 C 
ATOM     19  C   UNL     1       2.351   7.903  18.234  0.00  0.00    +0.000 C 
ENDBRANCH   1  19
TORSDOF 2
ENDMDL
MODEL 3
REMARK VINA RESULT:      -6.8      1.961      5.771
REMARK  Name = 
REMARK  4 active torsions:
REMARK  status: ('A' for Active; 'I' for Inactive)
REMARK    1  A    between atoms: C_1  and  C_2
REMARK    2  A    between atoms: C_2  and  N_3
REMARK    3  A    between atoms: C_6  and  C_7
REMARK    4  A    between atoms: N_10  and  C_11
REMARK                            x       y       z     vdW  Elec       q    Type
REMARK                         _______ _______ _______ _____ _____    ______ ____
ROOT
ATOM      1  N   UNL     1       7.558   6.724  16.565  0.00  0.00    +0.000 N 
ATOM      2  C   UNL     1       6.757   5.641  16.134  0.00  0.00    +0.000 A 
ATOM      3  C   UNL     1       6.849   5.218  14.828  0.00  0.00    +0.000 A 
ATOM      4  C   UNL     1       6.063   4.144  14.469  0.00  0.00    +0.000 A 
ATOM      5  C   UNL     1       6.162   3.542  13.100  0.00  0.00    +0.000 C 
ATOM      6  N   UNL     1       5.180   3.577  15.319  0.00  0.00    +0.000 NA
ATOM      7  C   UNL     1       5.083   4.108  16.548  0.00  0.00    +0.000 A 
ATOM      8  N   UNL     1       4.079   3.578  17.363  0.00  0.00    +0.000 N 
ATOM      9  N   UNL     1       5.871   5.099  16.977  0.00  0.00    +0.000 NA
ATOM     10  H   UNL     1       8.475   6.660  16.134  0.00  0.00    +0.000 HD
ATOM     11  H   UNL     1       3.564   2.900  16.821  0.00  0.00    +0.000 HD
ENDROOT
BRANCH   8  12
ATOM     12  C   UNL     1       3.399   4.139  18.456  0.00  0.00    +0.000 A 
ATOM     13  C   UNL     1       3.207   3.361  19.610  0.00  0.00    +0.000 A 
ATOM     14  C   UNL     1       2.516   3.859  20.718  0.00  0.00    +0.000 A 
ATOM     15  C   UNL     1       2.020   5.163  20.705  0.00  0.00    +0.000 A 
ATOM     16  C   UNL     1       2.233   5.963  19.592  0.00  0.00    +0.000 A 
ATOM     17  C   UNL     1       2.925   5.455  18.487  0.00  0.00    +0.000 A 
ENDBRANCH   8  12
BRANCH   1  19
ATOM     18  C   UNL     1       8.296   8.104  18.443  0.00  0.00    +0.000 C 
ATOM     19  C   UNL     1       7.664   6.789  18.024  0.00  0.00    +0.000 C 
ENDBRANCH   1  19
TORSDOF 2
ENDMDL
MODEL 4
REMARK VINA RESULT:      -6.8      1.980      2.335
REMARK  Name = 
REMARK  4 active torsions:
REMARK  status: ('A' for Active; 'I' for Inactive)
REMARK    1  A    between atoms: C_1  and  C_2
REMARK    2  A    between atoms: C_2  and  N_3
REMARK    3  A    between atoms: C_6  and  C_7
REMARK    4  A    between atoms: N_10  and  C_11
REMARK                            x       y       z     vdW  Elec       q    Type
REMARK                         _______ _______ _______ _____ _____    ______ ____
ROOT
ATOM      1  N   UNL     1       1.507   6.463  20.899  0.00  0.00    +0.000 N 
ATOM      2  C   UNL     1       1.902   5.458  19.987  0.00  0.00    +0.000 A 
ATOM      3  C   UNL     1       1.229   4.258  19.978  0.00  0.00    +0.000 A 
ATOM      4  C   UNL     1       1.642   3.323  19.054  0.00  0.00    +0.000 A 
ATOM      5  C   UNL     1       0.911   2.024  18.894  0.00  0.00    +0.000 C 
ATOM      6  N   UNL     1       2.706   3.525  18.247  0.00  0.00    +0.000 NA
ATOM      7  C   UNL     1       3.368   4.684  18.381  0.00  0.00    +0.000 A 
ATOM      8  N   UNL     1       4.532   4.813  17.619  0.00  0.00    +0.000 N 
ATOM      9  N   UNL     1       2.970   5.658  19.206  0.00  0.00    +0.000 NA
ATOM     10  H   UNL     1       0.494   6.469  20.978  0.00  0.00    +0.000 HD
ATOM     11  H   UNL     1       4.682   3.943  17.130  0.00  0.00    +0.000 HD
ENDROOT
BRANCH   8  12
ATOM     12  C   UNL     1       5.669   5.613  17.817  0.00  0.00    +0.000 A 
ATOM     13  C   UNL     1       6.614   5.228  18.782  0.00  0.00    +0.000 A 
ATOM     14  C   UNL     1       7.751   6.000  19.038  0.00  0.00    +0.000 A 
ATOM     15  C   UNL     1       7.982   7.168  18.312  0.00  0.00    +0.000 A 
ATOM     16  C   UNL     1       7.083   7.546  17.325  0.00  0.00    +0.000 A 
ATOM     17  C   UNL     1       5.947   6.768  17.077  0.00  0.00    +0.000 A 
ENDBRANCH   8  12
BRANCH   1  19
ATOM     18  C   UNL     1       1.100   8.868  21.064  0.00  0.00    +0.000 C 
ATOM     19  C   UNL     1       2.014   7.784  20.523  0.00  0.00    +0.000 C 
ENDBRANCH   1  19
TORSDOF 2
ENDMDL
MODEL 5
REMARK VINA RESULT:      -6.7      1.971      5.803
REMARK  Name = 
REMARK  4 active torsions:
REMARK  status: ('A' for Active; 'I' for Inactive)
REMARK    1  A    between atoms: C_1  and  C_2
REMARK    2  A    between atoms: C_2  and  N_3
REMARK    3  A    between atoms: C_6  and  C_7
REMARK    4  A    between atoms: N_10  and  C_11
REMARK                            x       y       z     vdW  Elec       q    Type
REMARK                         _______ _______ _______ _____ _____    ______ ____
ROOT
ATOM      1  N   UNL     1       7.583   6.724  16.547  0.00  0.00    +0.000 N 
ATOM      2  C   UNL     1       6.761   5.655  16.123  0.00  0.00    +0.000 A 
ATOM      3  C   UNL     1       6.854   5.210  14.824  0.00  0.00    +0.000 A 
ATOM      4  C   UNL     1       6.046   4.151  14.473  0.00  0.00    +0.000 A 
ATOM      5  C   UNL     1       6.143   3.527  13.114  0.00  0.00    +0.000 C 
ATOM      6  N   UNL     1       5.143   3.616  15.323  0.00  0.00    +0.000 NA
ATOM      7  C   UNL     1       5.048   4.166  16.544  0.00  0.00    +0.000 A 
ATOM      8  N   UNL     1       4.025   3.672  17.357  0.00  0.00    +0.000 N 
ATOM      9  N   UNL     1       5.855   5.145  16.965  0.00  0.00    +0.000 NA
ATOM     10  H   UNL     1       8.502   6.633  16.124  0.00  0.00    +0.000 HD
ATOM     11  H   UNL     1       3.499   2.998  16.820  0.00  0.00    +0.000 HD
ENDROOT
BRANCH   8  12
ATOM     12  C   UNL     1       3.349   4.263  18.436  0.00  0.00    +0.000 A 
ATOM     13  C   UNL     1       2.921   5.597  18.323  0.00  0.00    +0.000 A 
ATOM     14  C   UNL     1       2.267   6.244  19.375  0.00  0.00    +0.000 A 
ATOM     15  C   UNL     1       2.002   5.559  20.561  0.00  0.00    +0.000 A 
ATOM     16  C   UNL     1       2.379   4.229  20.680  0.00  0.00    +0.000 A 
ATOM     17  C   UNL     1       3.035   3.590  19.622  0.00  0.00    +0.000 A 
ENDBRANCH   8  12
BRANCH   1  19
ATOM     18  C   UNL     1       8.299   8.131  18.413  0.00  0.00    +0.000 C 
ATOM     19  C   UNL     1       7.678   6.808  18.005  0.00  0.00    +0.000 C 
ENDBRANCH   1  19
TORSDOF 2
ENDMDL
MODEL 6
REMARK VINA RESULT:      -6.7      2.000      2.541
REMARK  Name = 
REMARK  4 active torsions:
REMARK  status: ('A' for Active; 'I' for Inactive)
REMARK    1  A    between atoms: C_1  and  C_2
REMARK    2  A    between atoms: C_2  and  N_3
REMARK    3  A    between atoms: C_6  and  C_7
REMARK    4  A    between atoms: N_10  and  C_11
REMARK                            x       y       z     vdW  Elec       q    Type
REMARK                         _______ _______ _______ _____ _____    ______ ____
ROOT
ATOM      1  N   UNL     1       1.487   6.416  20.893  0.00  0.00    +0.000 N 
ATOM      2  C   UNL     1       1.895   5.411  19.987  0.00  0.00    +0.000 A 
ATOM      3  C   UNL     1       1.216   4.215  19.960  0.00  0.00    +0.000 A 
ATOM      4  C   UNL     1       1.643   3.280  19.042  0.00  0.00    +0.000 A 
ATOM      5  C   UNL     1       0.909   1.986  18.863  0.00  0.00    +0.000 C 
ATOM      6  N   UNL     1       2.723   3.479  18.256  0.00  0.00    +0.000 NA
ATOM      7  C   UNL     1       3.389   4.635  18.408  0.00  0.00    +0.000 A 
ATOM      8  N   UNL     1       4.568   4.760  17.669  0.00  0.00    +0.000 N 
ATOM      9  N   UNL     1       2.979   5.608  19.227  0.00  0.00    +0.000 NA
ATOM     10  H   UNL     1       0.473   6.427  20.952  0.00  0.00    +0.000 HD
ATOM     11  H   UNL     1       4.723   3.891  17.180  0.00  0.00    +0.000 HD
ENDROOT
BRANCH   8  12
ATOM     12  C   UNL     1       5.705   5.554  17.891  0.00  0.00    +0.000 A 
ATOM     13  C   UNL     1       5.873   6.728  17.140  0.00  0.00    +0.000 A 
ATOM     14  C   UNL     1       6.997   7.543  17.302  0.00  0.00    +0.000 A 
ATOM     15  C   UNL     1       7.973   7.211  18.241  0.00  0.00    +0.000 A 
ATOM     16  C   UNL     1       7.808   6.076  19.023  0.00  0.00    +0.000 A 
ATOM     17  C   UNL     1       6.680   5.267  18.854  0.00  0.00    +0.000 A 
ENDBRANCH   8  12
BRANCH   1  19
ATOM     18  C   UNL     1       1.195   8.822  21.209  0.00  0.00    +0.000 C 
ATOM     19  C   UNL     1       2.008   7.736  20.531  0.00  0.00    +0.000 C 
ENDBRANCH   1  19
TORSDOF 2
ENDMDL
MODEL 7
REMARK VINA RESULT:      -6.5      2.376      5.983
REMARK  Name = 
REMARK  4 active torsions:
REMARK  status: ('A' for Active; 'I' for Inactive)
REMARK    1  A    between atoms: C_1  and  C_2
REMARK    2  A    between atoms: C_2  and  N_3
REMARK    3  A    between atoms: C_6  and  C_7
REMARK    4  A    between atoms: N_10  and  C_11
REMARK                            x       y       z     vdW  Elec       q    Type
REMARK                         _______ _______ _______ _____ _____    ______ ____
ROOT
ATOM      1  N   UNL     1       6.903   4.438  14.641  0.00  0.00    +0.000 N 
ATOM      2  C   UNL     1       6.549   5.233  15.754  0.00  0.00    +0.000 A 
ATOM      3  C   UNL     1       7.437   6.179  16.212  0.00  0.00    +0.000 A 
ATOM      4  C   UNL     1       7.031   6.941  17.286  0.00  0.00    +0.000 A 
ATOM      5  C   UNL     1       7.881   8.065  17.798  0.00  0.00    +0.000 C 
ATOM      6  N   UNL     1       5.858   6.729  17.921  0.00  0.00    +0.000 NA
ATOM      7  C   UNL     1       5.089   5.726  17.471  0.00  0.00    +0.000 A 
ATOM      8  N   UNL     1       3.942   5.454  18.222  0.00  0.00    +0.000 N 
ATOM      9  N   UNL     1       5.395   5.003  16.390  0.00  0.00    +0.000 NA
ATOM     10  H   UNL     1       7.407   5.005  13.965  0.00  0.00    +0.000 HD
ATOM     11  H   UNL     1       3.944   6.065  19.026  0.00  0.00    +0.000 HD
ENDROOT
BRANCH   8  12
ATOM     12  C   UNL     1       3.188   4.276  18.345  0.00  0.00    +0.000 A 
ATOM     13  C   UNL     1       1.786   4.359  18.325  0.00  0.00    +0.000 A 
ATOM     14  C   UNL     1       0.986   3.222  18.468  0.00  0.00    +0.000 A 
ATOM     15  C   UNL     1       1.575   1.965  18.611  0.00  0.00    +0.000 A 
ATOM     16  C   UNL     1       2.958   1.854  18.593  0.00  0.00    +0.000 A 
ATOM     17  C   UNL     1       3.750   2.999  18.450  0.00  0.00    +0.000 A 
ENDBRANCH   8  12
BRANCH   1  19
ATOM     18  C   UNL     1       6.031   3.471  12.572  0.00  0.00    +0.000 C 
ATOM     19  C   UNL     1       5.741   3.793  14.026  0.00  0.00    +0.000 C 
ENDBRANCH   1  19
TORSDOF 2
ENDMDL
MODEL 8
REMARK VINA RESULT:      -6.5      1.843      2.068
REMARK  Name = 
REMARK  4 active torsions:
REMARK  status: ('A' for Active; 'I' for Inactive)
REMARK    1  A    between atoms: C_1  and  C_2
REMARK    2  A    between atoms: C_2  and  N_3
REMARK    3  A    between atoms: C_6  and  C_7
REMARK    4  A    between atoms: N_10  and  C_11
REMARK                            x       y       z     vdW  Elec       q    Type
REMARK                         _______ _______ _______ _____ _____    ______ ____
ROOT
ATOM      1  N   UNL     1       1.469   7.407  20.503  0.00  0.00    +0.000 N 
ATOM      2  C   UNL     1       2.039   6.131  20.296  0.00  0.00    +0.000 A 
ATOM      3  C   UNL     1       1.502   5.042  20.944  0.00  0.00    +0.000 A 
ATOM      4  C   UNL     1       2.083   3.819  20.688  0.00  0.00    +0.000 A 
ATOM      5  C   UNL     1       1.511   2.560  21.263  0.00  0.00    +0.000 C 
ATOM      6  N   UNL     1       3.178   3.688  19.908  0.00  0.00    +0.000 NA
ATOM      7  C   UNL     1       3.699   4.810  19.387  0.00  0.00    +0.000 A 
ATOM      8  N   UNL     1       4.898   4.656  18.686  0.00  0.00    +0.000 N 
ATOM      9  N   UNL     1       3.136   6.012  19.539  0.00  0.00    +0.000 NA
ATOM     10  H   UNL     1       0.458   7.321  20.560  0.00  0.00    +0.000 HD
ATOM     11  H   UNL     1       5.178   3.689  18.756  0.00  0.00    +0.000 HD
ENDROOT
BRANCH   8  12
ATOM     12  C   UNL     1       5.924   5.577  18.417  0.00  0.00    +0.000 A 
ATOM     13  C   UNL     1       7.082   5.556  19.211  0.00  0.00    +0.000 A 
ATOM     14  C   UNL     1       8.124   6.466  19.005  0.00  0.00    +0.000 A 
ATOM     15  C   UNL     1       8.039   7.406  17.978  0.00  0.00    +0.000 A 
ATOM     16  C   UNL     1       6.921   7.418  17.155  0.00  0.00    +0.000 A 
ATOM     17  C   UNL     1       5.884   6.505  17.370  0.00  0.00    +0.000 A 
ENDBRANCH   8  12
BRANCH   1  19
ATOM     18  C   UNL     1       0.913   9.552  19.469  0.00  0.00    +0.000 C 
ATOM     19  C   UNL     1       1.859   8.365  19.466  0.00  0.00    +0.000 C 
ENDBRANCH   1  19
TORSDOF 2
ENDMDL
MODEL 9
REMARK VINA RESULT:      -6.4      1.799      5.292
REMARK  Name = 
REMARK  4 active torsions:
REMARK  status: ('A' for Active; 'I' for Inactive)
REMARK    1  A    between atoms: C_1  and  C_2
REMARK    2  A    between atoms: C_2  and  N_3
REMARK    3  A    between atoms: C_6  and  C_7
REMARK    4  A    between atoms: N_10  and  C_11
REMARK                            x       y       z     vdW  Elec       q    Type
REMARK                         _______ _______ _______ _____ _____    ______ ____
ROOT
ATOM      1  N   UNL     1       4.281   7.368  16.504  0.00  0.00    +0.000 N 
ATOM      2  C   UNL     1       4.721   6.037  16.325  0.00  0.00    +0.000 A 
ATOM      3  C   UNL     1       5.389   5.700  15.171  0.00  0.00    +0.000 A 
ATOM      4  C   UNL     1       5.815   4.394  15.060  0.00  0.00    +0.000 A 
ATOM      5  C   UNL     1       6.638   3.950  13.889  0.00  0.00    +0.000 C 
ATOM      6  N   UNL     1       5.528   3.458  15.991  0.00  0.00    +0.000 NA
ATOM      7  C   UNL     1       4.792   3.845  17.044  0.00  0.00    +0.000 A 
ATOM      8  N   UNL     1       4.410   2.830  17.926  0.00  0.00    +0.000 N 
ATOM      9  N   UNL     1       4.415   5.112  17.242  0.00  0.00    +0.000 NA
ATOM     10  H   UNL     1       4.980   8.008  16.137  0.00  0.00    +0.000 HD
ATOM     11  H   UNL     1       4.738   1.953  17.551  0.00  0.00    +0.000 HD
ENDROOT
BRANCH   8  12
ATOM     12  C   UNL     1       3.329   2.755  18.819  0.00  0.00    +0.000 A 
ATOM     13  C   UNL     1       2.034   2.573  18.306  0.00  0.00    +0.000 A 
ATOM     14  C   UNL     1       0.919   2.516  19.146  0.00  0.00    +0.000 A 
ATOM     15  C   UNL     1       1.078   2.616  20.528  0.00  0.00    +0.000 A 
ATOM     16  C   UNL     1       2.352   2.755  21.060  0.00  0.00    +0.000 A 
ATOM     17  C   UNL     1       3.462   2.813  20.211  0.00  0.00    +0.000 A 
ENDBRANCH   8  12
BRANCH   1  19
ATOM     18  C   UNL     1       2.538   8.145  18.031  0.00  0.00    +0.000 C 
ATOM     19  C   UNL     1       3.973   7.669  17.903  0.00  0.00    +0.000 C 
ENDBRANCH   1  19
TORSDOF 2
ENDMDL
