MODEL 1
REMARK VINA RESULT:      -8.2      0.000      0.000
REMARK  Name = 
REMARK  9 active torsions:
REMARK  status: ('A' for Active; 'I' for Inactive)
REMARK    1  A    between atoms: C_1  and  N_2
REMARK    2  A    between atoms: C_3  and  C_5
REMARK    3  A    between atoms: C_8  and  O_9
REMARK    4  A    between atoms: O_9  and  C_10
REMARK    5  A    between atoms: C_10  and  C_11
REMARK    6  A    between atoms: C_10  and  C_12
REMARK    7  A    between atoms: C_18  and  C_20
REMARK    8  A    between atoms: C_27  and  C_28
REMARK    9  A    between atoms: C_30  and  C_31
REMARK                            x       y       z     vdW  Elec       q    Type
REMARK                         _______ _______ _______ _____ _____    ______ ____
ROOT
ATOM      1  C   UNL     1       1.176   9.635  18.890  0.00  0.00    +0.000 C 
ATOM      2  C   UNL     1       0.049   9.854  17.878  0.00  0.00    +0.000 C 
ENDROOT
BRANCH   1   3
ATOM      3  C   UNL     1       0.963  10.533  20.151  0.00  0.00    +0.000 C 
ATOM      4  O   UNL     1       0.582  10.012  21.206  0.00  0.00    +0.000 OA
ATOM      5  N   UNL     1       1.115  11.916  20.065  0.00  0.00    +0.000 N 
ATOM      6  C   UNL     1       0.952  12.745  21.278  0.00  0.00    +0.000 C 
ATOM      7  C   UNL     1      -0.083  13.872  21.078  0.00  0.00    +0.000 C 
ATOM      8  N   UNL     1       0.139  14.615  19.825  0.00  0.00    +0.000 N 
ATOM      9  C   UNL     1       0.401  15.985  19.870  0.00  0.00    +0.000 C 
ATOM     10  O   UNL     1       0.516  16.596  20.932  0.00  0.00    +0.000 OA
ATOM     11  C   UNL     1       0.270  13.752  18.650  0.00  0.00    +0.000 C 
ATOM     12  C   UNL     1       1.358  12.686  18.834  0.00  0.00    +0.000 C 
ATOM     13  C   UNL     1       2.759  13.309  18.804  0.00  0.00    +0.000 C 
BRANCH   9  14
ATOM     14  C   UNL     1       0.592  16.760  18.606  0.00  0.00    +0.000 A 
ATOM     15  C   UNL     1       1.841  16.901  17.989  0.00  0.00    +0.000 A 
ATOM     16  C   UNL     1       1.993  17.743  16.885  0.00  0.00    +0.000 A 
ATOM     17  C   UNL     1       0.879  18.363  16.325  0.00  0.00    +0.000 A 
ATOM     18  C   UNL     1      -0.387  18.137  16.863  0.00  0.00    +0.000 A 
ATOM     19  C   UNL     1      -0.531  17.345  18.006  0.00  0.00    +0.000 A 
ENDBRANCH   9  14
ENDBRANCH   1   3
BRANCH   1  20
ATOM     20  O   UNL     1       1.266   8.255  19.188  0.00  0.00    +0.000 OA
BRANCH  20  24
ATOM     21  C   UNL     1       4.640   6.517  17.359  0.00  0.00    +0.000 A 
ATOM     22  C   UNL     1       4.121   7.768  17.015  0.00  0.00    +0.000 A 
ATOM     23  C   UNL     1       3.000   8.262  17.673  0.00  0.00    +0.000 A 
ATOM     24  C   UNL     1       2.357   7.535  18.700  0.00  0.00    +0.000 A 
ATOM     25  C   UNL     1       2.804   6.211  19.011  0.00  0.00    +0.000 A 
ATOM     26  C   UNL     1       2.457   5.056  19.807  0.00  0.00    +0.000 A 
ATOM     27  C   UNL     1       1.316   4.747  20.713  0.00  0.00    +0.000 C 
ATOM     28  N   UNL     1       3.354   4.067  19.687  0.00  0.00    +0.000 NA
ATOM     29  N   UNL     1       4.227   4.520  18.788  0.00  0.00    +0.000 N 
ATOM     30  C   UNL     1       3.950   5.776  18.329  0.00  0.00    +0.000 A 
ATOM     31  H   UNL     1       4.993   3.921  18.491  0.00  0.00    +0.000 HD
BRANCH  21  34
ATOM     32  C   UNL     1       6.861   5.177  14.622  0.00  0.00    +0.000 C 
ATOM     33  N   UNL     1       5.746   5.703  15.368  0.00  0.00    +0.000 N 
ATOM     34  C   UNL     1       5.855   5.941  16.713  0.00  0.00    +0.000 C 
ATOM     35  O   UNL     1       6.875   5.772  17.373  0.00  0.00    +0.000 OA
ATOM     36  H   UNL     1       4.976   6.106  14.848  0.00  0.00    +0.000 HD
ENDBRANCH  21  34
ENDBRANCH  20  24
ENDBRANCH   1  20
TORSDOF 5
ENDMDL
MODEL 2
REMARK VINA RESULT:      -7.9      0.760      1.116
REMARK  Name = 
REMARK  9 active torsions:
REMARK  status: ('A' for Active; 'I' for Inactive)
REMARK    1  A    between atoms: C_1  and  N_2
REMARK    2  A    between atoms: C_3  and  C_5
REMARK    3  A    between atoms: C_8  and  O_9
REMARK    4  A    between atoms: O_9  and  C_10
REMARK    5  A    between atoms: C_10  and  C_11
REMARK    6  A    between atoms: C_10  and  C_12
REMARK    7  A    between atoms: C_18  and  C_20
REMARK    8  A    between atoms: C_27  and  C_28
REMARK    9  A    between atoms: C_30  and  C_31
REMARK                            x       y       z     vdW  Elec       q    Type
REMARK                         _______ _______ _______ _____ _____    ______ ____
ROOT
ATOM      1  C   UNL     1       1.276   9.379  19.164  0.00  0.00    +0.000 C 
ATOM      2  C   UNL     1       0.545   9.291  17.823  0.00  0.00    +0.000 C 
ENDROOT
BRANCH   1   3
ATOM      3  C   UNL     1       0.428  10.183  20.201  0.00  0.00    +0.000 C 
ATOM      4  O   UNL     1      -0.333   9.573  20.962  0.00  0.00    +0.000 OA
ATOM      5  N   UNL     1       0.461  11.577  20.208  0.00  0.00    +0.000 N 
ATOM      6  C   UNL     1      -0.315  12.320  21.224  0.00  0.00    +0.000 C 
ATOM      7  C   UNL     1      -1.258  13.363  20.587  0.00  0.00    +0.000 C 
ATOM      8  N   UNL     1      -0.572  14.191  19.580  0.00  0.00    +0.000 N 
ATOM      9  C   UNL     1      -0.499  15.574  19.754  0.00  0.00    +0.000 C 
ATOM     10  O   UNL     1      -0.938  16.132  20.758  0.00  0.00    +0.000 OA
ATOM     11  C   UNL     1       0.162  13.410  18.584  0.00  0.00    +0.000 C 
ATOM     12  C   UNL     1       1.153  12.432  19.230  0.00  0.00    +0.000 C 
ATOM     13  C   UNL     1       2.346  13.174  19.846  0.00  0.00    +0.000 C 
BRANCH   9  14
ATOM     14  C   UNL     1       0.161  16.432  18.722  0.00  0.00    +0.000 A 
ATOM     15  C   UNL     1      -0.560  17.279  17.872  0.00  0.00    +0.000 A 
ATOM     16  C   UNL     1       0.086  17.958  16.837  0.00  0.00    +0.000 A 
ATOM     17  C   UNL     1       1.471  17.881  16.712  0.00  0.00    +0.000 A 
ATOM     18  C   UNL     1       2.211  17.131  17.625  0.00  0.00    +0.000 A 
ATOM     19  C   UNL     1       1.558  16.400  18.623  0.00  0.00    +0.000 A 
ENDBRANCH   9  14
ENDBRANCH   1   3
BRANCH   1  20
ATOM     20  O   UNL     1       1.605   8.072  19.596  0.00  0.00    +0.000 OA
BRANCH  20  24
ATOM     21  C   UNL     1       4.567   6.372  17.129  0.00  0.00    +0.000 A 
ATOM     22  C   UNL     1       4.060   7.664  16.967  0.00  0.00    +0.000 A 
ATOM     23  C   UNL     1       3.080   8.142  17.830  0.00  0.00    +0.000 A 
ATOM     24  C   UNL     1       2.571   7.356  18.888  0.00  0.00    +0.000 A 
ATOM     25  C   UNL     1       2.998   5.997  19.024  0.00  0.00    +0.000 A 
ATOM     26  C   UNL     1       2.725   4.794  19.776  0.00  0.00    +0.000 A 
ATOM     27  C   UNL     1       1.725   4.452  20.826  0.00  0.00    +0.000 C 
ATOM     28  N   UNL     1       3.544   3.787  19.441  0.00  0.00    +0.000 NA
ATOM     29  N   UNL     1       4.287   4.280  18.451  0.00  0.00    +0.000 N 
ATOM     30  C   UNL     1       4.002   5.579  18.138  0.00  0.00    +0.000 A 
ATOM     31  H   UNL     1       4.968   3.681  17.993  0.00  0.00    +0.000 HD
BRANCH  21  34
ATOM     32  C   UNL     1       6.160   4.249  14.451  0.00  0.00    +0.000 C 
ATOM     33  N   UNL     1       5.227   4.849  15.370  0.00  0.00    +0.000 N 
ATOM     34  C   UNL     1       5.638   5.809  16.256  0.00  0.00    +0.000 C 
ATOM     35  O   UNL     1       6.779   6.255  16.325  0.00  0.00    +0.000 OA
ATOM     36  H   UNL     1       4.238   4.721  15.192  0.00  0.00    +0.000 HD
ENDBRANCH  21  34
ENDBRANCH  20  24
ENDBRANCH   1  20
TORSDOF 5
ENDMDL
MODEL 3
REMARK VINA RESULT:      -7.8      3.255      5.048
REMARK  Name = 
REMARK  9 active torsions:
REMARK  status: ('A' for Active; 'I' for Inactive)
REMARK    1  A    between atoms: C_1  and  N_2
REMARK    2  A    between atoms: C_3  and  C_5
REMARK    3  A    between atoms: C_8  and  O_9
REMARK    4  A    between atoms: O_9  and  C_10
REMARK    5  A    between atoms: C_10  and  C_11
REMARK    6  A    between atoms: C_10  and  C_12
REMARK    7  A    between atoms: C_18  and  C_20
REMARK    8  A    between atoms: C_27  and  C_28
REMARK    9  A    between atoms: C_30  and  C_31
REMARK                            x       y       z     vdW  Elec       q    Type
REMARK                         _______ _______ _______ _____ _____    ______ ____
ROOT
ATOM      1  C   UNL     1       0.162  12.825  18.590  0.00  0.00    +0.000 C 
ATOM      2  C   UNL     1      -1.309  12.547  18.276  0.00  0.00    +0.000 C 
ENDROOT
BRANCH   1   3
ATOM      3  C   UNL     1       0.411  14.360  18.743  0.00  0.00    +0.000 C 
ATOM      4  O   UNL     1      -0.502  15.150  18.475  0.00  0.00    +0.000 OA
ATOM      5  N   UNL     1       1.673  14.838  19.093  0.00  0.00    +0.000 N 
ATOM      6  C   UNL     1       1.880  16.290  19.275  0.00  0.00    +0.000 C 
ATOM      7  C   UNL     1       3.040  16.826  18.410  0.00  0.00    +0.000 C 
ATOM      8  N   UNL     1       4.249  15.993  18.524  0.00  0.00    +0.000 N 
ATOM      9  C   UNL     1       5.435  16.555  19.001  0.00  0.00    +0.000 C 
ATOM     10  O   UNL     1       5.497  17.720  19.392  0.00  0.00    +0.000 OA
ATOM     11  C   UNL     1       3.998  14.567  18.311  0.00  0.00    +0.000 C 
ATOM     12  C   UNL     1       2.896  14.030  19.235  0.00  0.00    +0.000 C 
ATOM     13  C   UNL     1       3.377  13.952  20.689  0.00  0.00    +0.000 C 
BRANCH   9  14
ATOM     14  C   UNL     1       6.680  15.732  19.087  0.00  0.00    +0.000 A 
ATOM     15  C   UNL     1       7.018  14.992  20.227  0.00  0.00    +0.000 A 
ATOM     16  C   UNL     1       8.254  14.347  20.311  0.00  0.00    +0.000 A 
ATOM     17  C   UNL     1       9.113  14.347  19.216  0.00  0.00    +0.000 A 
ATOM     18  C   UNL     1       8.736  14.985  18.035  0.00  0.00    +0.000 A 
ATOM     19  C   UNL     1       7.527  15.684  17.972  0.00  0.00    +0.000 A 
ENDBRANCH   9  14
ENDBRANCH   1   3
BRANCH   1  20
ATOM     20  O   UNL     1       0.540  12.076  19.729  0.00  0.00    +0.000 OA
BRANCH  20  24
ATOM     21  C   UNL     1       2.156   8.339  18.646  0.00  0.00    +0.000 A 
ATOM     22  C   UNL     1       2.077   9.437  17.785  0.00  0.00    +0.000 A 
ATOM     23  C   UNL     1       1.524  10.632  18.229  0.00  0.00    +0.000 A 
ATOM     24  C   UNL     1       1.036  10.785  19.547  0.00  0.00    +0.000 A 
ATOM     25  C   UNL     1       1.014   9.653  20.423  0.00  0.00    +0.000 A 
ATOM     26  C   UNL     1       0.537   9.237  21.722  0.00  0.00    +0.000 A 
ATOM     27  C   UNL     1      -0.259   9.915  22.782  0.00  0.00    +0.000 C 
ATOM     28  N   UNL     1       0.885   7.975  22.011  0.00  0.00    +0.000 NA
ATOM     29  N   UNL     1       1.509   7.544  20.916  0.00  0.00    +0.000 N 
ATOM     30  C   UNL     1       1.601   8.481  19.926  0.00  0.00    +0.000 A 
ATOM     31  H   UNL     1       1.837   6.583  20.873  0.00  0.00    +0.000 HD
BRANCH  21  34
ATOM     32  C   UNL     1       4.619   5.942  17.094  0.00  0.00    +0.000 C 
ATOM     33  N   UNL     1       3.920   7.128  17.518  0.00  0.00    +0.000 N 
ATOM     34  C   UNL     1       2.761   7.036  18.241  0.00  0.00    +0.000 C 
ATOM     35  O   UNL     1       2.248   5.985  18.610  0.00  0.00    +0.000 OA
ATOM     36  H   UNL     1       4.417   8.011  17.476  0.00  0.00    +0.000 HD
ENDBRANCH  21  34
ENDBRANCH  20  24
ENDBRANCH   1  20
TORSDOF 5
ENDMDL
MODEL 4
REMARK VINA RESULT:      -7.4      2.948      9.818
REMARK  Name = 
REMARK  9 active torsions:
REMARK  status: ('A' for Active; 'I' for Inactive)
REMARK    1  A    between atoms: C_1  and  N_2
REMARK    2  A    between atoms: C_3  and  C_5
REMARK    3  A    between atoms: C_8  and  O_9
REMARK    4  A    between atoms: O_9  and  C_10
REMARK    5  A    between atoms: C_10  and  C_11
REMARK    6  A    between atoms: C_10  and  C_12
REMARK    7  A    between atoms: C_18  and  C_20
REMARK    8  A    between atoms: C_27  and  C_28
REMARK    9  A    between atoms: C_30  and  C_31
REMARK                            x       y       z     vdW  Elec       q    Type
REMARK                         _______ _______ _______ _____ _____    ______ ____
ROOT
ATOM      1  C   UNL     1       1.520   9.414  20.702  0.00  0.00    +0.000 C 
ATOM      2  C   UNL     1       0.508  10.302  21.429  0.00  0.00    +0.000 C 
ENDROOT
BRANCH   1   3
ATOM      3  C   UNL     1       1.218   7.905  20.969  0.00  0.00    +0.000 C 
ATOM      4  O   UNL     1       0.541   7.588  21.954  0.00  0.00    +0.000 OA
ATOM      5  N   UNL     1       1.779   6.920  20.156  0.00  0.00    +0.000 N 
ATOM      6  C   UNL     1       1.449   5.499  20.397  0.00  0.00    +0.000 C 
ATOM      7  C   UNL     1       2.712   4.631  20.577  0.00  0.00    +0.000 C 
ATOM      8  N   UNL     1       3.713   4.881  19.525  0.00  0.00    +0.000 N 
ATOM      9  C   UNL     1       4.115   3.838  18.689  0.00  0.00    +0.000 C 
ATOM     10  O   UNL     1       3.616   2.716  18.755  0.00  0.00    +0.000 OA
ATOM     11  C   UNL     1       4.024   6.299  19.342  0.00  0.00    +0.000 C 
ATOM     12  C   UNL     1       2.766   7.139  19.085  0.00  0.00    +0.000 C 
ATOM     13  C   UNL     1       2.185   6.862  17.693  0.00  0.00    +0.000 C 
BRANCH   9  14
ATOM     14  C   UNL     1       5.157   4.068  17.642  0.00  0.00    +0.000 A 
ATOM     15  C   UNL     1       6.488   4.370  17.956  0.00  0.00    +0.000 A 
ATOM     16  C   UNL     1       7.394   4.707  16.948  0.00  0.00    +0.000 A 
ATOM     17  C   UNL     1       7.005   4.640  15.614  0.00  0.00    +0.000 A 
ATOM     18  C   UNL     1       5.713   4.229  15.285  0.00  0.00    +0.000 A 
ATOM     19  C   UNL     1       4.788   3.952  16.296  0.00  0.00    +0.000 A 
ENDBRANCH   9  14
ENDBRANCH   1   3
BRANCH   1  20
ATOM     20  O   UNL     1       1.528   9.754  19.329  0.00  0.00    +0.000 OA
BRANCH  20  24
ATOM     21  C   UNL     1      -2.047  11.048  17.515  0.00  0.00    +0.000 A 
ATOM     22  C   UNL     1      -1.634   9.715  17.566  0.00  0.00    +0.000 A 
ATOM     23  C   UNL     1      -0.435   9.380  18.185  0.00  0.00    +0.000 A 
ATOM     24  C   UNL     1       0.395  10.356  18.781  0.00  0.00    +0.000 A 
ATOM     25  C   UNL     1       0.049  11.740  18.663  0.00  0.00    +0.000 A 
ATOM     26  C   UNL     1       0.563  13.063  18.937  0.00  0.00    +0.000 A 
ATOM     27  C   UNL     1       1.849  13.562  19.496  0.00  0.00    +0.000 C 
ATOM     28  N   UNL     1      -0.309  14.026  18.604  0.00  0.00    +0.000 NA
ATOM     29  N   UNL     1      -1.335  13.371  18.063  0.00  0.00    +0.000 N 
ATOM     30  C   UNL     1      -1.180  12.014  18.045  0.00  0.00    +0.000 A 
ATOM     31  H   UNL     1      -2.120  13.897  17.688  0.00  0.00    +0.000 HD
BRANCH  21  34
ATOM     32  C   UNL     1      -5.575  12.361  17.285  0.00  0.00    +0.000 C 
ATOM     33  N   UNL     1      -4.299  11.897  17.766  0.00  0.00    +0.000 N 
ATOM     34  C   UNL     1      -3.335  11.472  16.891  0.00  0.00    +0.000 C 
ATOM     35  O   UNL     1      -3.447  11.480  15.669  0.00  0.00    +0.000 OA
ATOM     36  H   UNL     1      -4.048  12.108  18.725  0.00  0.00    +0.000 HD
ENDBRANCH  21  34
ENDBRANCH  20  24
ENDBRANCH   1  20
TORSDOF 5
ENDMDL
MODEL 5
REMARK VINA RESULT:      -7.4      2.969     10.042
REMARK  Name = 
REMARK  9 active torsions:
REMARK  status: ('A' for Active; 'I' for Inactive)
REMARK    1  A    between atoms: C_1  and  N_2
REMARK    2  A    between atoms: C_3  and  C_5
REMARK    3  A    between atoms: C_8  and  O_9
REMARK    4  A    between atoms: O_9  and  C_10
REMARK    5  A    between atoms: C_10  and  C_11
REMARK    6  A    between atoms: C_10  and  C_12
REMARK    7  A    between atoms: C_18  and  C_20
REMARK    8  A    between atoms: C_27  and  C_28
REMARK    9  A    between atoms: C_30  and  C_31
REMARK                            x       y       z     vdW  Elec       q    Type
REMARK                         _______ _______ _______ _____ _____    ______ ____
ROOT
ATOM      1  C   UNL     1       1.464   9.401  20.655  0.00  0.00    +0.000 C 
ATOM      2  C   UNL     1       0.766  10.266  21.706  0.00  0.00    +0.000 C 
ENDROOT
BRANCH   1   3
ATOM      3  C   UNL     1       1.171   7.887  20.907  0.00  0.00    +0.000 C 
ATOM      4  O   UNL     1       0.487   7.557  21.882  0.00  0.00    +0.000 OA
ATOM      5  N   UNL     1       1.749   6.913  20.093  0.00  0.00    +0.000 N 
ATOM      6  C   UNL     1       1.427   5.488  20.318  0.00  0.00    +0.000 C 
ATOM      7  C   UNL     1       2.695   4.628  20.505  0.00  0.00    +0.000 C 
ATOM      8  N   UNL     1       3.705   4.894  19.466  0.00  0.00    +0.000 N 
ATOM      9  C   UNL     1       4.124   3.860  18.626  0.00  0.00    +0.000 C 
ATOM     10  O   UNL     1       3.633   2.734  18.679  0.00  0.00    +0.000 OA
ATOM     11  C   UNL     1       4.007   6.316  19.297  0.00  0.00    +0.000 C 
ATOM     12  C   UNL     1       2.745   7.148  19.034  0.00  0.00    +0.000 C 
ATOM     13  C   UNL     1       2.181   6.877  17.634  0.00  0.00    +0.000 C 
BRANCH   9  14
ATOM     14  C   UNL     1       5.175   4.107  17.592  0.00  0.00    +0.000 A 
ATOM     15  C   UNL     1       6.506   4.392  17.923  0.00  0.00    +0.000 A 
ATOM     16  C   UNL     1       7.421   4.746  16.929  0.00  0.00    +0.000 A 
ATOM     17  C   UNL     1       7.041   4.711  15.590  0.00  0.00    +0.000 A 
ATOM     18  C   UNL     1       5.749   4.316  15.243  0.00  0.00    +0.000 A 
ATOM     19  C   UNL     1       4.815   4.023  16.241  0.00  0.00    +0.000 A 
ENDBRANCH   9  14
ENDBRANCH   1   3
BRANCH   1  20
ATOM     20  O   UNL     1       1.082   9.843  19.366  0.00  0.00    +0.000 OA
BRANCH  20  24
ATOM     21  C   UNL     1      -2.707  11.582  18.764  0.00  0.00    +0.000 A 
ATOM     22  C   UNL     1      -2.407  10.246  18.489  0.00  0.00    +0.000 A 
ATOM     23  C   UNL     1      -1.125   9.758  18.717  0.00  0.00    +0.000 A 
ATOM     24  C   UNL     1      -0.096  10.578  19.233  0.00  0.00    +0.000 A 
ATOM     25  C   UNL     1      -0.343  11.973  19.435  0.00  0.00    +0.000 A 
ATOM     26  C   UNL     1       0.331  13.204  19.781  0.00  0.00    +0.000 A 
ATOM     27  C   UNL     1       1.752  13.543  20.067  0.00  0.00    +0.000 C 
ATOM     28  N   UNL     1      -0.512  14.244  19.845  0.00  0.00    +0.000 NA
ATOM     29  N   UNL     1      -1.690  13.739  19.484  0.00  0.00    +0.000 N 
ATOM     30  C   UNL     1      -1.659  12.402  19.206  0.00  0.00    +0.000 A 
ATOM     31  H   UNL     1      -2.497  14.354  19.414  0.00  0.00    +0.000 HD
BRANCH  21  34
ATOM     32  C   UNL     1      -5.930  12.464  17.016  0.00  0.00    +0.000 C 
ATOM     33  N   UNL     1      -4.609  11.979  17.322  0.00  0.00    +0.000 N 
ATOM     34  C   UNL     1      -4.068  12.162  18.567  0.00  0.00    +0.000 C 
ATOM     35  O   UNL     1      -4.644  12.700  19.508  0.00  0.00    +0.000 OA
ATOM     36  H   UNL     1      -4.191  11.308  16.687  0.00  0.00    +0.000 HD
ENDBRANCH  21  34
ENDBRANCH  20  24
ENDBRANCH   1  20
TORSDOF 5
ENDMDL
MODEL 6
REMARK VINA RESULT:      -7.4      1.963      2.989
REMARK  Name = 
REMARK  9 active torsions:
REMARK  status: ('A' for Active; 'I' for Inactive)
REMARK    1  A    between atoms: C_1  and  N_2
REMARK    2  A    between atoms: C_3  and  C_5
REMARK    3  A    between atoms: C_8  and  O_9
REMARK    4  A    between atoms: O_9  and  C_10
REMARK    5  A    between atoms: C_10  and  C_11
REMARK    6  A    between atoms: C_10  and  C_12
REMARK    7  A    between atoms: C_18  and  C_20
REMARK    8  A    between atoms: C_27  and  C_28
REMARK    9  A    between atoms: C_30  and  C_31
REMARK                            x       y       z     vdW  Elec       q    Type
REMARK                         _______ _______ _______ _____ _____    ______ ____
ROOT
ATOM      1  C   UNL     1       0.258  10.395  20.583  0.00  0.00    +0.000 C 
ATOM      2  C   UNL     1      -0.926  10.052  19.678  0.00  0.00    +0.000 C 
ENDROOT
BRANCH   1   3
ATOM      3  C   UNL     1      -0.121  11.541  21.575  0.00  0.00    +0.000 C 
ATOM      4  O   UNL     1      -0.709  11.260  22.626  0.00  0.00    +0.000 OA
ATOM      5  N   UNL     1       0.119  12.872  21.239  0.00  0.00    +0.000 N 
ATOM      6  C   UNL     1      -0.207  13.941  22.207  0.00  0.00    +0.000 C 
ATOM      7  C   UNL     1      -1.128  15.018  21.596  0.00  0.00    +0.000 C 
ATOM      8  N   UNL     1      -0.649  15.477  20.280  0.00  0.00    +0.000 N 
ATOM      9  C   UNL     1      -0.323  16.822  20.092  0.00  0.00    +0.000 C 
ATOM     10  O   UNL     1      -0.363  17.640  21.010  0.00  0.00    +0.000 OA
ATOM     11  C   UNL     1      -0.363  14.385  19.350  0.00  0.00    +0.000 C 
ATOM     12  C   UNL     1       0.616  13.362  19.942  0.00  0.00    +0.000 C 
ATOM     13  C   UNL     1       2.033  13.940  20.042  0.00  0.00    +0.000 C 
BRANCH   9  14
ATOM     14  C   UNL     1       0.128  17.310  18.753  0.00  0.00    +0.000 A 
ATOM     15  C   UNL     1       1.455  17.202  18.319  0.00  0.00    +0.000 A 
ATOM     16  C   UNL     1       1.856  17.791  17.118  0.00  0.00    +0.000 A 
ATOM     17  C   UNL     1       0.913  18.397  16.292  0.00  0.00    +0.000 A 
ATOM     18  C   UNL     1      -0.432  18.408  16.662  0.00  0.00    +0.000 A 
ATOM     19  C   UNL     1      -0.824  17.874  17.894  0.00  0.00    +0.000 A 
ENDBRANCH   9  14
ENDBRANCH   1   3
BRANCH   1  20
ATOM     20  O   UNL     1       0.703   9.215  21.227  0.00  0.00    +0.000 OA
BRANCH  20  24
ATOM     21  C   UNL     1       2.405   5.854  19.342  0.00  0.00    +0.000 A 
ATOM     22  C   UNL     1       1.846   5.834  20.623  0.00  0.00    +0.000 A 
ATOM     23  C   UNL     1       1.308   6.995  21.166  0.00  0.00    +0.000 A 
ATOM     24  C   UNL     1       1.299   8.217  20.457  0.00  0.00    +0.000 A 
ATOM     25  C   UNL     1       1.948   8.295  19.183  0.00  0.00    +0.000 A 
ATOM     26  C   UNL     1       2.333   9.246  18.165  0.00  0.00    +0.000 A 
ATOM     27  C   UNL     1       2.214  10.726  18.054  0.00  0.00    +0.000 C 
ATOM     28  N   UNL     1       2.924   8.656  17.116  0.00  0.00    +0.000 NA
ATOM     29  N   UNL     1       2.995   7.370  17.456  0.00  0.00    +0.000 N 
ATOM     30  C   UNL     1       2.455   7.089  18.678  0.00  0.00    +0.000 A 
ATOM     31  H   UNL     1       3.450   6.713  16.828  0.00  0.00    +0.000 HD
BRANCH  21  34
ATOM     32  C   UNL     1       3.902   2.407  19.036  0.00  0.00    +0.000 C 
ATOM     33  N   UNL     1       3.365   3.644  19.544  0.00  0.00    +0.000 N 
ATOM     34  C   UNL     1       2.974   4.639  18.689  0.00  0.00    +0.000 C 
ATOM     35  O   UNL     1       3.007   4.563  17.465  0.00  0.00    +0.000 OA
ATOM     36  H   UNL     1       3.070   3.669  20.513  0.00  0.00    +0.000 HD
ENDBRANCH  21  34
ENDBRANCH  20  24
ENDBRANCH   1  20
TORSDOF 5
ENDMDL
MODEL 7
REMARK VINA RESULT:      -7.4      5.402      9.658
REMARK  Name = 
REMARK  9 active torsions:
REMARK  status: ('A' for Active; 'I' for Inactive)
REMARK    1  A    between atoms: C_1  and  N_2
REMARK    2  A    between atoms: C_3  and  C_5
REMARK    3  A    between atoms: C_8  and  O_9
REMARK    4  A    between atoms: O_9  and  C_10
REMARK    5  A    between atoms: C_10  and  C_11
REMARK    6  A    between atoms: C_10  and  C_12
REMARK    7  A    between atoms: C_18  and  C_20
REMARK    8  A    between atoms: C_27  and  C_28
REMARK    9  A    between atoms: C_30  and  C_31
REMARK                            x       y       z     vdW  Elec       q    Type
REMARK                         _______ _______ _______ _____ _____    ______ ____
ROOT
ATOM      1  C   UNL     1       3.897  16.024  20.715  0.00  0.00    +0.000 C 
ATOM      2  C   UNL     1       4.127  15.350  22.069  0.00  0.00    +0.000 C 
ENDROOT
BRANCH   1   3
ATOM      3  C   UNL     1       5.047  17.034  20.401  0.00  0.00    +0.000 C 
ATOM      4  O   UNL     1       4.766  18.212  20.152  0.00  0.00    +0.000 OA
ATOM      5  N   UNL     1       6.368  16.593  20.316  0.00  0.00    +0.000 N 
ATOM      6  C   UNL     1       7.448  17.570  20.061  0.00  0.00    +0.000 C 
ATOM      7  C   UNL     1       8.312  17.177  18.844  0.00  0.00    +0.000 C 
ATOM      8  N   UNL     1       8.730  15.765  18.892  0.00  0.00    +0.000 N 
ATOM      9  C   UNL     1      10.089  15.446  18.922  0.00  0.00    +0.000 C 
ATOM     10  O   UNL     1      10.964  16.309  18.971  0.00  0.00    +0.000 OA
ATOM     11  C   UNL     1       7.623  14.836  19.122  0.00  0.00    +0.000 C 
ATOM     12  C   UNL     1       6.820  15.194  20.380  0.00  0.00    +0.000 C 
ATOM     13  C   UNL     1       7.620  14.899  21.655  0.00  0.00    +0.000 C 
BRANCH   9  14
ATOM     14  C   UNL     1      10.529  14.017  18.933  0.00  0.00    +0.000 A 
ATOM     15  C   UNL     1      10.835  13.331  20.114  0.00  0.00    +0.000 A 
ATOM     16  C   UNL     1      11.369  12.041  20.066  0.00  0.00    +0.000 A 
ATOM     17  C   UNL     1      11.499  11.389  18.843  0.00  0.00    +0.000 A 
ATOM     18  C   UNL     1      11.089  12.021  17.669  0.00  0.00    +0.000 A 
ATOM     19  C   UNL     1      10.614  13.336  17.712  0.00  0.00    +0.000 A 
ENDBRANCH   9  14
ENDBRANCH   1   3
BRANCH   1  20
ATOM     20  O   UNL     1       3.738  15.025  19.724  0.00  0.00    +0.000 OA
BRANCH  20  24
ATOM     21  C   UNL     1       0.097  13.069  18.909  0.00  0.00    +0.000 A 
ATOM     22  C   UNL     1       1.316  12.411  19.087  0.00  0.00    +0.000 A 
ATOM     23  C   UNL     1       2.470  13.140  19.351  0.00  0.00    +0.000 A 
ATOM     24  C   UNL     1       2.455  14.549  19.454  0.00  0.00    +0.000 A 
ATOM     25  C   UNL     1       1.243  15.261  19.184  0.00  0.00    +0.000 A 
ATOM     26  C   UNL     1       0.730  16.602  19.019  0.00  0.00    +0.000 A 
ATOM     27  C   UNL     1       1.368  17.948  19.039  0.00  0.00    +0.000 C 
ATOM     28  N   UNL     1      -0.592  16.617  18.797  0.00  0.00    +0.000 NA
ATOM     29  N   UNL     1      -0.933  15.331  18.743  0.00  0.00    +0.000 N 
ATOM     30  C   UNL     1       0.109  14.471  18.942  0.00  0.00    +0.000 A 
ATOM     31  H   UNL     1      -1.897  15.078  18.539  0.00  0.00    +0.000 HD
BRANCH  21  34
ATOM     32  C   UNL     1      -2.696  11.464  16.949  0.00  0.00    +0.000 C 
ATOM     33  N   UNL     1      -1.502  12.174  17.330  0.00  0.00    +0.000 N 
ATOM     34  C   UNL     1      -1.182  12.346  18.651  0.00  0.00    +0.000 C 
ATOM     35  O   UNL     1      -1.832  11.901  19.591  0.00  0.00    +0.000 OA
ATOM     36  H   UNL     1      -0.798  12.334  16.618  0.00  0.00    +0.000 HD
ENDBRANCH  21  34
ENDBRANCH  20  24
ENDBRANCH   1  20
TORSDOF 5
ENDMDL
MODEL 8
REMARK VINA RESULT:      -7.3      3.218      4.780
REMARK  Name = 
REMARK  9 active torsions:
REMARK  status: ('A' for Active; 'I' for Inactive)
REMARK    1  A    between atoms: C_1  and  N_2
REMARK    2  A    between atoms: C_3  and  C_5
REMARK    3  A    between atoms: C_8  and  O_9
REMARK    4  A    between atoms: O_9  and  C_10
REMARK    5  A    between atoms: C_10  and  C_11
REMARK    6  A    between atoms: C_10  and  C_12
REMARK    7  A    between atoms: C_18  and  C_20
REMARK    8  A    between atoms: C_27  and  C_28
REMARK    9  A    between atoms: C_30  and  C_31
REMARK                            x       y       z     vdW  Elec       q    Type
REMARK                         _______ _______ _______ _____ _____    ______ ____
ROOT
ATOM      1  C   UNL     1       1.956   9.813  18.245  0.00  0.00    +0.000 C 
ATOM      2  C   UNL     1       2.525  11.173  17.835  0.00  0.00    +0.000 C 
ENDROOT
BRANCH   1   3
ATOM      3  C   UNL     1       0.403   9.794  18.074  0.00  0.00    +0.000 C 
ATOM      4  O   UNL     1      -0.089   9.256  17.075  0.00  0.00    +0.000 OA
ATOM      5  N   UNL     1      -0.415  10.452  18.992  0.00  0.00    +0.000 N 
ATOM      6  C   UNL     1      -1.884  10.387  18.839  0.00  0.00    +0.000 C 
ATOM      7  C   UNL     1      -2.528  11.789  18.805  0.00  0.00    +0.000 C 
ATOM      8  N   UNL     1      -2.040  12.651  19.896  0.00  0.00    +0.000 N 
ATOM      9  C   UNL     1      -2.942  13.161  20.832  0.00  0.00    +0.000 C 
ATOM     10  O   UNL     1      -4.136  12.867  20.818  0.00  0.00    +0.000 OA
ATOM     11  C   UNL     1      -0.581  12.702  19.991  0.00  0.00    +0.000 C 
ATOM     12  C   UNL     1       0.040  11.303  20.104  0.00  0.00    +0.000 C 
ATOM     13  C   UNL     1      -0.246  10.675  21.473  0.00  0.00    +0.000 C 
BRANCH   9  14
ATOM     14  C   UNL     1      -2.468  14.068  21.922  0.00  0.00    +0.000 A 
ATOM     15  C   UNL     1      -2.367  15.455  21.759  0.00  0.00    +0.000 A 
ATOM     16  C   UNL     1      -1.794  16.244  22.758  0.00  0.00    +0.000 A 
ATOM     17  C   UNL     1      -1.417  15.668  23.968  0.00  0.00    +0.000 A 
ATOM     18  C   UNL     1      -1.619  14.305  24.184  0.00  0.00    +0.000 A 
ATOM     19  C   UNL     1      -2.135  13.504  23.161  0.00  0.00    +0.000 A 
ENDBRANCH   9  14
ENDBRANCH   1   3
BRANCH   1  20
ATOM     20  O   UNL     1       2.617   8.797  17.515  0.00  0.00    +0.000 OA
BRANCH  20  24
ATOM     21  C   UNL     1       2.747   5.204  19.709  0.00  0.00    +0.000 A 
ATOM     22  C   UNL     1       2.041   6.340  20.111  0.00  0.00    +0.000 A 
ATOM     23  C   UNL     1       2.057   7.485  19.322  0.00  0.00    +0.000 A 
ATOM     24  C   UNL     1       2.769   7.541  18.103  0.00  0.00    +0.000 A 
ATOM     25  C   UNL     1       3.579   6.429  17.710  0.00  0.00    +0.000 A 
ATOM     26  C   UNL     1       4.547   6.029  16.714  0.00  0.00    +0.000 A 
ATOM     27  C   UNL     1       5.190   6.738  15.573  0.00  0.00    +0.000 C 
ATOM     28  N   UNL     1       4.943   4.758  16.872  0.00  0.00    +0.000 NA
ATOM     29  N   UNL     1       4.316   4.350  17.974  0.00  0.00    +0.000 N 
ATOM     30  C   UNL     1       3.507   5.297  18.535  0.00  0.00    +0.000 A 
ATOM     31  H   UNL     1       4.490   3.413  18.329  0.00  0.00    +0.000 HD
BRANCH  21  34
ATOM     32  C   UNL     1       1.458   2.456  21.948  0.00  0.00    +0.000 C 
ATOM     33  N   UNL     1       1.593   3.666  21.177  0.00  0.00    +0.000 N 
ATOM     34  C   UNL     1       2.749   3.935  20.494  0.00  0.00    +0.000 C 
ATOM     35  O   UNL     1       3.723   3.190  20.446  0.00  0.00    +0.000 OA
ATOM     36  H   UNL     1       0.750   4.187  20.963  0.00  0.00    +0.000 HD
ENDBRANCH  21  34
ENDBRANCH  20  24
ENDBRANCH   1  20
TORSDOF 5
ENDMDL
MODEL 9
REMARK VINA RESULT:      -7.3      4.052      6.130
REMARK  Name = 
REMARK  9 active torsions:
REMARK  status: ('A' for Active; 'I' for Inactive)
REMARK    1  A    between atoms: C_1  and  N_2
REMARK    2  A    between atoms: C_3  and  C_5
REMARK    3  A    between atoms: C_8  and  O_9
REMARK    4  A    between atoms: O_9  and  C_10
REMARK    5  A    between atoms: C_10  and  C_11
REMARK    6  A    between atoms: C_10  and  C_12
REMARK    7  A    between atoms: C_18  and  C_20
REMARK    8  A    between atoms: C_27  and  C_28
REMARK    9  A    between atoms: C_30  and  C_31
REMARK                            x       y       z     vdW  Elec       q    Type
REMARK                         _______ _______ _______ _____ _____    ______ ____
ROOT
ATOM      1  C   UNL     1       0.542  12.941  20.530  0.00  0.00    +0.000 C 
ATOM      2  C   UNL     1       2.061  13.088  20.632  0.00  0.00    +0.000 C 
ENDROOT
BRANCH   1   3
ATOM      3  C   UNL     1      -0.141  14.343  20.437  0.00  0.00    +0.000 C 
ATOM      4  O   UNL     1       0.564  15.352  20.318  0.00  0.00    +0.000 OA
ATOM      5  N   UNL     1      -1.523  14.464  20.579  0.00  0.00    +0.000 N 
ATOM      6  C   UNL     1      -2.157  15.793  20.446  0.00  0.00    +0.000 C 
ATOM      7  C   UNL     1      -3.027  16.147  21.670  0.00  0.00    +0.000 C 
ATOM      8  N   UNL     1      -3.932  15.046  22.046  0.00  0.00    +0.000 N 
ATOM      9  C   UNL     1      -5.313  15.250  22.038  0.00  0.00    +0.000 C 
ATOM     10  O   UNL     1      -5.816  16.309  21.665  0.00  0.00    +0.000 OA
ATOM     11  C   UNL     1      -3.254  13.757  22.189  0.00  0.00    +0.000 C 
ATOM     12  C   UNL     1      -2.456  13.381  20.933  0.00  0.00    +0.000 C 
ATOM     13  C   UNL     1      -3.386  13.010  19.772  0.00  0.00    +0.000 C 
BRANCH   9  14
ATOM     14  C   UNL     1      -6.241  14.155  22.453  0.00  0.00    +0.000 A 
ATOM     15  C   UNL     1      -6.616  13.949  23.786  0.00  0.00    +0.000 A 
ATOM     16  C   UNL     1      -7.377  12.833  24.142  0.00  0.00    +0.000 A 
ATOM     17  C   UNL     1      -7.860  11.977  23.156  0.00  0.00    +0.000 A 
ATOM     18  C   UNL     1      -7.587  12.239  21.814  0.00  0.00    +0.000 A 
ATOM     19  C   UNL     1      -6.773  13.319  21.462  0.00  0.00    +0.000 A 
ENDBRANCH   9  14
ENDBRANCH   1   3
BRANCH   1  20
ATOM     20  O   UNL     1       0.234  12.090  19.441  0.00  0.00    +0.000 OA
BRANCH  20  24
ATOM     21  C   UNL     1       2.044   8.342  18.792  0.00  0.00    +0.000 A 
ATOM     22  C   UNL     1       1.902   9.324  17.807  0.00  0.00    +0.000 A 
ATOM     23  C   UNL     1       1.288  10.533  18.113  0.00  0.00    +0.000 A 
ATOM     24  C   UNL     1       0.797  10.815  19.408  0.00  0.00    +0.000 A 
ATOM     25  C   UNL     1       0.841   9.797  20.413  0.00  0.00    +0.000 A 
ATOM     26  C   UNL     1       0.393   9.513  21.758  0.00  0.00    +0.000 A 
ATOM     27  C   UNL     1      -0.434  10.270  22.738  0.00  0.00    +0.000 C 
ATOM     28  N   UNL     1       0.810   8.315  22.191  0.00  0.00    +0.000 NA
ATOM     29  N   UNL     1       1.451   7.791  21.147  0.00  0.00    +0.000 N 
ATOM     30  C   UNL     1       1.489   8.606  20.052  0.00  0.00    +0.000 A 
ATOM     31  H   UNL     1       1.831   6.850  21.216  0.00  0.00    +0.000 HD
BRANCH  21  34
ATOM     32  C   UNL     1       4.515   5.885  17.351  0.00  0.00    +0.000 C 
ATOM     33  N   UNL     1       3.763   7.076  17.656  0.00  0.00    +0.000 N 
ATOM     34  C   UNL     1       2.717   7.035  18.538  0.00  0.00    +0.000 C 
ATOM     35  O   UNL     1       2.358   6.035  19.152  0.00  0.00    +0.000 OA
ATOM     36  H   UNL     1       4.164   7.969  17.393  0.00  0.00    +0.000 HD
ENDBRANCH  21  34
ENDBRANCH  20  24
ENDBRANCH   1  20
TORSDOF 5
ENDMDL
