MODEL 1
REMARK VINA RESULT:      -8.0      0.000      0.000
REMARK  Name = 
REMARK  8 active torsions:
REMARK  status: ('A' for Active; 'I' for Inactive)
REMARK    1  A    between atoms: C_2  and  O_22
REMARK    2  A    between atoms: N_3  and  C_4
REMARK    3  A    between atoms: C_12  and  C_14
REMARK    4  A    between atoms: C_14  and  C_15
REMARK    5  A    between atoms: C_15  and  C_16
REMARK    6  A    between atoms: C_16  and  C_17
REMARK    7  A    between atoms: O_22  and  C_23
REMARK    8  A    between atoms: C_23  and  C_24
REMARK                            x       y       z     vdW  Elec       q    Type
REMARK                         _______ _______ _______ _____ _____    ______ ____
ROOT
ATOM      1  C   UNL     1       2.079   7.016  20.493  0.00  0.00    +0.000 C 
ATOM      2  C   UNL     1       2.120   5.480  20.590  0.00  0.00    +0.000 C 
ATOM      3  C   UNL     1       3.165   4.865  19.642  0.00  0.00    +0.000 C 
ATOM      4  C   UNL     1       2.571   4.545  18.243  0.00  0.00    +0.000 C 
ATOM      5  C   UNL     1       2.991   5.729  17.345  0.00  0.00    +0.000 C 
ATOM      6  C   UNL     1       3.487   6.760  18.359  0.00  0.00    +0.000 C 
ATOM      7  C   UNL     1       2.274   7.466  19.041  0.00  0.00    +0.000 C 
ATOM      8  N   UNL     1       4.165   5.866  19.296  0.00  0.00    +0.000 N 
ATOM      9  C   UNL     1       5.475   5.404  19.192  0.00  0.00    +0.000 C 
ATOM     10  O   UNL     1       5.932   4.577  19.985  0.00  0.00    +0.000 OA
ENDROOT
BRANCH   1  13
ATOM     11  O   UNL     1       1.894   9.256  22.268  0.00  0.00    +0.000 OA
ATOM     12  C   UNL     1       0.887   8.652  21.923  0.00  0.00    +0.000 C 
ATOM     13  N   UNL     1       0.866   7.571  21.088  0.00  0.00    +0.000 N 
ATOM     14  H   UNL     1      -0.042   7.175  20.894  0.00  0.00    +0.000 HD
BRANCH  12  15
ATOM     15  O   UNL     1      -0.374   8.942  22.331  0.00  0.00    +0.000 OA
BRANCH  15  16
ATOM     16  C   UNL     1      -0.511  10.084  23.186  0.00  0.00    +0.000 C 
BRANCH  16  17
ATOM     17  C   UNL     1      -1.232  11.180  22.441  0.00  0.00    +0.000 A 
ATOM     18  C   UNL     1      -2.257  11.914  23.059  0.00  0.00    +0.000 A 
ATOM     19  C   UNL     1      -2.952  12.894  22.344  0.00  0.00    +0.000 A 
ATOM     20 CL   UNL     1      -4.214  13.775  23.115  0.00  0.00    +0.000 Cl
ATOM     21  C   UNL     1      -2.643  13.156  21.013  0.00  0.00    +0.000 A 
ATOM     22  C   UNL     1      -1.623  12.434  20.398  0.00  0.00    +0.000 A 
ATOM     23 CL   UNL     1      -1.233  12.749  18.752  0.00  0.00    +0.000 Cl
ATOM     24  C   UNL     1      -0.921  11.452  21.100  0.00  0.00    +0.000 A 
ENDBRANCH  16  17
ENDBRANCH  15  16
ENDBRANCH  12  15
ENDBRANCH   1  13
BRANCH   9  25
ATOM     25  C   UNL     1       6.302   5.838  17.991  0.00  0.00    +0.000 C 
BRANCH  25  26
ATOM     26  C   UNL     1       7.004   4.657  17.344  0.00  0.00    +0.000 C 
BRANCH  26  27
ATOM     27  C   UNL     1       6.172   4.090  16.193  0.00  0.00    +0.000 C 
BRANCH  27  28
ATOM     28  C   UNL     1       6.718   4.492  14.876  0.00  0.00    +0.000 A 
ATOM     29  C   UNL     1       6.408   4.024  13.618  0.00  0.00    +0.000 A 
ATOM     30  N   UNL     1       7.252   4.707  12.801  0.00  0.00    +0.000 N 
ATOM     31  N   UNL     1       8.022   5.561  13.490  0.00  0.00    +0.000 NA
ATOM     32  N   UNL     1       7.702   5.437  14.772  0.00  0.00    +0.000 NA
ATOM     33  H   UNL     1       7.373   4.644  11.796  0.00  0.00    +0.000 HD
ENDBRANCH  27  28
ENDBRANCH  26  27
ENDBRANCH  25  26
ENDBRANCH   9  25
TORSDOF 8
ENDMDL
MODEL 2
REMARK VINA RESULT:      -7.9      2.080      2.537
REMARK  Name = 
REMARK  8 active torsions:
REMARK  status: ('A' for Active; 'I' for Inactive)
REMARK    1  A    between atoms: C_2  and  O_22
REMARK    2  A    between atoms: N_3  and  C_4
REMARK    3  A    between atoms: C_12  and  C_14
REMARK    4  A    between atoms: C_14  and  C_15
REMARK    5  A    between atoms: C_15  and  C_16
REMARK    6  A    between atoms: C_16  and  C_17
REMARK    7  A    between atoms: O_22  and  C_23
REMARK    8  A    between atoms: C_23  and  C_24
REMARK                            x       y       z     vdW  Elec       q    Type
REMARK                         _______ _______ _______ _____ _____    ______ ____
ROOT
ATOM      1  C   UNL     1       2.317   7.037  19.575  0.00  0.00    +0.000 C 
ATOM      2  C   UNL     1       2.211   5.908  20.615  0.00  0.00    +0.000 C 
ATOM      3  C   UNL     1       2.630   4.544  20.039  0.00  0.00    +0.000 C 
ATOM      4  C   UNL     1       1.433   3.780  19.409  0.00  0.00    +0.000 C 
ATOM      5  C   UNL     1       1.541   4.043  17.891  0.00  0.00    +0.000 C 
ATOM      6  C   UNL     1       2.564   5.177  17.818  0.00  0.00    +0.000 C 
ATOM      7  C   UNL     1       1.887   6.532  18.192  0.00  0.00    +0.000 C 
ATOM      8  N   UNL     1       3.479   4.743  18.872  0.00  0.00    +0.000 N 
ATOM      9  C   UNL     1       4.532   3.843  18.729  0.00  0.00    +0.000 C 
ATOM     10  O   UNL     1       5.194   3.465  19.698  0.00  0.00    +0.000 OA
ENDROOT
BRANCH   1  13
ATOM     11  O   UNL     1       1.901   9.418  18.039  0.00  0.00    +0.000 OA
ATOM     12  C   UNL     1       1.438   9.318  19.168  0.00  0.00    +0.000 C 
ATOM     13  N   UNL     1       1.582   8.230  19.983  0.00  0.00    +0.000 N 
ATOM     14  H   UNL     1       1.143   8.292  20.890  0.00  0.00    +0.000 HD
BRANCH  12  15
ATOM     15  O   UNL     1       0.721  10.277  19.805  0.00  0.00    +0.000 OA
BRANCH  15  16
ATOM     16  C   UNL     1       0.439  11.459  19.044  0.00  0.00    +0.000 C 
BRANCH  16  17
ATOM     17  C   UNL     1      -1.034  11.505  18.724  0.00  0.00    +0.000 A 
ATOM     18  C   UNL     1      -1.941  12.126  19.597  0.00  0.00    +0.000 A 
ATOM     19  C   UNL     1      -3.310  12.119  19.315  0.00  0.00    +0.000 A 
ATOM     20 CL   UNL     1      -4.407  12.874  20.405  0.00  0.00    +0.000 Cl
ATOM     21  C   UNL     1      -3.796  11.499  18.168  0.00  0.00    +0.000 A 
ATOM     22  C   UNL     1      -2.899  10.888  17.295  0.00  0.00    +0.000 A 
ATOM     23 CL   UNL     1      -3.489  10.116  15.874  0.00  0.00    +0.000 Cl
ATOM     24  C   UNL     1      -1.530  10.886  17.566  0.00  0.00    +0.000 A 
ENDBRANCH  16  17
ENDBRANCH  15  16
ENDBRANCH  12  15
ENDBRANCH   1  13
BRANCH   9  25
ATOM     25  C   UNL     1       4.773   3.221  17.361  0.00  0.00    +0.000 C 
BRANCH  25  26
ATOM     26  C   UNL     1       5.822   3.990  16.578  0.00  0.00    +0.000 C 
BRANCH  26  27
ATOM     27  C   UNL     1       5.291   4.396  15.203  0.00  0.00    +0.000 C 
BRANCH  27  28
ATOM     28  C   UNL     1       6.393   4.702  14.261  0.00  0.00    +0.000 A 
ATOM     29  C   UNL     1       6.606   4.241  12.981  0.00  0.00    +0.000 A 
ATOM     30  N   UNL     1       7.790   4.804  12.626  0.00  0.00    +0.000 N 
ATOM     31  N   UNL     1       8.277   5.583  13.601  0.00  0.00    +0.000 NA
ATOM     32  N   UNL     1       7.424   5.528  14.617  0.00  0.00    +0.000 NA
ATOM     33  H   UNL     1       8.325   4.703  11.770  0.00  0.00    +0.000 HD
ENDBRANCH  27  28
ENDBRANCH  26  27
ENDBRANCH  25  26
ENDBRANCH   9  25
TORSDOF 8
ENDMDL
MODEL 3
REMARK VINA RESULT:      -7.8      2.159      3.263
REMARK  Name = 
REMARK  8 active torsions:
REMARK  status: ('A' for Active; 'I' for Inactive)
REMARK    1  A    between atoms: C_2  and  O_22
REMARK    2  A    between atoms: N_3  and  C_4
REMARK    3  A    between atoms: C_12  and  C_14
REMARK    4  A    between atoms: C_14  and  C_15
REMARK    5  A    between atoms: C_15  and  C_16
REMARK    6  A    between atoms: C_16  and  C_17
REMARK    7  A    between atoms: O_22  and  C_23
REMARK    8  A    between atoms: C_23  and  C_24
REMARK                            x       y       z     vdW  Elec       q    Type
REMARK                         _______ _______ _______ _____ _____    ______ ____
ROOT
ATOM      1  C   UNL     1       2.275   7.275  19.331  0.00  0.00    +0.000 C 
ATOM      2  C   UNL     1       2.096   6.224  20.442  0.00  0.00    +0.000 C 
ATOM      3  C   UNL     1       2.512   4.815  19.984  0.00  0.00    +0.000 C 
ATOM      4  C   UNL     1       1.329   4.031  19.352  0.00  0.00    +0.000 C 
ATOM      5  C   UNL     1       1.514   4.184  17.826  0.00  0.00    +0.000 C 
ATOM      6  C   UNL     1       2.563   5.291  17.723  0.00  0.00    +0.000 C 
ATOM      7  C   UNL     1       1.898   6.681  17.969  0.00  0.00    +0.000 C 
ATOM      8  N   UNL     1       3.418   4.915  18.848  0.00  0.00    +0.000 N 
ATOM      9  C   UNL     1       4.458   3.989  18.818  0.00  0.00    +0.000 C 
ATOM     10  O   UNL     1       5.066   3.668  19.842  0.00  0.00    +0.000 OA
ENDROOT
BRANCH   1  13
ATOM     11  O   UNL     1       1.547   8.288  21.909  0.00  0.00    +0.000 OA
ATOM     12  C   UNL     1       1.253   8.905  20.893  0.00  0.00    +0.000 C 
ATOM     13  N   UNL     1       1.548   8.507  19.620  0.00  0.00    +0.000 N 
ATOM     14  H   UNL     1       1.240   9.121  18.879  0.00  0.00    +0.000 HD
BRANCH  12  15
ATOM     15  O   UNL     1       0.568  10.075  20.863  0.00  0.00    +0.000 OA
BRANCH  15  16
ATOM     16  C   UNL     1       0.614  10.798  19.625  0.00  0.00    +0.000 C 
BRANCH  16  17
ATOM     17  C   UNL     1      -0.785  10.937  19.078  0.00  0.00    +0.000 A 
ATOM     18  C   UNL     1      -1.150  10.318  17.873  0.00  0.00    +0.000 A 
ATOM     19  C   UNL     1      -2.434  10.493  17.350  0.00  0.00    +0.000 A 
ATOM     20 CL   UNL     1      -2.859   9.736  15.864  0.00  0.00    +0.000 Cl
ATOM     21  C   UNL     1      -3.369  11.283  18.013  0.00  0.00    +0.000 A 
ATOM     22  C   UNL     1      -3.014  11.894  19.213  0.00  0.00    +0.000 A 
ATOM     23 CL   UNL     1      -4.161  12.874  20.040  0.00  0.00    +0.000 Cl
ATOM     24  C   UNL     1      -1.734  11.727  19.745  0.00  0.00    +0.000 A 
ENDBRANCH  16  17
ENDBRANCH  15  16
ENDBRANCH  12  15
ENDBRANCH   1  13
BRANCH   9  25
ATOM     25  C   UNL     1       4.748   3.268  17.510  0.00  0.00    +0.000 C 
BRANCH  25  26
ATOM     26  C   UNL     1       5.276   4.222  16.454  0.00  0.00    +0.000 C 
BRANCH  26  27
ATOM     27  C   UNL     1       6.803   4.292  16.494  0.00  0.00    +0.000 C 
BRANCH  27  28
ATOM     28  C   UNL     1       7.274   5.541  17.137  0.00  0.00    +0.000 A 
ATOM     29  C   UNL     1       7.630   5.773  18.448  0.00  0.00    +0.000 A 
ATOM     30  N   UNL     1       7.922   7.100  18.474  0.00  0.00    +0.000 N 
ATOM     31  N   UNL     1       7.783   7.659  17.265  0.00  0.00    +0.000 NA
ATOM     32  N   UNL     1       7.383   6.708  16.430  0.00  0.00    +0.000 NA
ATOM     33  H   UNL     1       8.201   7.686  19.253  0.00  0.00    +0.000 HD
ENDBRANCH  27  28
ENDBRANCH  26  27
ENDBRANCH  25  26
ENDBRANCH   9  25
TORSDOF 8
ENDMDL
MODEL 4
REMARK VINA RESULT:      -7.7      2.226      3.172
REMARK  Name = 
REMARK  8 active torsions:
REMARK  status: ('A' for Active; 'I' for Inactive)
REMARK    1  A    between atoms: C_2  and  O_22
REMARK    2  A    between atoms: N_3  and  C_4
REMARK    3  A    between atoms: C_12  and  C_14
REMARK    4  A    between atoms: C_14  and  C_15
REMARK    5  A    between atoms: C_15  and  C_16
REMARK    6  A    between atoms: C_16  and  C_17
REMARK    7  A    between atoms: O_22  and  C_23
REMARK    8  A    between atoms: C_23  and  C_24
REMARK                            x       y       z     vdW  Elec       q    Type
REMARK                         _______ _______ _______ _____ _____    ______ ____
ROOT
ATOM      1  C   UNL     1       2.578   6.920  20.032  0.00  0.00    +0.000 C 
ATOM      2  C   UNL     1       2.260   5.622  20.796  0.00  0.00    +0.000 C 
ATOM      3  C   UNL     1       2.515   4.367  19.944  0.00  0.00    +0.000 C 
ATOM      4  C   UNL     1       1.257   3.942  19.136  0.00  0.00    +0.000 C 
ATOM      5  C   UNL     1       1.481   4.505  17.716  0.00  0.00    +0.000 C 
ATOM      6  C   UNL     1       2.654   5.465  17.915  0.00  0.00    +0.000 C 
ATOM      7  C   UNL     1       2.154   6.792  18.564  0.00  0.00    +0.000 C 
ATOM      8  N   UNL     1       3.443   4.684  18.867  0.00  0.00    +0.000 N 
ATOM      9  C   UNL     1       4.366   3.690  18.551  0.00  0.00    +0.000 C 
ATOM     10  O   UNL     1       4.917   3.020  19.427  0.00  0.00    +0.000 OA
ENDROOT
BRANCH   1  13
ATOM     11  O   UNL     1      -0.064   7.167  21.110  0.00  0.00    +0.000 OA
ATOM     12  C   UNL     1       0.720   8.106  21.164  0.00  0.00    +0.000 C 
ATOM     13  N   UNL     1       1.996   8.093  20.677  0.00  0.00    +0.000 N 
ATOM     14  H   UNL     1       2.527   8.945  20.794  0.00  0.00    +0.000 HD
BRANCH  12  15
ATOM     15  O   UNL     1       0.444   9.322  21.699  0.00  0.00    +0.000 OA
BRANCH  15  16
ATOM     16  C   UNL     1       0.749  10.455  20.876  0.00  0.00    +0.000 C 
BRANCH  16  17
ATOM     17  C   UNL     1      -0.484  10.856  20.106  0.00  0.00    +0.000 A 
ATOM     18  C   UNL     1      -0.755  10.304  18.844  0.00  0.00    +0.000 A 
ATOM     19  C   UNL     1      -1.874  10.720  18.118  0.00  0.00    +0.000 A 
ATOM     20 CL   UNL     1      -2.183  10.041  16.566  0.00  0.00    +0.000 Cl
ATOM     21  C   UNL     1      -2.736  11.685  18.630  0.00  0.00    +0.000 A 
ATOM     22  C   UNL     1      -2.475  12.231  19.884  0.00  0.00    +0.000 A 
ATOM     23 CL   UNL     1      -3.532  13.426  20.528  0.00  0.00    +0.000 Cl
ATOM     24  C   UNL     1      -1.359  11.825  20.620  0.00  0.00    +0.000 A 
ENDBRANCH  16  17
ENDBRANCH  15  16
ENDBRANCH  12  15
ENDBRANCH   1  13
BRANCH   9  25
ATOM     25  C   UNL     1       4.589   3.348  17.085  0.00  0.00    +0.000 C 
BRANCH  25  26
ATOM     26  C   UNL     1       5.187   4.518  16.325  0.00  0.00    +0.000 C 
BRANCH  26  27
ATOM     27  C   UNL     1       6.715   4.453  16.333  0.00  0.00    +0.000 C 
BRANCH  27  28
ATOM     28  C   UNL     1       7.287   5.192  17.483  0.00  0.00    +0.000 A 
ATOM     29  C   UNL     1       7.438   6.549  17.666  0.00  0.00    +0.000 A 
ATOM     30  N   UNL     1       8.068   6.645  18.867  0.00  0.00    +0.000 N 
ATOM     31  N   UNL     1       8.276   5.439  19.412  0.00  0.00    +0.000 NA
ATOM     32  N   UNL     1       7.799   4.533  18.568  0.00  0.00    +0.000 NA
ATOM     33  H   UNL     1       8.391   7.467  19.364  0.00  0.00    +0.000 HD
ENDBRANCH  27  28
ENDBRANCH  26  27
ENDBRANCH  25  26
ENDBRANCH   9  25
TORSDOF 8
ENDMDL
MODEL 5
REMARK VINA RESULT:      -7.7      2.564      3.148
REMARK  Name = 
REMARK  8 active torsions:
REMARK  status: ('A' for Active; 'I' for Inactive)
REMARK    1  A    between atoms: C_2  and  O_22
REMARK    2  A    between atoms: N_3  and  C_4
REMARK    3  A    between atoms: C_12  and  C_14
REMARK    4  A    between atoms: C_14  and  C_15
REMARK    5  A    between atoms: C_15  and  C_16
REMARK    6  A    between atoms: C_16  and  C_17
REMARK    7  A    between atoms: O_22  and  C_23
REMARK    8  A    between atoms: C_23  and  C_24
REMARK                            x       y       z     vdW  Elec       q    Type
REMARK                         _______ _______ _______ _____ _____    ______ ____
ROOT
ATOM      1  C   UNL     1       2.282   6.975  19.503  0.00  0.00    +0.000 C 
ATOM      2  C   UNL     1       2.306   5.892  20.597  0.00  0.00    +0.000 C 
ATOM      3  C   UNL     1       2.709   4.514  20.043  0.00  0.00    +0.000 C 
ATOM      4  C   UNL     1       1.481   3.693  19.561  0.00  0.00    +0.000 C 
ATOM      5  C   UNL     1       1.440   3.889  18.030  0.00  0.00    +0.000 C 
ATOM      6  C   UNL     1       2.418   5.044  17.813  0.00  0.00    +0.000 C 
ATOM      7  C   UNL     1       1.740   6.397  18.190  0.00  0.00    +0.000 C 
ATOM      8  N   UNL     1       3.439   4.680  18.793  0.00  0.00    +0.000 N 
ATOM      9  C   UNL     1       4.500   3.801  18.590  0.00  0.00    +0.000 C 
ATOM     10  O   UNL     1       5.260   3.484  19.508  0.00  0.00    +0.000 OA
ENDROOT
BRANCH   1  13
ATOM     11  O   UNL     1       2.107   9.475  18.117  0.00  0.00    +0.000 OA
ATOM     12  C   UNL     1       1.531   9.315  19.186  0.00  0.00    +0.000 C 
ATOM     13  N   UNL     1       1.555   8.167  19.927  0.00  0.00    +0.000 N 
ATOM     14  H   UNL     1       1.031   8.184  20.790  0.00  0.00    +0.000 HD
BRANCH  12  15
ATOM     15  O   UNL     1       0.790  10.257  19.821  0.00  0.00    +0.000 OA
BRANCH  15  16
ATOM     16  C   UNL     1       0.471  11.426  19.056  0.00  0.00    +0.000 C 
BRANCH  16  17
ATOM     17  C   UNL     1      -0.969  11.353  18.613  0.00  0.00    +0.000 A 
ATOM     18  C   UNL     1      -1.982  11.983  19.352  0.00  0.00    +0.000 A 
ATOM     19  C   UNL     1      -3.319  11.867  18.960  0.00  0.00    +0.000 A 
ATOM     20 CL   UNL     1      -4.548  12.637  19.887  0.00  0.00    +0.000 Cl
ATOM     21  C   UNL     1      -3.667  11.128  17.834  0.00  0.00    +0.000 A 
ATOM     22  C   UNL     1      -2.665  10.506  17.094  0.00  0.00    +0.000 A 
ATOM     23 CL   UNL     1      -3.085   9.586  15.700  0.00  0.00    +0.000 Cl
ATOM     24  C   UNL     1      -1.326  10.613  17.475  0.00  0.00    +0.000 A 
ENDBRANCH  16  17
ENDBRANCH  15  16
ENDBRANCH  12  15
ENDBRANCH   1  13
BRANCH   9  25
ATOM     25  C   UNL     1       4.630   3.125  17.233  0.00  0.00    +0.000 C 
BRANCH  25  26
ATOM     26  C   UNL     1       5.169   4.080  16.184  0.00  0.00    +0.000 C 
BRANCH  26  27
ATOM     27  C   UNL     1       6.671   4.302  16.366  0.00  0.00    +0.000 C 
BRANCH  27  28
ATOM     28  C   UNL     1       6.961   5.645  16.920  0.00  0.00    +0.000 A 
ATOM     29  C   UNL     1       6.486   6.877  16.528  0.00  0.00    +0.000 A 
ATOM     30  N   UNL     1       7.130   7.749  17.348  0.00  0.00    +0.000 N 
ATOM     31  N   UNL     1       7.933   7.112  18.211  0.00  0.00    +0.000 NA
ATOM     32  N   UNL     1       7.839   5.813  17.957  0.00  0.00    +0.000 NA
ATOM     33  H   UNL     1       7.089   8.762  17.377  0.00  0.00    +0.000 HD
ENDBRANCH  27  28
ENDBRANCH  26  27
ENDBRANCH  25  26
ENDBRANCH   9  25
TORSDOF 8
ENDMDL
MODEL 6
REMARK VINA RESULT:      -7.7      1.980      2.450
REMARK  Name = 
REMARK  8 active torsions:
REMARK  status: ('A' for Active; 'I' for Inactive)
REMARK    1  A    between atoms: C_2  and  O_22
REMARK    2  A    between atoms: N_3  and  C_4
REMARK    3  A    between atoms: C_12  and  C_14
REMARK    4  A    between atoms: C_14  and  C_15
REMARK    5  A    between atoms: C_15  and  C_16
REMARK    6  A    between atoms: C_16  and  C_17
REMARK    7  A    between atoms: O_22  and  C_23
REMARK    8  A    between atoms: C_23  and  C_24
REMARK                            x       y       z     vdW  Elec       q    Type
REMARK                         _______ _______ _______ _____ _____    ______ ____
ROOT
ATOM      1  C   UNL     1       2.194   7.777  18.808  0.00  0.00    +0.000 C 
ATOM      2  C   UNL     1       2.324   7.050  20.159  0.00  0.00    +0.000 C 
ATOM      3  C   UNL     1       3.011   5.680  20.020  0.00  0.00    +0.000 C 
ATOM      4  C   UNL     1       1.992   4.539  19.750  0.00  0.00    +0.000 C 
ATOM      5  C   UNL     1       2.040   4.308  18.224  0.00  0.00    +0.000 C 
ATOM      6  C   UNL     1       2.809   5.530  17.723  0.00  0.00    +0.000 C 
ATOM      7  C   UNL     1       1.871   6.777  17.692  0.00  0.00    +0.000 C 
ATOM      8  N   UNL     1       3.797   5.647  18.794  0.00  0.00    +0.000 N 
ATOM      9  C   UNL     1       5.011   4.969  18.871  0.00  0.00    +0.000 C 
ATOM     10  O   UNL     1       5.740   5.062  19.862  0.00  0.00    +0.000 OA
ENDROOT
BRANCH   1  13
ATOM     11  O   UNL     1       2.378  10.305  17.475  0.00  0.00    +0.000 OA
ATOM     12  C   UNL     1       1.414  10.045  18.183  0.00  0.00    +0.000 C 
ATOM     13  N   UNL     1       1.233   8.874  18.865  0.00  0.00    +0.000 N 
ATOM     14  H   UNL     1       0.386   8.803  19.411  0.00  0.00    +0.000 HD
BRANCH  12  15
ATOM     15  O   UNL     1       0.375  10.883  18.425  0.00  0.00    +0.000 OA
BRANCH  15  16
ATOM     16  C   UNL     1       0.636  11.960  19.334  0.00  0.00    +0.000 C 
BRANCH  16  17
ATOM     17  C   UNL     1      -0.172  11.756  20.592  0.00  0.00    +0.000 A 
ATOM     18  C   UNL     1      -1.272  12.578  20.880  0.00  0.00    +0.000 A 
ATOM     19  C   UNL     1      -1.984  12.413  22.072  0.00  0.00    +0.000 A 
ATOM     20 CL   UNL     1      -3.322  13.439  22.414  0.00  0.00    +0.000 Cl
ATOM     21  C   UNL     1      -1.615  11.434  22.990  0.00  0.00    +0.000 A 
ATOM     22  C   UNL     1      -0.528  10.612  22.705  0.00  0.00    +0.000 A 
ATOM     23 CL   UNL     1      -0.061   9.399  23.833  0.00  0.00    +0.000 Cl
ATOM     24  C   UNL     1       0.192  10.767  21.518  0.00  0.00    +0.000 A 
ENDBRANCH  16  17
ENDBRANCH  15  16
ENDBRANCH  12  15
ENDBRANCH   1  13
BRANCH   9  25
ATOM     25  C   UNL     1       5.369   3.994  17.759  0.00  0.00    +0.000 C 
BRANCH  25  26
ATOM     26  C   UNL     1       6.041   4.700  16.596  0.00  0.00    +0.000 C 
BRANCH  26  27
ATOM     27  C   UNL     1       5.908   3.884  15.310  0.00  0.00    +0.000 C 
BRANCH  27  28
ATOM     28  C   UNL     1       6.713   4.465  14.209  0.00  0.00    +0.000 A 
ATOM     29  C   UNL     1       6.706   4.166  12.865  0.00  0.00    +0.000 A 
ATOM     30  N   UNL     1       7.680   4.962  12.351  0.00  0.00    +0.000 N 
ATOM     31  N   UNL     1       8.243   5.725  13.297  0.00  0.00    +0.000 NA
ATOM     32  N   UNL     1       7.656   5.427  14.449  0.00  0.00    +0.000 NA
ATOM     33  H   UNL     1       8.021   5.035  11.399  0.00  0.00    +0.000 HD
ENDBRANCH  27  28
ENDBRANCH  26  27
ENDBRANCH  25  26
ENDBRANCH   9  25
TORSDOF 8
ENDMDL
MODEL 7
REMARK VINA RESULT:      -7.7      1.903      2.956
REMARK  Name = 
REMARK  8 active torsions:
REMARK  status: ('A' for Active; 'I' for Inactive)
REMARK    1  A    between atoms: C_2  and  O_22
REMARK    2  A    between atoms: N_3  and  C_4
REMARK    3  A    between atoms: C_12  and  C_14
REMARK    4  A    between atoms: C_14  and  C_15
REMARK    5  A    between atoms: C_15  and  C_16
REMARK    6  A    between atoms: C_16  and  C_17
REMARK    7  A    between atoms: O_22  and  C_23
REMARK    8  A    between atoms: C_23  and  C_24
REMARK                            x       y       z     vdW  Elec       q    Type
REMARK                         _______ _______ _______ _____ _____    ______ ____
ROOT
ATOM      1  C   UNL     1       2.432   6.561  19.958  0.00  0.00    +0.000 C 
ATOM      2  C   UNL     1       2.212   5.311  20.829  0.00  0.00    +0.000 C 
ATOM      3  C   UNL     1       2.466   4.008  20.051  0.00  0.00    +0.000 C 
ATOM      4  C   UNL     1       1.181   3.481  19.355  0.00  0.00    +0.000 C 
ATOM      5  C   UNL     1       1.296   3.949  17.888  0.00  0.00    +0.000 C 
ATOM      6  C   UNL     1       2.440   4.962  17.946  0.00  0.00    +0.000 C 
ATOM      7  C   UNL     1       1.927   6.314  18.531  0.00  0.00    +0.000 C 
ATOM      8  N   UNL     1       3.315   4.280  18.899  0.00  0.00    +0.000 N 
ATOM      9  C   UNL     1       4.257   3.300  18.596  0.00  0.00    +0.000 C 
ATOM     10  O   UNL     1       4.886   2.714  19.481  0.00  0.00    +0.000 OA
ENDROOT
BRANCH   1  13
ATOM     11  O   UNL     1       1.624   8.951  18.602  0.00  0.00    +0.000 OA
ATOM     12  C   UNL     1       1.487   8.848  19.814  0.00  0.00    +0.000 C 
ATOM     13  N   UNL     1       1.843   7.756  20.555  0.00  0.00    +0.000 N 
ATOM     14  H   UNL     1       1.669   7.816  21.548  0.00  0.00    +0.000 HD
BRANCH  12  15
ATOM     15  O   UNL     1       0.978   9.808  20.625  0.00  0.00    +0.000 OA
BRANCH  15  16
ATOM     16  C   UNL     1       0.890  11.124  20.064  0.00  0.00    +0.000 C 
BRANCH  16  17
ATOM     17  C   UNL     1      -0.561  11.490  19.876  0.00  0.00    +0.000 A 
ATOM     18  C   UNL     1      -1.220  11.222  18.666  0.00  0.00    +0.000 A 
ATOM     19  C   UNL     1      -2.550  11.610  18.486  0.00  0.00    +0.000 A 
ATOM     20 CL   UNL     1      -3.337  11.284  16.990  0.00  0.00    +0.000 Cl
ATOM     21  C   UNL     1      -3.243  12.265  19.499  0.00  0.00    +0.000 A 
ATOM     22  C   UNL     1      -2.596  12.527  20.704  0.00  0.00    +0.000 A 
ATOM     23 CL   UNL     1      -3.442  13.338  21.965  0.00  0.00    +0.000 Cl
ATOM     24  C   UNL     1      -1.266  12.146  20.897  0.00  0.00    +0.000 A 
ENDBRANCH  16  17
ENDBRANCH  15  16
ENDBRANCH  12  15
ENDBRANCH   1  13
BRANCH   9  25
ATOM     25  C   UNL     1       4.405   2.862  17.146  0.00  0.00    +0.000 C 
BRANCH  25  26
ATOM     26  C   UNL     1       5.642   3.466  16.507  0.00  0.00    +0.000 C 
BRANCH  26  27
ATOM     27  C   UNL     1       5.303   4.772  15.786  0.00  0.00    +0.000 C 
BRANCH  27  28
ATOM     28  C   UNL     1       6.057   5.917  16.348  0.00  0.00    +0.000 A 
ATOM     29  C   UNL     1       5.609   6.974  17.108  0.00  0.00    +0.000 A 
ATOM     30  N   UNL     1       6.717   7.740  17.285  0.00  0.00    +0.000 N 
ATOM     31  N   UNL     1       7.792   7.193  16.700  0.00  0.00    +0.000 NA
ATOM     32  N   UNL     1       7.397   6.068  16.117  0.00  0.00    +0.000 NA
ATOM     33  H   UNL     1       6.822   8.626  17.765  0.00  0.00    +0.000 HD
ENDBRANCH  27  28
ENDBRANCH  26  27
ENDBRANCH  25  26
ENDBRANCH   9  25
TORSDOF 8
ENDMDL
MODEL 8
REMARK VINA RESULT:      -7.7      7.539     10.746
REMARK  Name = 
REMARK  8 active torsions:
REMARK  status: ('A' for Active; 'I' for Inactive)
REMARK    1  A    between atoms: C_2  and  O_22
REMARK    2  A    between atoms: N_3  and  C_4
REMARK    3  A    between atoms: C_12  and  C_14
REMARK    4  A    between atoms: C_14  and  C_15
REMARK    5  A    between atoms: C_15  and  C_16
REMARK    6  A    between atoms: C_16  and  C_17
REMARK    7  A    between atoms: O_22  and  C_23
REMARK    8  A    between atoms: C_23  and  C_24
REMARK                            x       y       z     vdW  Elec       q    Type
REMARK                         _______ _______ _______ _____ _____    ______ ____
ROOT
ATOM      1  C   UNL     1       9.030  10.292  19.141  0.00  0.00    +0.000 C 
ATOM      2  C   UNL     1       9.623  10.655  20.515  0.00  0.00    +0.000 C 
ATOM      3  C   UNL     1      10.198  12.082  20.541  0.00  0.00    +0.000 C 
ATOM      4  C   UNL     1      11.695  12.119  20.128  0.00  0.00    +0.000 C 
ATOM      5  C   UNL     1      11.693  12.540  18.642  0.00  0.00    +0.000 C 
ATOM      6  C   UNL     1      10.224  12.386  18.250  0.00  0.00    +0.000 C 
ATOM      7  C   UNL     1       9.888  10.881  18.016  0.00  0.00    +0.000 C 
ATOM      8  N   UNL     1       9.596  12.875  19.477  0.00  0.00    +0.000 N 
ATOM      9  C   UNL     1       9.327  14.205  19.791  0.00  0.00    +0.000 C 
ATOM     10  O   UNL     1       8.879  14.530  20.893  0.00  0.00    +0.000 OA
ENDROOT
BRANCH   1  13
ATOM     11  O   UNL     1       7.368   8.967  17.221  0.00  0.00    +0.000 OA
ATOM     12  C   UNL     1       8.015   8.320  18.035  0.00  0.00    +0.000 C 
ATOM     13  N   UNL     1       8.831   8.853  18.993  0.00  0.00    +0.000 N 
ATOM     14  H   UNL     1       9.301   8.193  19.595  0.00  0.00    +0.000 HD
BRANCH  12  15
ATOM     15  O   UNL     1       8.012   6.968  18.134  0.00  0.00    +0.000 OA
BRANCH  15  16
ATOM     16  C   UNL     1       7.276   6.265  17.125  0.00  0.00    +0.000 C 
BRANCH  16  17
ATOM     17  C   UNL     1       5.953   5.817  17.695  0.00  0.00    +0.000 A 
ATOM     18  C   UNL     1       4.817   6.635  17.603  0.00  0.00    +0.000 A 
ATOM     19  C   UNL     1       3.608   6.231  18.178  0.00  0.00    +0.000 A 
ATOM     20 CL   UNL     1       2.229   7.255  18.066  0.00  0.00    +0.000 Cl
ATOM     21  C   UNL     1       3.512   5.016  18.849  0.00  0.00    +0.000 A 
ATOM     22  C   UNL     1       4.635   4.198  18.937  0.00  0.00    +0.000 A 
ATOM     23 CL   UNL     1       4.528   2.694  19.766  0.00  0.00    +0.000 Cl
ATOM     24  C   UNL     1       5.848   4.590  18.368  0.00  0.00    +0.000 A 
ENDBRANCH  16  17
ENDBRANCH  15  16
ENDBRANCH  12  15
ENDBRANCH   1  13
BRANCH   9  25
ATOM     25  C   UNL     1       9.726  15.280  18.790  0.00  0.00    +0.000 C 
BRANCH  25  26
ATOM     26  C   UNL     1       8.537  15.741  17.967  0.00  0.00    +0.000 C 
BRANCH  26  27
ATOM     27  C   UNL     1       8.148  17.176  18.322  0.00  0.00    +0.000 C 
BRANCH  27  28
ATOM     28  C   UNL     1       6.776  17.248  18.878  0.00  0.00    +0.000 A 
ATOM     29  C   UNL     1       5.707  16.401  18.687  0.00  0.00    +0.000 A 
ATOM     30  N   UNL     1       4.700  16.986  19.388  0.00  0.00    +0.000 N 
ATOM     31  N   UNL     1       5.111  18.108  19.996  0.00  0.00    +0.000 NA
ATOM     32  N   UNL     1       6.390  18.281  19.688  0.00  0.00    +0.000 NA
ATOM     33  H   UNL     1       3.733  16.703  19.490  0.00  0.00    +0.000 HD
ENDBRANCH  27  28
ENDBRANCH  26  27
ENDBRANCH  25  26
ENDBRANCH   9  25
TORSDOF 8
ENDMDL
MODEL 9
REMARK VINA RESULT:      -7.7      2.065      2.805
REMARK  Name = 
REMARK  8 active torsions:
REMARK  status: ('A' for Active; 'I' for Inactive)
REMARK    1  A    between atoms: C_2  and  O_22
REMARK    2  A    between atoms: N_3  and  C_4
REMARK    3  A    between atoms: C_12  and  C_14
REMARK    4  A    between atoms: C_14  and  C_15
REMARK    5  A    between atoms: C_15  and  C_16
REMARK    6  A    between atoms: C_16  and  C_17
REMARK    7  A    between atoms: O_22  and  C_23
REMARK    8  A    between atoms: C_23  and  C_24
REMARK                            x       y       z     vdW  Elec       q    Type
REMARK                         _______ _______ _______ _____ _____    ______ ____
ROOT
ATOM      1  C   UNL     1       2.184   7.211  19.569  0.00  0.00    +0.000 C 
ATOM      2  C   UNL     1       1.959   6.055  20.560  0.00  0.00    +0.000 C 
ATOM      3  C   UNL     1       2.434   4.704  19.997  0.00  0.00    +0.000 C 
ATOM      4  C   UNL     1       1.310   3.966  19.218  0.00  0.00    +0.000 C 
ATOM      5  C   UNL     1       1.585   4.268  17.729  0.00  0.00    +0.000 C 
ATOM      6  C   UNL     1       2.614   5.397  17.800  0.00  0.00    +0.000 C 
ATOM      7  C   UNL     1       1.906   6.746  18.134  0.00  0.00    +0.000 C 
ATOM      8  N   UNL     1       3.406   4.928  18.936  0.00  0.00    +0.000 N 
ATOM      9  C   UNL     1       4.465   4.024  18.884  0.00  0.00    +0.000 C 
ATOM     10  O   UNL     1       5.015   3.616  19.910  0.00  0.00    +0.000 OA
ENDROOT
BRANCH   1  13
ATOM     11  O   UNL     1       1.951   8.402  22.163  0.00  0.00    +0.000 OA
ATOM     12  C   UNL     1       1.373   8.890  21.201  0.00  0.00    +0.000 C 
ATOM     13  N   UNL     1       1.414   8.398  19.926  0.00  0.00    +0.000 N 
ATOM     14  H   UNL     1       0.884   8.909  19.234  0.00  0.00    +0.000 HD
BRANCH  12  15
ATOM     15  O   UNL     1       0.578   9.989  21.244  0.00  0.00    +0.000 OA
BRANCH  15  16
ATOM     16  C   UNL     1       0.734  10.919  20.165  0.00  0.00    +0.000 C 
BRANCH  16  17
ATOM     17  C   UNL     1      -0.603  11.142  19.503  0.00  0.00    +0.000 A 
ATOM     18  C   UNL     1      -1.572  11.964  20.099  0.00  0.00    +0.000 A 
ATOM     19  C   UNL     1      -2.826  12.124  19.502  0.00  0.00    +0.000 A 
ATOM     20 CL   UNL     1      -4.005  13.127  20.254  0.00  0.00    +0.000 Cl
ATOM     21  C   UNL     1      -3.134  11.473  18.311  0.00  0.00    +0.000 A 
ATOM     22  C   UNL     1      -2.174  10.661  17.713  0.00  0.00    +0.000 A 
ATOM     23 CL   UNL     1      -2.545   9.849  16.241  0.00  0.00    +0.000 Cl
ATOM     24  C   UNL     1      -0.918  10.492  18.299  0.00  0.00    +0.000 A 
ENDBRANCH  16  17
ENDBRANCH  15  16
ENDBRANCH  12  15
ENDBRANCH   1  13
BRANCH   9  25
ATOM     25  C   UNL     1       4.852   3.438  17.534  0.00  0.00    +0.000 C 
BRANCH  25  26
ATOM     26  C   UNL     1       5.360   4.510  16.588  0.00  0.00    +0.000 C 
BRANCH  26  27
ATOM     27  C   UNL     1       6.889   4.545  16.571  0.00  0.00    +0.000 C 
BRANCH  27  28
ATOM     28  C   UNL     1       7.418   5.676  17.370  0.00  0.00    +0.000 A 
ATOM     29  C   UNL     1       7.809   5.710  18.690  0.00  0.00    +0.000 A 
ATOM     30  N   UNL     1       8.146   7.010  18.895  0.00  0.00    +0.000 N 
ATOM     31  N   UNL     1       8.002   7.738  17.780  0.00  0.00    +0.000 NA
ATOM     32  N   UNL     1       7.552   6.927  16.831  0.00  0.00    +0.000 NA
ATOM     33  H   UNL     1       8.462   7.471  19.741  0.00  0.00    +0.000 HD
ENDBRANCH  27  28
ENDBRANCH  26  27
ENDBRANCH  25  26
ENDBRANCH   9  25
TORSDOF 8
ENDMDL
