MODEL 1
REMARK VINA RESULT:      -8.9      0.000      0.000
REMARK  Name = 
REMARK  11 active torsions:
REMARK  status: ('A' for Active; 'I' for Inactive)
REMARK    1  A    between atoms: C_1  and  C_2
REMARK    2  A    between atoms: C_5  and  C_6
REMARK    3  A    between atoms: N_11  and  C_12
REMARK    4  A    between atoms: C_12  and  C_13
REMARK    5  A    between atoms: C_13  and  C_14
REMARK    6  A    between atoms: N_16  and  C_17
REMARK    7  A    between atoms: C_17  and  C_18
REMARK    8  A    between atoms: C_18  and  C_19
REMARK    9  A    between atoms: C_19  and  N_20
REMARK   10  A    between atoms: C_22  and  C_23
REMARK   11  A    between atoms: C_25  and  C_26
REMARK                            x       y       z     vdW  Elec       q    Type
REMARK                         _______ _______ _______ _____ _____    ______ ____
ROOT
ATOM      1  C   UNL     1       1.436   5.673  20.706  0.00  0.00    +0.000 C 
ENDROOT
BRANCH   1   2
ATOM      2  C   UNL     1       1.500   4.212  20.313  0.00  0.00    +0.000 C 
ATOM      3  O   UNL     1       1.425   3.290  21.119  0.00  0.00    +0.000 OA
ATOM      4  N   UNL     1       1.652   4.012  18.957  0.00  0.00    +0.000 N 
ATOM      5  H   UNL     1       1.616   4.811  18.339  0.00  0.00    +0.000 HD
BRANCH   4   6
ATOM      6  C   UNL     1       1.679   2.680  18.379  0.00  0.00    +0.000 C 
BRANCH   6   7
ATOM      7  C   UNL     1       3.005   2.362  17.690  0.00  0.00    +0.000 C 
BRANCH   7   8
ATOM      8  C   UNL     1       4.164   3.165  18.296  0.00  0.00    +0.000 C 
BRANCH   8   9
ATOM      9  N   UNL     1       4.330   4.509  17.712  0.00  0.00    +0.000 NA
ATOM     10  C   UNL     1       5.387   5.303  18.363  0.00  0.00    +0.000 C 
ATOM     11  C   UNL     1       6.799   4.738  18.131  0.00  0.00    +0.000 C 
ATOM     12  C   UNL     1       7.848   5.574  18.856  0.00  0.00    +0.000 C 
ATOM     13  C   UNL     1       7.081   4.665  16.625  0.00  0.00    +0.000 C 
ATOM     14  C   UNL     1       5.980   3.877  15.901  0.00  0.00    +0.000 C 
ATOM     15  C   UNL     1       6.205   3.893  14.390  0.00  0.00    +0.000 C 
ATOM     16  C   UNL     1       4.588   4.434  16.260  0.00  0.00    +0.000 C 
ENDBRANCH   8   9
ENDBRANCH   7   8
ENDBRANCH   6   7
ENDBRANCH   4   6
ENDBRANCH   1   2
BRANCH   1  17
ATOM     17  C   UNL     1       2.505   6.458  19.957  0.00  0.00    +0.000 C 
BRANCH  17  23
ATOM     18  C   UNL     1       0.710   9.572  20.009  0.00  0.00    +0.000 A 
ATOM     19  C   UNL     1       0.940  10.159  18.670  0.00  0.00    +0.000 A 
ATOM     20  C   UNL     1       1.783   9.520  17.866  0.00  0.00    +0.000 A 
ATOM     21  C   UNL     1       2.428   8.260  18.288  0.00  0.00    +0.000 A 
ATOM     22  O   UNL     1       3.226   7.716  17.528  0.00  0.00    +0.000 OA
ATOM     23  N   UNL     1       2.054   7.776  19.531  0.00  0.00    +0.000 N 
ATOM     24  N   UNL     1       1.237   8.455  20.409  0.00  0.00    +0.000 NA
BRANCH  18  29
ATOM     25  C   UNL     1      -2.758  12.641  23.512  0.00  0.00    +0.000 C 
ATOM     26  C   UNL     1      -1.859  11.833  22.623  0.00  0.00    +0.000 A 
ATOM     27  C   UNL     1      -1.134  10.751  23.130  0.00  0.00    +0.000 A 
ATOM     28  C   UNL     1      -0.285  10.015  22.299  0.00  0.00    +0.000 A 
ATOM     29  C   UNL     1      -0.164  10.345  20.943  0.00  0.00    +0.000 A 
ATOM     30  C   UNL     1      -0.880  11.438  20.439  0.00  0.00    +0.000 A 
ATOM     31  C   UNL     1      -1.725  12.174  21.272  0.00  0.00    +0.000 A 
ENDBRANCH  18  29
ENDBRANCH  17  23
ENDBRANCH   1  17
TORSDOF 8
ENDMDL
MODEL 2
REMARK VINA RESULT:      -8.1      4.686      7.249
REMARK  Name = 
REMARK  11 active torsions:
REMARK  status: ('A' for Active; 'I' for Inactive)
REMARK    1  A    between atoms: C_1  and  C_2
REMARK    2  A    between atoms: C_5  and  C_6
REMARK    3  A    between atoms: N_11  and  C_12
REMARK    4  A    between atoms: C_12  and  C_13
REMARK    5  A    between atoms: C_13  and  C_14
REMARK    6  A    between atoms: N_16  and  C_17
REMARK    7  A    between atoms: C_17  and  C_18
REMARK    8  A    between atoms: C_18  and  C_19
REMARK    9  A    between atoms: C_19  and  N_20
REMARK   10  A    between atoms: C_22  and  C_23
REMARK   11  A    between atoms: C_25  and  C_26
REMARK                            x       y       z     vdW  Elec       q    Type
REMARK                         _______ _______ _______ _____ _____    ______ ____
ROOT
ATOM      1  C   UNL     1       6.524   4.968  17.424  0.00  0.00    +0.000 C 
ENDROOT
BRANCH   1   2
ATOM      2  C   UNL     1       6.693   6.440  17.112  0.00  0.00    +0.000 C 
ATOM      3  O   UNL     1       6.047   7.029  16.250  0.00  0.00    +0.000 OA
ATOM      4  N   UNL     1       7.648   7.063  17.888  0.00  0.00    +0.000 N 
ATOM      5  H   UNL     1       8.080   6.543  18.641  0.00  0.00    +0.000 HD
BRANCH   4   6
ATOM      6  C   UNL     1       7.917   8.486  17.777  0.00  0.00    +0.000 C 
BRANCH   6   7
ATOM      7  C   UNL     1       8.903   8.984  18.831  0.00  0.00    +0.000 C 
BRANCH   7   8
ATOM      8  C   UNL     1       9.043  10.512  18.796  0.00  0.00    +0.000 C 
BRANCH   8   9
ATOM      9  N   UNL     1      10.364  11.002  19.231  0.00  0.00    +0.000 NA
ATOM     10  C   UNL     1      11.129  11.654  18.154  0.00  0.00    +0.000 C 
ATOM     11  C   UNL     1      10.501  12.976  17.680  0.00  0.00    +0.000 C 
ATOM     12  C   UNL     1      11.310  13.588  16.542  0.00  0.00    +0.000 C 
ATOM     13  C   UNL     1      10.380  13.941  18.866  0.00  0.00    +0.000 C 
ATOM     14  C   UNL     1       9.621  13.285  20.028  0.00  0.00    +0.000 C 
ATOM     15  C   UNL     1       9.591  14.207  21.246  0.00  0.00    +0.000 C 
ATOM     16  C   UNL     1      10.243  11.920  20.381  0.00  0.00    +0.000 C 
ENDBRANCH   8   9
ENDBRANCH   7   8
ENDBRANCH   6   7
ENDBRANCH   4   6
ENDBRANCH   1   2
BRANCH   1  17
ATOM     17  C   UNL     1       6.237   4.784  18.908  0.00  0.00    +0.000 C 
BRANCH  17  23
ATOM     18  C   UNL     1       2.943   6.094  19.507  0.00  0.00    +0.000 A 
ATOM     19  C   UNL     1       2.182   4.953  20.065  0.00  0.00    +0.000 A 
ATOM     20  C   UNL     1       2.797   3.776  20.101  0.00  0.00    +0.000 A 
ATOM     21  C   UNL     1       4.191   3.632  19.634  0.00  0.00    +0.000 A 
ATOM     22  O   UNL     1       4.713   2.520  19.655  0.00  0.00    +0.000 OA
ATOM     23  N   UNL     1       4.814   4.799  19.221  0.00  0.00    +0.000 N 
ATOM     24  N   UNL     1       4.176   6.015  19.110  0.00  0.00    +0.000 NA
BRANCH  18  29
ATOM     25  C   UNL     1       0.113  11.122  18.856  0.00  0.00    +0.000 C 
ATOM     26  C   UNL     1       0.836   9.821  19.045  0.00  0.00    +0.000 A 
ATOM     27  C   UNL     1       0.904   9.215  20.302  0.00  0.00    +0.000 A 
ATOM     28  C   UNL     1       1.595   8.012  20.473  0.00  0.00    +0.000 A 
ATOM     29  C   UNL     1       2.215   7.393  19.381  0.00  0.00    +0.000 A 
ATOM     30  C   UNL     1       2.159   8.008  18.124  0.00  0.00    +0.000 A 
ATOM     31  C   UNL     1       1.471   9.211  17.956  0.00  0.00    +0.000 A 
ENDBRANCH  18  29
ENDBRANCH  17  23
ENDBRANCH   1  17
TORSDOF 8
ENDMDL
MODEL 3
REMARK VINA RESULT:      -8.0      1.281      2.222
REMARK  Name = 
REMARK  11 active torsions:
REMARK  status: ('A' for Active; 'I' for Inactive)
REMARK    1  A    between atoms: C_1  and  C_2
REMARK    2  A    between atoms: C_5  and  C_6
REMARK    3  A    between atoms: N_11  and  C_12
REMARK    4  A    between atoms: C_12  and  C_13
REMARK    5  A    between atoms: C_13  and  C_14
REMARK    6  A    between atoms: N_16  and  C_17
REMARK    7  A    between atoms: C_17  and  C_18
REMARK    8  A    between atoms: C_18  and  C_19
REMARK    9  A    between atoms: C_19  and  N_20
REMARK   10  A    between atoms: C_22  and  C_23
REMARK   11  A    between atoms: C_25  and  C_26
REMARK                            x       y       z     vdW  Elec       q    Type
REMARK                         _______ _______ _______ _____ _____    ______ ____
ROOT
ATOM      1  C   UNL     1       1.096   4.739  20.383  0.00  0.00    +0.000 C 
ENDROOT
BRANCH   1   2
ATOM      2  C   UNL     1       1.776   3.842  19.370  0.00  0.00    +0.000 C 
ATOM      3  O   UNL     1       1.219   3.412  18.365  0.00  0.00    +0.000 OA
ATOM      4  N   UNL     1       3.086   3.549  19.684  0.00  0.00    +0.000 N 
ATOM      5  H   UNL     1       3.512   4.008  20.478  0.00  0.00    +0.000 HD
BRANCH   4   6
ATOM      6  C   UNL     1       3.923   2.748  18.808  0.00  0.00    +0.000 C 
BRANCH   6   7
ATOM      7  C   UNL     1       4.803   3.597  17.893  0.00  0.00    +0.000 C 
BRANCH   7   8
ATOM      8  C   UNL     1       5.673   4.575  18.694  0.00  0.00    +0.000 C 
BRANCH   8   9
ATOM      9  N   UNL     1       7.084   4.605  18.270  0.00  0.00    +0.000 NA
ATOM     10  C   UNL     1       7.278   4.247  16.853  0.00  0.00    +0.000 C 
ATOM     11  C   UNL     1       6.688   5.282  15.881  0.00  0.00    +0.000 C 
ATOM     12  C   UNL     1       6.882   4.844  14.434  0.00  0.00    +0.000 C 
ATOM     13  C   UNL     1       7.324   6.653  16.143  0.00  0.00    +0.000 C 
ATOM     14  C   UNL     1       7.179   7.049  17.619  0.00  0.00    +0.000 C 
ATOM     15  C   UNL     1       7.903   8.364  17.903  0.00  0.00    +0.000 C 
ATOM     16  C   UNL     1       7.696   5.923  18.537  0.00  0.00    +0.000 C 
ENDBRANCH   8   9
ENDBRANCH   7   8
ENDBRANCH   6   7
ENDBRANCH   4   6
ENDBRANCH   1   2
BRANCH   1  17
ATOM     17  C   UNL     1       2.070   5.807  20.864  0.00  0.00    +0.000 C 
BRANCH  17  23
ATOM     18  C   UNL     1       0.696   9.101  20.432  0.00  0.00    +0.000 A 
ATOM     19  C   UNL     1       1.102   9.500  19.066  0.00  0.00    +0.000 A 
ATOM     20  C   UNL     1       1.914   8.676  18.411  0.00  0.00    +0.000 A 
ATOM     21  C   UNL     1       2.356   7.404  19.017  0.00  0.00    +0.000 A 
ATOM     22  O   UNL     1       3.131   6.685  18.392  0.00  0.00    +0.000 OA
ATOM     23  N   UNL     1       1.828   7.113  20.265  0.00  0.00    +0.000 N 
ATOM     24  N   UNL     1       1.042   7.982  20.991  0.00  0.00    +0.000 NA
BRANCH  18  29
ATOM     25  C   UNL     1      -2.601  12.943  23.275  0.00  0.00    +0.000 C 
ATOM     26  C   UNL     1      -1.749  11.938  22.559  0.00  0.00    +0.000 A 
ATOM     27  C   UNL     1      -1.191  10.854  23.242  0.00  0.00    +0.000 A 
ATOM     28  C   UNL     1      -0.384   9.931  22.571  0.00  0.00    +0.000 A 
ATOM     29  C   UNL     1      -0.138  10.076  21.200  0.00  0.00    +0.000 A 
ATOM     30  C   UNL     1      -0.685  11.169  20.518  0.00  0.00    +0.000 A 
ATOM     31  C   UNL     1      -1.489  12.091  21.192  0.00  0.00    +0.000 A 
ENDBRANCH  18  29
ENDBRANCH  17  23
ENDBRANCH   1  17
TORSDOF 8
ENDMDL
MODEL 4
REMARK VINA RESULT:      -7.9      4.762      7.248
REMARK  Name = 
REMARK  11 active torsions:
REMARK  status: ('A' for Active; 'I' for Inactive)
REMARK    1  A    between atoms: C_1  and  C_2
REMARK    2  A    between atoms: C_5  and  C_6
REMARK    3  A    between atoms: N_11  and  C_12
REMARK    4  A    between atoms: C_12  and  C_13
REMARK    5  A    between atoms: C_13  and  C_14
REMARK    6  A    between atoms: N_16  and  C_17
REMARK    7  A    between atoms: C_17  and  C_18
REMARK    8  A    between atoms: C_18  and  C_19
REMARK    9  A    between atoms: C_19  and  N_20
REMARK   10  A    between atoms: C_22  and  C_23
REMARK   11  A    between atoms: C_25  and  C_26
REMARK                            x       y       z     vdW  Elec       q    Type
REMARK                         _______ _______ _______ _____ _____    ______ ____
ROOT
ATOM      1  C   UNL     1       7.099   5.008  18.056  0.00  0.00    +0.000 C 
ENDROOT
BRANCH   1   2
ATOM      2  C   UNL     1       7.316   6.328  17.347  0.00  0.00    +0.000 C 
ATOM      3  O   UNL     1       7.028   6.520  16.169  0.00  0.00    +0.000 OA
ATOM      4  N   UNL     1       7.871   7.302  18.150  0.00  0.00    +0.000 N 
ATOM      5  H   UNL     1       8.000   7.108  19.135  0.00  0.00    +0.000 HD
BRANCH   4   6
ATOM      6  C   UNL     1       8.105   8.652  17.668  0.00  0.00    +0.000 C 
BRANCH   6   7
ATOM      7  C   UNL     1       8.694   9.568  18.738  0.00  0.00    +0.000 C 
BRANCH   7   8
ATOM      8  C   UNL     1       9.649  10.604  18.132  0.00  0.00    +0.000 C 
BRANCH   8   9
ATOM      9  N   UNL     1       9.158  11.992  18.216  0.00  0.00    +0.000 NA
ATOM     10  C   UNL     1       8.832  12.415  19.589  0.00  0.00    +0.000 C 
ATOM     11  C   UNL     1      10.067  12.517  20.500  0.00  0.00    +0.000 C 
ATOM     12  C   UNL     1       9.669  12.921  21.916  0.00  0.00    +0.000 C 
ATOM     13  C   UNL     1      11.071  13.506  19.896  0.00  0.00    +0.000 C 
ATOM     14  C   UNL     1      11.410  13.123  18.448  0.00  0.00    +0.000 C 
ATOM     15  C   UNL     1      12.328  14.164  17.811  0.00  0.00    +0.000 C 
ATOM     16  C   UNL     1      10.123  12.938  17.620  0.00  0.00    +0.000 C 
ENDBRANCH   8   9
ENDBRANCH   7   8
ENDBRANCH   6   7
ENDBRANCH   4   6
ENDBRANCH   1   2
BRANCH   1  17
ATOM     17  C   UNL     1       6.442   5.250  19.409  0.00  0.00    +0.000 C 
BRANCH  17  23
ATOM     18  C   UNL     1       2.999   6.284  19.333  0.00  0.00    +0.000 A 
ATOM     19  C   UNL     1       2.229   5.039  19.553  0.00  0.00    +0.000 A 
ATOM     20  C   UNL     1       2.917   3.903  19.601  0.00  0.00    +0.000 A 
ATOM     21  C   UNL     1       4.389   3.900  19.476  0.00  0.00    +0.000 A 
ATOM     22  O   UNL     1       4.985   2.825  19.494  0.00  0.00    +0.000 OA
ATOM     23  N   UNL     1       4.989   5.144  19.365  0.00  0.00    +0.000 N 
ATOM     24  N   UNL     1       4.294   6.327  19.243  0.00  0.00    +0.000 NA
BRANCH  18  29
ATOM     25  C   UNL     1      -0.050  11.207  18.914  0.00  0.00    +0.000 C 
ATOM     26  C   UNL     1       0.744   9.938  19.002  0.00  0.00    +0.000 A 
ATOM     27  C   UNL     1       1.343   9.388  17.865  0.00  0.00    +0.000 A 
ATOM     28  C   UNL     1       2.067   8.195  17.952  0.00  0.00    +0.000 A 
ATOM     29  C   UNL     1       2.213   7.546  19.184  0.00  0.00    +0.000 A 
ATOM     30  C   UNL     1       1.601   8.090  20.321  0.00  0.00    +0.000 A 
ATOM     31  C   UNL     1       0.876   9.280  20.231  0.00  0.00    +0.000 A 
ENDBRANCH  18  29
ENDBRANCH  17  23
ENDBRANCH   1  17
TORSDOF 8
ENDMDL
MODEL 5
REMARK VINA RESULT:      -7.6      4.751      7.039
REMARK  Name = 
REMARK  11 active torsions:
REMARK  status: ('A' for Active; 'I' for Inactive)
REMARK    1  A    between atoms: C_1  and  C_2
REMARK    2  A    between atoms: C_5  and  C_6
REMARK    3  A    between atoms: N_11  and  C_12
REMARK    4  A    between atoms: C_12  and  C_13
REMARK    5  A    between atoms: C_13  and  C_14
REMARK    6  A    between atoms: N_16  and  C_17
REMARK    7  A    between atoms: C_17  and  C_18
REMARK    8  A    between atoms: C_18  and  C_19
REMARK    9  A    between atoms: C_19  and  N_20
REMARK   10  A    between atoms: C_22  and  C_23
REMARK   11  A    between atoms: C_25  and  C_26
REMARK                            x       y       z     vdW  Elec       q    Type
REMARK                         _______ _______ _______ _____ _____    ______ ____
ROOT
ATOM      1  C   UNL     1       5.303   6.018  17.226  0.00  0.00    +0.000 C 
ENDROOT
BRANCH   1   2
ATOM      2  C   UNL     1       6.683   6.578  16.954  0.00  0.00    +0.000 C 
ATOM      3  O   UNL     1       7.478   6.070  16.170  0.00  0.00    +0.000 OA
ATOM      4  N   UNL     1       6.967   7.719  17.676  0.00  0.00    +0.000 N 
ATOM      5  H   UNL     1       6.236   8.137  18.236  0.00  0.00    +0.000 HD
BRANCH   4   6
ATOM      6  C   UNL     1       8.220   8.436  17.513  0.00  0.00    +0.000 C 
BRANCH   6   7
ATOM      7  C   UNL     1       8.588   9.267  18.740  0.00  0.00    +0.000 C 
BRANCH   7   8
ATOM      8  C   UNL     1       9.083  10.665  18.348  0.00  0.00    +0.000 C 
BRANCH   8   9
ATOM      9  N   UNL     1      10.431  10.986  18.852  0.00  0.00    +0.000 NA
ATOM     10  C   UNL     1      11.217  11.824  17.929  0.00  0.00    +0.000 C 
ATOM     11  C   UNL     1      10.650  13.245  17.771  0.00  0.00    +0.000 C 
ATOM     12  C   UNL     1      11.477  14.055  16.779  0.00  0.00    +0.000 C 
ATOM     13  C   UNL     1      10.590  13.929  19.143  0.00  0.00    +0.000 C 
ATOM     14  C   UNL     1       9.811  13.069  20.148  0.00  0.00    +0.000 C 
ATOM     15  C   UNL     1       9.840  13.699  21.539  0.00  0.00    +0.000 C 
ATOM     16  C   UNL     1      10.368  11.632  20.179  0.00  0.00    +0.000 C 
ENDBRANCH   8   9
ENDBRANCH   7   8
ENDBRANCH   6   7
ENDBRANCH   4   6
ENDBRANCH   1   2
BRANCH   1  17
ATOM     17  C   UNL     1       5.297   5.278  18.557  0.00  0.00    +0.000 C 
BRANCH  17  23
ATOM     18  C   UNL     1       2.299   6.664  19.977  0.00  0.00    +0.000 A 
ATOM     19  C   UNL     1       1.693   5.547  20.736  0.00  0.00    +0.000 A 
ATOM     20  C   UNL     1       2.276   4.357  20.630  0.00  0.00    +0.000 A 
ATOM     21  C   UNL     1       3.495   4.178  19.816  0.00  0.00    +0.000 A 
ATOM     22  O   UNL     1       3.986   3.056  19.718  0.00  0.00    +0.000 OA
ATOM     23  N   UNL     1       4.007   5.327  19.233  0.00  0.00    +0.000 N 
ATOM     24  N   UNL     1       3.383   6.554  19.271  0.00  0.00    +0.000 NA
BRANCH  18  29
ATOM     25  C   UNL     1      -0.476  11.753  20.316  0.00  0.00    +0.000 C 
ATOM     26  C   UNL     1       0.249  10.444  20.209  0.00  0.00    +0.000 A 
ATOM     27  C   UNL     1       0.891  10.076  19.024  0.00  0.00    +0.000 A 
ATOM     28  C   UNL     1       1.550   8.847  18.926  0.00  0.00    +0.000 A 
ATOM     29  C   UNL     1       1.586   7.977  20.023  0.00  0.00    +0.000 A 
ATOM     30  C   UNL     1       0.931   8.340  21.206  0.00  0.00    +0.000 A 
ATOM     31  C   UNL     1       0.271   9.567  21.300  0.00  0.00    +0.000 A 
ENDBRANCH  18  29
ENDBRANCH  17  23
ENDBRANCH   1  17
TORSDOF 8
ENDMDL
MODEL 6
REMARK VINA RESULT:      -7.5      1.003      1.055
REMARK  Name = 
REMARK  11 active torsions:
REMARK  status: ('A' for Active; 'I' for Inactive)
REMARK    1  A    between atoms: C_1  and  C_2
REMARK    2  A    between atoms: C_5  and  C_6
REMARK    3  A    between atoms: N_11  and  C_12
REMARK    4  A    between atoms: C_12  and  C_13
REMARK    5  A    between atoms: C_13  and  C_14
REMARK    6  A    between atoms: N_16  and  C_17
REMARK    7  A    between atoms: C_17  and  C_18
REMARK    8  A    between atoms: C_18  and  C_19
REMARK    9  A    between atoms: C_19  and  N_20
REMARK   10  A    between atoms: C_22  and  C_23
REMARK   11  A    between atoms: C_25  and  C_26
REMARK                            x       y       z     vdW  Elec       q    Type
REMARK                         _______ _______ _______ _____ _____    ______ ____
ROOT
ATOM      1  C   UNL     1       0.881   5.688  20.020  0.00  0.00    +0.000 C 
ENDROOT
BRANCH   1   2
ATOM      2  C   UNL     1       1.340   4.245  20.041  0.00  0.00    +0.000 C 
ATOM      3  O   UNL     1       0.629   3.303  19.707  0.00  0.00    +0.000 OA
ATOM      4  N   UNL     1       2.639   4.086  20.476  0.00  0.00    +0.000 N 
ATOM      5  H   UNL     1       3.200   4.910  20.651  0.00  0.00    +0.000 HD
BRANCH   4   6
ATOM      6  C   UNL     1       3.279   2.783  20.515  0.00  0.00    +0.000 C 
BRANCH   6   7
ATOM      7  C   UNL     1       3.885   2.383  19.171  0.00  0.00    +0.000 C 
BRANCH   7   8
ATOM      8  C   UNL     1       5.064   3.288  18.791  0.00  0.00    +0.000 C 
BRANCH   8   9
ATOM      9  N   UNL     1       4.672   4.503  18.053  0.00  0.00    +0.000 NA
ATOM     10  C   UNL     1       5.497   5.679  18.382  0.00  0.00    +0.000 C 
ATOM     11  C   UNL     1       6.956   5.545  17.913  0.00  0.00    +0.000 C 
ATOM     12  C   UNL     1       7.772   6.770  18.312  0.00  0.00    +0.000 C 
ATOM     13  C   UNL     1       6.989   5.318  16.397  0.00  0.00    +0.000 C 
ATOM     14  C   UNL     1       6.109   4.122  16.005  0.00  0.00    +0.000 C 
ATOM     15  C   UNL     1       6.058   3.959  14.488  0.00  0.00    +0.000 C 
ATOM     16  C   UNL     1       4.692   4.275  16.594  0.00  0.00    +0.000 C 
ENDBRANCH   8   9
ENDBRANCH   7   8
ENDBRANCH   6   7
ENDBRANCH   4   6
ENDBRANCH   1   2
BRANCH   1  17
ATOM     17  C   UNL     1       2.074   6.614  20.221  0.00  0.00    +0.000 C 
BRANCH  17  23
ATOM     18  C   UNL     1       0.841   9.991  20.177  0.00  0.00    +0.000 A 
ATOM     19  C   UNL     1       1.099  10.465  18.798  0.00  0.00    +0.000 A 
ATOM     20  C   UNL     1       1.779   9.653  17.996  0.00  0.00    +0.000 A 
ATOM     21  C   UNL     1       2.221   8.322  18.460  0.00  0.00    +0.000 A 
ATOM     22  O   UNL     1       2.874   7.613  17.698  0.00  0.00    +0.000 OA
ATOM     23  N   UNL     1       1.833   7.969  19.743  0.00  0.00    +0.000 N 
ATOM     24  N   UNL     1       1.190   8.820  20.615  0.00  0.00    +0.000 NA
BRANCH  18  29
ATOM     25  C   UNL     1      -1.787  13.817  23.665  0.00  0.00    +0.000 C 
ATOM     26  C   UNL     1      -1.118  12.812  22.774  0.00  0.00    +0.000 A 
ATOM     27  C   UNL     1      -1.213  11.443  23.040  0.00  0.00    +0.000 A 
ATOM     28  C   UNL     1      -0.573  10.515  22.216  0.00  0.00    +0.000 A 
ATOM     29  C   UNL     1       0.160  10.946  21.103  0.00  0.00    +0.000 A 
ATOM     30  C   UNL     1       0.267  12.318  20.844  0.00  0.00    +0.000 A 
ATOM     31  C   UNL     1      -0.372  13.244  21.671  0.00  0.00    +0.000 A 
ENDBRANCH  18  29
ENDBRANCH  17  23
ENDBRANCH   1  17
TORSDOF 8
ENDMDL
MODEL 7
REMARK VINA RESULT:      -7.4      2.896      4.178
REMARK  Name = 
REMARK  11 active torsions:
REMARK  status: ('A' for Active; 'I' for Inactive)
REMARK    1  A    between atoms: C_1  and  C_2
REMARK    2  A    between atoms: C_5  and  C_6
REMARK    3  A    between atoms: N_11  and  C_12
REMARK    4  A    between atoms: C_12  and  C_13
REMARK    5  A    between atoms: C_13  and  C_14
REMARK    6  A    between atoms: N_16  and  C_17
REMARK    7  A    between atoms: C_17  and  C_18
REMARK    8  A    between atoms: C_18  and  C_19
REMARK    9  A    between atoms: C_19  and  N_20
REMARK   10  A    between atoms: C_22  and  C_23
REMARK   11  A    between atoms: C_25  and  C_26
REMARK                            x       y       z     vdW  Elec       q    Type
REMARK                         _______ _______ _______ _____ _____    ______ ____
ROOT
ATOM      1  C   UNL     1       0.467   7.788  21.114  0.00  0.00    +0.000 C 
ENDROOT
BRANCH   1   2
ATOM      2  C   UNL     1       1.665   7.056  20.549  0.00  0.00    +0.000 C 
ATOM      3  O   UNL     1       2.529   7.596  19.865  0.00  0.00    +0.000 OA
ATOM      4  N   UNL     1       1.696   5.715  20.873  0.00  0.00    +0.000 N 
ATOM      5  H   UNL     1       1.003   5.352  21.515  0.00  0.00    +0.000 HD
BRANCH   4   6
ATOM      6  C   UNL     1       2.794   4.855  20.470  0.00  0.00    +0.000 C 
BRANCH   6   7
ATOM      7  C   UNL     1       2.613   4.286  19.065  0.00  0.00    +0.000 C 
BRANCH   7   8
ATOM      8  C   UNL     1       3.958   4.106  18.349  0.00  0.00    +0.000 C 
BRANCH   8   9
ATOM      9  N   UNL     1       4.438   5.320  17.664  0.00  0.00    +0.000 NA
ATOM     10  C   UNL     1       5.594   5.948  18.328  0.00  0.00    +0.000 C 
ATOM     11  C   UNL     1       6.868   5.088  18.265  0.00  0.00    +0.000 C 
ATOM     12  C   UNL     1       8.021   5.766  18.998  0.00  0.00    +0.000 C 
ATOM     13  C   UNL     1       7.224   4.804  16.801  0.00  0.00    +0.000 C 
ATOM     14  C   UNL     1       6.031   4.183  16.060  0.00  0.00    +0.000 C 
ATOM     15  C   UNL     1       6.349   3.997  14.578  0.00  0.00    +0.000 C 
ATOM     16  C   UNL     1       4.766   5.044  16.251  0.00  0.00    +0.000 C 
ENDBRANCH   8   9
ENDBRANCH   7   8
ENDBRANCH   6   7
ENDBRANCH   4   6
ENDBRANCH   1   2
BRANCH   1  17
ATOM     17  C   UNL     1       0.841   9.233  21.420  0.00  0.00    +0.000 C 
BRANCH  17  23
ATOM     18  C   UNL     1      -1.521  10.879  19.265  0.00  0.00    +0.000 A 
ATOM     19  C   UNL     1      -1.888  12.117  19.988  0.00  0.00    +0.000 A 
ATOM     20  C   UNL     1      -1.401  12.268  21.215  0.00  0.00    +0.000 A 
ATOM     21  C   UNL     1      -0.504  11.254  21.807  0.00  0.00    +0.000 A 
ATOM     22  O   UNL     1      -0.099  11.415  22.956  0.00  0.00    +0.000 OA
ATOM     23  N   UNL     1      -0.170  10.189  20.985  0.00  0.00    +0.000 N 
ATOM     24  N   UNL     1      -0.717   9.976  19.739  0.00  0.00    +0.000 NA
BRANCH  18  29
ATOM     25  C   UNL     1      -4.037  10.202  14.076  0.00  0.00    +0.000 C 
ATOM     26  C   UNL     1      -3.370  10.364  15.410  0.00  0.00    +0.000 A 
ATOM     27  C   UNL     1      -2.242   9.610  15.743  0.00  0.00    +0.000 A 
ATOM     28  C   UNL     1      -1.637   9.754  16.995  0.00  0.00    +0.000 A 
ATOM     29  C   UNL     1      -2.147  10.669  17.924  0.00  0.00    +0.000 A 
ATOM     30  C   UNL     1      -3.286  11.415  17.595  0.00  0.00    +0.000 A 
ATOM     31  C   UNL     1      -3.891  11.267  16.345  0.00  0.00    +0.000 A 
ENDBRANCH  18  29
ENDBRANCH  17  23
ENDBRANCH   1  17
TORSDOF 8
ENDMDL
MODEL 8
REMARK VINA RESULT:      -7.4      5.796      9.267
REMARK  Name = 
REMARK  11 active torsions:
REMARK  status: ('A' for Active; 'I' for Inactive)
REMARK    1  A    between atoms: C_1  and  C_2
REMARK    2  A    between atoms: C_5  and  C_6
REMARK    3  A    between atoms: N_11  and  C_12
REMARK    4  A    between atoms: C_12  and  C_13
REMARK    5  A    between atoms: C_13  and  C_14
REMARK    6  A    between atoms: N_16  and  C_17
REMARK    7  A    between atoms: C_17  and  C_18
REMARK    8  A    between atoms: C_18  and  C_19
REMARK    9  A    between atoms: C_19  and  N_20
REMARK   10  A    between atoms: C_22  and  C_23
REMARK   11  A    between atoms: C_25  and  C_26
REMARK                            x       y       z     vdW  Elec       q    Type
REMARK                         _______ _______ _______ _____ _____    ______ ____
ROOT
ATOM      1  C   UNL     1       7.940   6.509  18.852  0.00  0.00    +0.000 C 
ENDROOT
BRANCH   1   2
ATOM      2  C   UNL     1       8.089   7.851  18.167  0.00  0.00    +0.000 C 
ATOM      3  O   UNL     1       7.677   8.083  17.035  0.00  0.00    +0.000 OA
ATOM      4  N   UNL     1       8.737   8.794  18.937  0.00  0.00    +0.000 N 
ATOM      5  H   UNL     1       8.970   8.566  19.894  0.00  0.00    +0.000 HD
BRANCH   4   6
ATOM      6  C   UNL     1       8.928  10.158  18.476  0.00  0.00    +0.000 C 
BRANCH   6   7
ATOM      7  C   UNL     1      10.078  10.866  19.189  0.00  0.00    +0.000 C 
BRANCH   7   8
ATOM      8  C   UNL     1      10.392  12.224  18.546  0.00  0.00    +0.000 C 
BRANCH   8   9
ATOM      9  N   UNL     1       9.316  13.220  18.698  0.00  0.00    +0.000 NA
ATOM     10  C   UNL     1       9.174  13.724  20.076  0.00  0.00    +0.000 C 
ATOM     11  C   UNL     1      10.378  14.562  20.540  0.00  0.00    +0.000 C 
ATOM     12  C   UNL     1      10.196  15.024  21.982  0.00  0.00    +0.000 C 
ATOM     13  C   UNL     1      10.574  15.749  19.590  0.00  0.00    +0.000 C 
ATOM     14  C   UNL     1      10.687  15.271  18.135  0.00  0.00    +0.000 C 
ATOM     15  C   UNL     1      10.778  16.459  17.179  0.00  0.00    +0.000 C 
ATOM     16  C   UNL     1       9.502  14.355  17.771  0.00  0.00    +0.000 C 
ENDBRANCH   8   9
ENDBRANCH   7   8
ENDBRANCH   6   7
ENDBRANCH   4   6
ENDBRANCH   1   2
BRANCH   1  17
ATOM     17  C   UNL     1       8.011   5.391  17.820  0.00  0.00    +0.000 C 
BRANCH  17  23
ATOM     18  C   UNL     1       4.689   4.027  18.008  0.00  0.00    +0.000 A 
ATOM     19  C   UNL     1       4.296   3.805  16.598  0.00  0.00    +0.000 A 
ATOM     20  C   UNL     1       5.134   4.235  15.661  0.00  0.00    +0.000 A 
ATOM     21  C   UNL     1       6.416   4.873  16.023  0.00  0.00    +0.000 A 
ATOM     22  O   UNL     1       7.150   5.285  15.127  0.00  0.00    +0.000 OA
ATOM     23  N   UNL     1       6.699   4.936  17.378  0.00  0.00    +0.000 N 
ATOM     24  N   UNL     1       5.817   4.561  18.368  0.00  0.00    +0.000 NA
BRANCH  18  29
ATOM     25  C   UNL     1       0.970   2.425  22.168  0.00  0.00    +0.000 C 
ATOM     26  C   UNL     1       1.916   2.854  21.086  0.00  0.00    +0.000 A 
ATOM     27  C   UNL     1       1.503   3.730  20.078  0.00  0.00    +0.000 A 
ATOM     28  C   UNL     1       2.386   4.110  19.064  0.00  0.00    +0.000 A 
ATOM     29  C   UNL     1       3.701   3.629  19.055  0.00  0.00    +0.000 A 
ATOM     30  C   UNL     1       4.111   2.741  20.057  0.00  0.00    +0.000 A 
ATOM     31  C   UNL     1       3.226   2.360  21.068  0.00  0.00    +0.000 A 
ENDBRANCH  18  29
ENDBRANCH  17  23
ENDBRANCH   1  17
TORSDOF 8
ENDMDL
MODEL 9
REMARK VINA RESULT:      -7.3      3.138      5.347
REMARK  Name = 
REMARK  11 active torsions:
REMARK  status: ('A' for Active; 'I' for Inactive)
REMARK    1  A    between atoms: C_1  and  C_2
REMARK    2  A    between atoms: C_5  and  C_6
REMARK    3  A    between atoms: N_11  and  C_12
REMARK    4  A    between atoms: C_12  and  C_13
REMARK    5  A    between atoms: C_13  and  C_14
REMARK    6  A    between atoms: N_16  and  C_17
REMARK    7  A    between atoms: C_17  and  C_18
REMARK    8  A    between atoms: C_18  and  C_19
REMARK    9  A    between atoms: C_19  and  N_20
REMARK   10  A    between atoms: C_22  and  C_23
REMARK   11  A    between atoms: C_25  and  C_26
REMARK                            x       y       z     vdW  Elec       q    Type
REMARK                         _______ _______ _______ _____ _____    ______ ____
ROOT
ATOM      1  C   UNL     1      -0.789   9.889  22.994  0.00  0.00    +0.000 C 
ENDROOT
BRANCH   1   2
ATOM      2  C   UNL     1       0.508   9.573  22.279  0.00  0.00    +0.000 C 
ATOM      3  O   UNL     1       1.615   9.854  22.727  0.00  0.00    +0.000 OA
ATOM      4  N   UNL     1       0.329   8.936  21.069  0.00  0.00    +0.000 N 
ATOM      5  H   UNL     1      -0.604   8.652  20.800  0.00  0.00    +0.000 HD
BRANCH   4   6
ATOM      6  C   UNL     1       1.453   8.501  20.259  0.00  0.00    +0.000 C 
BRANCH   6   7
ATOM      7  C   UNL     1       1.807   7.032  20.482  0.00  0.00    +0.000 C 
BRANCH   7   8
ATOM      8  C   UNL     1       2.783   6.517  19.415  0.00  0.00    +0.000 C 
BRANCH   8   9
ATOM      9  N   UNL     1       3.405   5.223  19.748  0.00  0.00    +0.000 NA
ATOM     10  C   UNL     1       2.430   4.130  19.915  0.00  0.00    +0.000 C 
ATOM     11  C   UNL     1       1.717   3.751  18.606  0.00  0.00    +0.000 C 
ATOM     12  C   UNL     1       0.695   2.644  18.843  0.00  0.00    +0.000 C 
ATOM     13  C   UNL     1       2.756   3.340  17.556  0.00  0.00    +0.000 C 
ATOM     14  C   UNL     1       3.816   4.437  17.378  0.00  0.00    +0.000 C 
ATOM     15  C   UNL     1       4.907   3.986  16.410  0.00  0.00    +0.000 C 
ATOM     16  C   UNL     1       4.415   4.839  18.741  0.00  0.00    +0.000 C 
ENDBRANCH   8   9
ENDBRANCH   7   8
ENDBRANCH   6   7
ENDBRANCH   4   6
ENDBRANCH   1   2
BRANCH   1  17
ATOM     17  C   UNL     1      -1.053  11.389  22.947  0.00  0.00    +0.000 C 
BRANCH  17  23
ATOM     18  C   UNL     1      -1.135  11.829  19.380  0.00  0.00    +0.000 A 
ATOM     19  C   UNL     1      -0.107  12.858  19.106  0.00  0.00    +0.000 A 
ATOM     20  C   UNL     1       0.476  13.426  20.157  0.00  0.00    +0.000 A 
ATOM     21  C   UNL     1       0.130  13.014  21.532  0.00  0.00    +0.000 A 
ATOM     22  O   UNL     1       0.669  13.584  22.478  0.00  0.00    +0.000 OA
ATOM     23  N   UNL     1      -0.782  11.976  21.641  0.00  0.00    +0.000 N 
ATOM     24  N   UNL     1      -1.450  11.421  20.571  0.00  0.00    +0.000 NA
BRANCH  18  29
ATOM     25  C   UNL     1      -4.026   9.761  14.789  0.00  0.00    +0.000 C 
ATOM     26  C   UNL     1      -3.262  10.283  15.969  0.00  0.00    +0.000 A 
ATOM     27  C   UNL     1      -2.028   9.730  16.326  0.00  0.00    +0.000 A 
ATOM     28  C   UNL     1      -1.331  10.210  17.437  0.00  0.00    +0.000 A 
ATOM     29  C   UNL     1      -1.855  11.263  18.198  0.00  0.00    +0.000 A 
ATOM     30  C   UNL     1      -3.096  11.808  17.849  0.00  0.00    +0.000 A 
ATOM     31  C   UNL     1      -3.793  11.324  16.740  0.00  0.00    +0.000 A 
ENDBRANCH  18  29
ENDBRANCH  17  23
ENDBRANCH   1  17
TORSDOF 8
ENDMDL
