MODEL 1
REMARK VINA RESULT:      -8.3      0.000      0.000
REMARK  Name = 
REMARK  6 active torsions:
REMARK  status: ('A' for Active; 'I' for Inactive)
REMARK    1  A    between atoms: C_1  and  C_2
REMARK    2  A    between atoms: C_2  and  C_4
REMARK    3  A    between atoms: C_7  and  C_8
REMARK    4  A    between atoms: C_8  and  C_9
REMARK    5  A    between atoms: N_10  and  N_11
REMARK    6  A    between atoms: C_18  and  C_20
REMARK                            x       y       z     vdW  Elec       q    Type
REMARK                         _______ _______ _______ _____ _____    ______ ____
ROOT
ATOM      1  N   UNL     1       4.445   3.217  18.244  0.00  0.00    +0.000 NA
ATOM      2  C   UNL     1       3.229   3.451  18.623  0.00  0.00    +0.000 C 
ATOM      3  S   UNL     1       2.021   2.258  18.162  0.00  0.00    +0.000 S 
ATOM      4  C   UNL     1       0.852   2.864  19.380  0.00  0.00    +0.000 C 
ATOM      5  C   UNL     1       1.400   4.173  19.877  0.00  0.00    +0.000 C 
ATOM      6  O   UNL     1       0.780   4.845  20.697  0.00  0.00    +0.000 OA
ATOM      7  N   UNL     1       2.645   4.459  19.360  0.00  0.00    +0.000 N 
ATOM      8  C   UNL     1       3.243   5.672  19.703  0.00  0.00    +0.000 C 
ATOM      9  O   UNL     1       4.217   5.770  20.447  0.00  0.00    +0.000 OA
ENDROOT
BRANCH   8  10
ATOM     10  C   UNL     1       2.497   6.931  19.347  0.00  0.00    +0.000 A 
ATOM     11  C   UNL     1       2.510   7.328  18.000  0.00  0.00    +0.000 A 
ATOM     12  C   UNL     1       1.884   8.509  17.596  0.00  0.00    +0.000 A 
ATOM     13  C   UNL     1       1.234   9.306  18.533  0.00  0.00    +0.000 A 
ATOM     14  C   UNL     1       1.199   8.919  19.872  0.00  0.00    +0.000 A 
ATOM     15  C   UNL     1       1.814   7.728  20.279  0.00  0.00    +0.000 A 
ENDBRANCH   8  10
BRANCH   1  18
ATOM     16  C   UNL     1       6.256   4.608  18.004  0.00  0.00    +0.000 C 
ATOM     17  C   UNL     1       7.322   5.429  18.707  0.00  0.00    +0.000 C 
ATOM     18  N   UNL     1       5.392   4.041  18.798  0.00  0.00    +0.000 NA
BRANCH  16  22
ATOM     19  C   UNL     1       6.432   4.209  13.704  0.00  0.00    +0.000 A 
ATOM     20  C   UNL     1       7.530   4.710  14.406  0.00  0.00    +0.000 A 
ATOM     21  C   UNL     1       7.457   4.897  15.792  0.00  0.00    +0.000 A 
ATOM     22  C   UNL     1       6.302   4.557  16.504  0.00  0.00    +0.000 A 
ATOM     23  C   UNL     1       5.178   4.124  15.785  0.00  0.00    +0.000 A 
ATOM     24  C   UNL     1       5.241   3.954  14.395  0.00  0.00    +0.000 A 
BRANCH  19  26
ATOM     25  C   UNL     1       5.489   2.950  11.654  0.00  0.00    +0.000 C 
ATOM     26  C   UNL     1       6.499   3.903  12.243  0.00  0.00    +0.000 C 
ATOM     27  O   UNL     1       7.358   4.433  11.544  0.00  0.00    +0.000 OA
ENDBRANCH  19  26
ENDBRANCH  16  22
ENDBRANCH   1  18
TORSDOF 4
ENDMDL
MODEL 2
REMARK VINA RESULT:      -8.1      2.956      8.507
REMARK  Name = 
REMARK  6 active torsions:
REMARK  status: ('A' for Active; 'I' for Inactive)
REMARK    1  A    between atoms: C_1  and  C_2
REMARK    2  A    between atoms: C_2  and  C_4
REMARK    3  A    between atoms: C_7  and  C_8
REMARK    4  A    between atoms: C_8  and  C_9
REMARK    5  A    between atoms: N_10  and  N_11
REMARK    6  A    between atoms: C_18  and  C_20
REMARK                            x       y       z     vdW  Elec       q    Type
REMARK                         _______ _______ _______ _____ _____    ______ ____
ROOT
ATOM      1  N   UNL     1       1.836   6.961  20.013  0.00  0.00    +0.000 NA
ATOM      2  C   UNL     1       2.217   5.739  19.818  0.00  0.00    +0.000 C 
ATOM      3  S   UNL     1       1.560   4.529  20.914  0.00  0.00    +0.000 S 
ATOM      4  C   UNL     1       2.000   3.186  19.810  0.00  0.00    +0.000 C 
ATOM      5  C   UNL     1       2.909   3.776  18.768  0.00  0.00    +0.000 C 
ATOM      6  O   UNL     1       3.408   3.070  17.894  0.00  0.00    +0.000 OA
ATOM      7  N   UNL     1       3.042   5.142  18.889  0.00  0.00    +0.000 N 
ATOM      8  C   UNL     1       3.900   5.806  18.012  0.00  0.00    +0.000 C 
ATOM      9  O   UNL     1       3.518   6.549  17.111  0.00  0.00    +0.000 OA
ENDROOT
BRANCH   8  10
ATOM     10  C   UNL     1       5.345   5.384  18.015  0.00  0.00    +0.000 A 
ATOM     11  C   UNL     1       6.075   5.593  19.196  0.00  0.00    +0.000 A 
ATOM     12  C   UNL     1       7.433   5.274  19.265  0.00  0.00    +0.000 A 
ATOM     13  C   UNL     1       8.078   4.741  18.154  0.00  0.00    +0.000 A 
ATOM     14  C   UNL     1       7.365   4.513  16.977  0.00  0.00    +0.000 A 
ATOM     15  C   UNL     1       5.999   4.819  16.908  0.00  0.00    +0.000 A 
ENDBRANCH   8  10
BRANCH   1  18
ATOM     16  C   UNL     1       1.644   9.027  19.029  0.00  0.00    +0.000 C 
ATOM     17  C   UNL     1       2.016   9.904  17.847  0.00  0.00    +0.000 C 
ATOM     18  N   UNL     1       2.186   7.841  19.020  0.00  0.00    +0.000 NA
BRANCH  16  22
ATOM     19  C   UNL     1      -0.857  10.940  21.989  0.00  0.00    +0.000 A 
ATOM     20  C   UNL     1       0.158  10.067  22.388  0.00  0.00    +0.000 A 
ATOM     21  C   UNL     1       0.932   9.399  21.432  0.00  0.00    +0.000 A 
ATOM     22  C   UNL     1       0.730   9.615  20.064  0.00  0.00    +0.000 A 
ATOM     23  C   UNL     1      -0.337  10.436  19.668  0.00  0.00    +0.000 A 
ATOM     24  C   UNL     1      -1.127  11.091  20.623  0.00  0.00    +0.000 A 
BRANCH  19  26
ATOM     25  C   UNL     1      -1.239  13.178  23.222  0.00  0.00    +0.000 C 
ATOM     26  C   UNL     1      -1.640  11.746  22.973  0.00  0.00    +0.000 C 
ATOM     27  O   UNL     1      -2.599  11.243  23.554  0.00  0.00    +0.000 OA
ENDBRANCH  19  26
ENDBRANCH  16  22
ENDBRANCH   1  18
TORSDOF 4
ENDMDL
MODEL 3
REMARK VINA RESULT:      -7.5      5.125      7.678
REMARK  Name = 
REMARK  6 active torsions:
REMARK  status: ('A' for Active; 'I' for Inactive)
REMARK    1  A    between atoms: C_1  and  C_2
REMARK    2  A    between atoms: C_2  and  C_4
REMARK    3  A    between atoms: C_7  and  C_8
REMARK    4  A    between atoms: C_8  and  C_9
REMARK    5  A    between atoms: N_10  and  N_11
REMARK    6  A    between atoms: C_18  and  C_20
REMARK                            x       y       z     vdW  Elec       q    Type
REMARK                         _______ _______ _______ _____ _____    ______ ____
ROOT
ATOM      1  N   UNL     1      -0.112   9.682  18.936  0.00  0.00    +0.000 NA
ATOM      2  C   UNL     1      -1.144  10.397  18.618  0.00  0.00    +0.000 C 
ATOM      3  S   UNL     1      -1.937   9.997  17.100  0.00  0.00    +0.000 S 
ATOM      4  C   UNL     1      -3.426  10.884  17.561  0.00  0.00    +0.000 C 
ATOM      5  C   UNL     1      -3.078  11.689  18.782  0.00  0.00    +0.000 C 
ATOM      6  O   UNL     1      -3.903  12.438  19.300  0.00  0.00    +0.000 OA
ATOM      7  N   UNL     1      -1.804  11.434  19.242  0.00  0.00    +0.000 N 
ATOM      8  C   UNL     1      -1.339  12.155  20.343  0.00  0.00    +0.000 C 
ATOM      9  O   UNL     1      -1.168  11.669  21.458  0.00  0.00    +0.000 OA
ENDROOT
BRANCH   8  10
ATOM     10  C   UNL     1      -1.293  13.654  20.211  0.00  0.00    +0.000 A 
ATOM     11  C   UNL     1      -0.497  14.187  19.184  0.00  0.00    +0.000 A 
ATOM     12  C   UNL     1      -0.362  15.568  19.025  0.00  0.00    +0.000 A 
ATOM     13  C   UNL     1      -1.023  16.434  19.890  0.00  0.00    +0.000 A 
ATOM     14  C   UNL     1      -1.829  15.922  20.906  0.00  0.00    +0.000 A 
ATOM     15  C   UNL     1      -1.978  14.537  21.060  0.00  0.00    +0.000 A 
ENDBRANCH   8  10
BRANCH   1  18
ATOM     16  C   UNL     1       1.121   8.953  20.730  0.00  0.00    +0.000 C 
ATOM     17  C   UNL     1       1.512   9.193  22.177  0.00  0.00    +0.000 C 
ATOM     18  N   UNL     1       0.350   9.868  20.215  0.00  0.00    +0.000 NA
BRANCH  16  22
ATOM     19  C   UNL     1       2.482   5.406  18.670  0.00  0.00    +0.000 A 
ATOM     20  C   UNL     1       1.974   5.311  19.968  0.00  0.00    +0.000 A 
ATOM     21  C   UNL     1       1.588   6.464  20.661  0.00  0.00    +0.000 A 
ATOM     22  C   UNL     1       1.670   7.726  20.062  0.00  0.00    +0.000 A 
ATOM     23  C   UNL     1       2.248   7.824  18.788  0.00  0.00    +0.000 A 
ATOM     24  C   UNL     1       2.655   6.673  18.098  0.00  0.00    +0.000 A 
BRANCH  19  26
ATOM     25  C   UNL     1       4.233   3.682  17.870  0.00  0.00    +0.000 C 
ATOM     26  C   UNL     1       2.815   4.196  17.859  0.00  0.00    +0.000 C 
ATOM     27  O   UNL     1       1.938   3.632  17.209  0.00  0.00    +0.000 OA
ENDBRANCH  19  26
ENDBRANCH  16  22
ENDBRANCH   1  18
TORSDOF 4
ENDMDL
MODEL 4
REMARK VINA RESULT:      -7.5      3.232      8.565
REMARK  Name = 
REMARK  6 active torsions:
REMARK  status: ('A' for Active; 'I' for Inactive)
REMARK    1  A    between atoms: C_1  and  C_2
REMARK    2  A    between atoms: C_2  and  C_4
REMARK    3  A    between atoms: C_7  and  C_8
REMARK    4  A    between atoms: C_8  and  C_9
REMARK    5  A    between atoms: N_10  and  N_11
REMARK    6  A    between atoms: C_18  and  C_20
REMARK                            x       y       z     vdW  Elec       q    Type
REMARK                         _______ _______ _______ _____ _____    ______ ____
ROOT
ATOM      1  N   UNL     1       1.946   7.519  19.939  0.00  0.00    +0.000 NA
ATOM      2  C   UNL     1       2.215   6.274  19.702  0.00  0.00    +0.000 C 
ATOM      3  S   UNL     1       1.568   5.102  20.844  0.00  0.00    +0.000 S 
ATOM      4  C   UNL     1       1.806   3.745  19.697  0.00  0.00    +0.000 C 
ATOM      5  C   UNL     1       2.661   4.279  18.582  0.00  0.00    +0.000 C 
ATOM      6  O   UNL     1       3.026   3.549  17.662  0.00  0.00    +0.000 OA
ATOM      7  N   UNL     1       2.907   5.630  18.700  0.00  0.00    +0.000 N 
ATOM      8  C   UNL     1       3.732   6.239  17.754  0.00  0.00    +0.000 C 
ATOM      9  O   UNL     1       3.330   7.021  16.896  0.00  0.00    +0.000 OA
ENDROOT
BRANCH   8  10
ATOM     10  C   UNL     1       5.136   5.710  17.625  0.00  0.00    +0.000 A 
ATOM     11  C   UNL     1       5.578   5.360  16.339  0.00  0.00    +0.000 A 
ATOM     12  C   UNL     1       6.849   4.816  16.142  0.00  0.00    +0.000 A 
ATOM     13  C   UNL     1       7.695   4.616  17.228  0.00  0.00    +0.000 A 
ATOM     14  C   UNL     1       7.278   4.971  18.510  0.00  0.00    +0.000 A 
ATOM     15  C   UNL     1       6.008   5.530  18.711  0.00  0.00    +0.000 A 
ENDBRANCH   8  10
BRANCH   1  18
ATOM     16  C   UNL     1       1.729   9.568  18.926  0.00  0.00    +0.000 C 
ATOM     17  C   UNL     1       2.074  10.426  17.722  0.00  0.00    +0.000 C 
ATOM     18  N   UNL     1       2.273   8.384  18.925  0.00  0.00    +0.000 NA
BRANCH  16  22
ATOM     19  C   UNL     1      -0.670  11.492  21.962  0.00  0.00    +0.000 A 
ATOM     20  C   UNL     1       0.104  10.374  22.285  0.00  0.00    +0.000 A 
ATOM     21  C   UNL     1       0.836   9.712  21.292  0.00  0.00    +0.000 A 
ATOM     22  C   UNL     1       0.835  10.171  19.970  0.00  0.00    +0.000 A 
ATOM     23  C   UNL     1      -0.000  11.247  19.638  0.00  0.00    +0.000 A 
ATOM     24  C   UNL     1      -0.751  11.901  20.626  0.00  0.00    +0.000 A 
BRANCH  19  26
ATOM     25  C   UNL     1      -2.804  11.904  23.359  0.00  0.00    +0.000 C 
ATOM     26  C   UNL     1      -1.389  12.285  23.005  0.00  0.00    +0.000 C 
ATOM     27  O   UNL     1      -0.821  13.220  23.564  0.00  0.00    +0.000 OA
ENDBRANCH  19  26
ENDBRANCH  16  22
ENDBRANCH   1  18
TORSDOF 4
ENDMDL
MODEL 5
REMARK VINA RESULT:      -7.4      4.974      7.228
REMARK  Name = 
REMARK  6 active torsions:
REMARK  status: ('A' for Active; 'I' for Inactive)
REMARK    1  A    between atoms: C_1  and  C_2
REMARK    2  A    between atoms: C_2  and  C_4
REMARK    3  A    between atoms: C_7  and  C_8
REMARK    4  A    between atoms: C_8  and  C_9
REMARK    5  A    between atoms: N_10  and  N_11
REMARK    6  A    between atoms: C_18  and  C_20
REMARK                            x       y       z     vdW  Elec       q    Type
REMARK                         _______ _______ _______ _____ _____    ______ ____
ROOT
ATOM      1  N   UNL     1       0.952   8.808  20.837  0.00  0.00    +0.000 NA
ATOM      2  C   UNL     1       0.062   9.641  21.274  0.00  0.00    +0.000 C 
ATOM      3  S   UNL     1      -0.327   9.545  22.987  0.00  0.00    +0.000 S 
ATOM      4  C   UNL     1      -1.085  11.171  22.980  0.00  0.00    +0.000 C 
ATOM      5  C   UNL     1      -1.237  11.560  21.536  0.00  0.00    +0.000 C 
ATOM      6  O   UNL     1      -1.773  12.620  21.221  0.00  0.00    +0.000 OA
ATOM      7  N   UNL     1      -0.668  10.645  20.675  0.00  0.00    +0.000 N 
ATOM      8  C   UNL     1      -0.784  10.865  19.302  0.00  0.00    +0.000 C 
ATOM      9  O   UNL     1       0.153  11.192  18.579  0.00  0.00    +0.000 OA
ENDROOT
BRANCH   8  10
ATOM     10  C   UNL     1      -2.177  10.951  18.737  0.00  0.00    +0.000 A 
ATOM     11  C   UNL     1      -2.593   9.915  17.885  0.00  0.00    +0.000 A 
ATOM     12  C   UNL     1      -3.851   9.945  17.281  0.00  0.00    +0.000 A 
ATOM     13  C   UNL     1      -4.712  11.012  17.522  0.00  0.00    +0.000 A 
ATOM     14  C   UNL     1      -4.320  12.042  18.376  0.00  0.00    +0.000 A 
ATOM     15  C   UNL     1      -3.064  12.009  18.996  0.00  0.00    +0.000 A 
ENDBRANCH   8  10
BRANCH   1  18
ATOM     16  C   UNL     1       2.122   8.139  18.978  0.00  0.00    +0.000 C 
ATOM     17  C   UNL     1       2.640   8.523  17.604  0.00  0.00    +0.000 C 
ATOM     18  N   UNL     1       1.392   9.049  19.560  0.00  0.00    +0.000 NA
BRANCH  16  22
ATOM     19  C   UNL     1       3.054   4.118  20.258  0.00  0.00    +0.000 A 
ATOM     20  C   UNL     1       1.965   4.795  20.813  0.00  0.00    +0.000 A 
ATOM     21  C   UNL     1       1.695   6.118  20.446  0.00  0.00    +0.000 A 
ATOM     22  C   UNL     1       2.483   6.777  19.495  0.00  0.00    +0.000 A 
ATOM     23  C   UNL     1       3.617   6.119  18.996  0.00  0.00    +0.000 A 
ATOM     24  C   UNL     1       3.902   4.800  19.378  0.00  0.00    +0.000 A 
BRANCH  19  26
ATOM     25  C   UNL     1       3.808   1.789  19.430  0.00  0.00    +0.000 C 
ATOM     26  C   UNL     1       3.321   2.677  20.548  0.00  0.00    +0.000 C 
ATOM     27  O   UNL     1       3.154   2.238  21.683  0.00  0.00    +0.000 OA
ENDBRANCH  19  26
ENDBRANCH  16  22
ENDBRANCH   1  18
TORSDOF 4
ENDMDL
MODEL 6
REMARK VINA RESULT:      -7.4      5.062      7.356
REMARK  Name = 
REMARK  6 active torsions:
REMARK  status: ('A' for Active; 'I' for Inactive)
REMARK    1  A    between atoms: C_1  and  C_2
REMARK    2  A    between atoms: C_2  and  C_4
REMARK    3  A    between atoms: C_7  and  C_8
REMARK    4  A    between atoms: C_8  and  C_9
REMARK    5  A    between atoms: N_10  and  N_11
REMARK    6  A    between atoms: C_18  and  C_20
REMARK                            x       y       z     vdW  Elec       q    Type
REMARK                         _______ _______ _______ _____ _____    ______ ____
ROOT
ATOM      1  N   UNL     1       1.061   9.030  20.866  0.00  0.00    +0.000 NA
ATOM      2  C   UNL     1       0.110   9.805  21.281  0.00  0.00    +0.000 C 
ATOM      3  S   UNL     1      -0.323   9.675  22.981  0.00  0.00    +0.000 S 
ATOM      4  C   UNL     1      -1.174  11.253  22.960  0.00  0.00    +0.000 C 
ATOM      5  C   UNL     1      -1.306  11.643  21.514  0.00  0.00    +0.000 C 
ATOM      6  O   UNL     1      -1.894  12.672  21.190  0.00  0.00    +0.000 OA
ATOM      7  N   UNL     1      -0.659  10.770  20.666  0.00  0.00    +0.000 N 
ATOM      8  C   UNL     1      -0.748  10.992  19.291  0.00  0.00    +0.000 C 
ATOM      9  O   UNL     1       0.189  11.379  18.598  0.00  0.00    +0.000 OA
ENDROOT
BRANCH   8  10
ATOM     10  C   UNL     1      -2.127  11.000  18.685  0.00  0.00    +0.000 A 
ATOM     11  C   UNL     1      -2.450   9.955  17.805  0.00  0.00    +0.000 A 
ATOM     12  C   UNL     1      -3.690   9.917  17.163  0.00  0.00    +0.000 A 
ATOM     13  C   UNL     1      -4.623  10.923  17.395  0.00  0.00    +0.000 A 
ATOM     14  C   UNL     1      -4.323  11.961  18.277  0.00  0.00    +0.000 A 
ATOM     15  C   UNL     1      -3.086  11.995  18.934  0.00  0.00    +0.000 A 
ENDBRANCH   8  10
BRANCH   1  18
ATOM     16  C   UNL     1       2.033   8.327  18.908  0.00  0.00    +0.000 C 
ATOM     17  C   UNL     1       2.601   8.736  17.561  0.00  0.00    +0.000 C 
ATOM     18  N   UNL     1       1.522   9.305  19.604  0.00  0.00    +0.000 NA
BRANCH  16  22
ATOM     19  C   UNL     1       1.989   4.119  19.893  0.00  0.00    +0.000 A 
ATOM     20  C   UNL     1       1.879   5.077  20.904  0.00  0.00    +0.000 A 
ATOM     21  C   UNL     1       1.952   6.440  20.597  0.00  0.00    +0.000 A 
ATOM     22  C   UNL     1       2.103   6.873  19.275  0.00  0.00    +0.000 A 
ATOM     23  C   UNL     1       2.287   5.909  18.273  0.00  0.00    +0.000 A 
ATOM     24  C   UNL     1       2.234   4.542  18.580  0.00  0.00    +0.000 A 
BRANCH  19  26
ATOM     25  C   UNL     1       1.795   2.184  21.593  0.00  0.00    +0.000 C 
ATOM     26  C   UNL     1       1.819   2.660  20.162  0.00  0.00    +0.000 C 
ATOM     27  O   UNL     1       1.691   1.874  19.227  0.00  0.00    +0.000 OA
ENDBRANCH  19  26
ENDBRANCH  16  22
ENDBRANCH   1  18
TORSDOF 4
ENDMDL
MODEL 7
REMARK VINA RESULT:      -7.4      5.100      7.677
REMARK  Name = 
REMARK  6 active torsions:
REMARK  status: ('A' for Active; 'I' for Inactive)
REMARK    1  A    between atoms: C_1  and  C_2
REMARK    2  A    between atoms: C_2  and  C_4
REMARK    3  A    between atoms: C_7  and  C_8
REMARK    4  A    between atoms: C_8  and  C_9
REMARK    5  A    between atoms: N_10  and  N_11
REMARK    6  A    between atoms: C_18  and  C_20
REMARK                            x       y       z     vdW  Elec       q    Type
REMARK                         _______ _______ _______ _____ _____    ______ ____
ROOT
ATOM      1  N   UNL     1      -0.120   9.693  18.958  0.00  0.00    +0.000 NA
ATOM      2  C   UNL     1      -1.151  10.405  18.628  0.00  0.00    +0.000 C 
ATOM      3  S   UNL     1      -1.923  10.003  17.099  0.00  0.00    +0.000 S 
ATOM      4  C   UNL     1      -3.421  10.886  17.542  0.00  0.00    +0.000 C 
ATOM      5  C   UNL     1      -3.090  11.691  18.767  0.00  0.00    +0.000 C 
ATOM      6  O   UNL     1      -3.925  12.438  19.275  0.00  0.00    +0.000 OA
ATOM      7  N   UNL     1      -1.822  11.440  19.244  0.00  0.00    +0.000 N 
ATOM      8  C   UNL     1      -1.373  12.162  20.350  0.00  0.00    +0.000 C 
ATOM      9  O   UNL     1      -1.214  11.676  21.467  0.00  0.00    +0.000 OA
ENDROOT
BRANCH   8  10
ATOM     10  C   UNL     1      -1.330  13.662  20.218  0.00  0.00    +0.000 A 
ATOM     11  C   UNL     1      -0.514  14.197  19.208  0.00  0.00    +0.000 A 
ATOM     12  C   UNL     1      -0.381  15.578  19.052  0.00  0.00    +0.000 A 
ATOM     13  C   UNL     1      -1.063  16.442  19.903  0.00  0.00    +0.000 A 
ATOM     14  C   UNL     1      -1.888  15.927  20.902  0.00  0.00    +0.000 A 
ATOM     15  C   UNL     1      -2.036  14.542  21.053  0.00  0.00    +0.000 A 
ENDBRANCH   8  10
BRANCH   1  18
ATOM     16  C   UNL     1       1.098   8.971  20.766  0.00  0.00    +0.000 C 
ATOM     17  C   UNL     1       1.469   9.211  22.218  0.00  0.00    +0.000 C 
ATOM     18  N   UNL     1       0.324   9.881  20.243  0.00  0.00    +0.000 NA
BRANCH  16  22
ATOM     19  C   UNL     1       2.938   5.480  19.003  0.00  0.00    +0.000 A 
ATOM     20  C   UNL     1       2.967   6.704  18.329  0.00  0.00    +0.000 A 
ATOM     21  C   UNL     1       2.321   7.823  18.868  0.00  0.00    +0.000 A 
ATOM     22  C   UNL     1       1.665   7.750  20.101  0.00  0.00    +0.000 A 
ATOM     23  C   UNL     1       1.576   6.504  20.738  0.00  0.00    +0.000 A 
ATOM     24  C   UNL     1       2.205   5.376  20.191  0.00  0.00    +0.000 A 
BRANCH  19  26
ATOM     25  C   UNL     1       3.287   3.657  17.206  0.00  0.00    +0.000 C 
ATOM     26  C   UNL     1       3.694   4.288  18.514  0.00  0.00    +0.000 C 
ATOM     27  O   UNL     1       4.636   3.848  19.168  0.00  0.00    +0.000 OA
ENDBRANCH  19  26
ENDBRANCH  16  22
ENDBRANCH   1  18
TORSDOF 4
ENDMDL
MODEL 8
REMARK VINA RESULT:      -7.4      3.092      8.557
REMARK  Name = 
REMARK  6 active torsions:
REMARK  status: ('A' for Active; 'I' for Inactive)
REMARK    1  A    between atoms: C_1  and  C_2
REMARK    2  A    between atoms: C_2  and  C_4
REMARK    3  A    between atoms: C_7  and  C_8
REMARK    4  A    between atoms: C_8  and  C_9
REMARK    5  A    between atoms: N_10  and  N_11
REMARK    6  A    between atoms: C_18  and  C_20
REMARK                            x       y       z     vdW  Elec       q    Type
REMARK                         _______ _______ _______ _____ _____    ______ ____
ROOT
ATOM      1  N   UNL     1       1.931   7.364  20.046  0.00  0.00    +0.000 NA
ATOM      2  C   UNL     1       2.237   6.123  19.833  0.00  0.00    +0.000 C 
ATOM      3  S   UNL     1       1.676   4.962  21.029  0.00  0.00    +0.000 S 
ATOM      4  C   UNL     1       1.924   3.581  19.911  0.00  0.00    +0.000 C 
ATOM      5  C   UNL     1       2.719   4.115  18.751  0.00  0.00    +0.000 C 
ATOM      6  O   UNL     1       3.078   3.374  17.839  0.00  0.00    +0.000 OA
ATOM      7  N   UNL     1       2.917   5.477  18.824  0.00  0.00    +0.000 N 
ATOM      8  C   UNL     1       3.685   6.089  17.832  0.00  0.00    +0.000 C 
ATOM      9  O   UNL     1       3.223   6.831  16.969  0.00  0.00    +0.000 OA
ENDROOT
BRANCH   8  10
ATOM     10  C   UNL     1       5.102   5.608  17.667  0.00  0.00    +0.000 A 
ATOM     11  C   UNL     1       5.492   5.179  16.388  0.00  0.00    +0.000 A 
ATOM     12  C   UNL     1       6.774   4.672  16.162  0.00  0.00    +0.000 A 
ATOM     13  C   UNL     1       7.683   4.591  17.212  0.00  0.00    +0.000 A 
ATOM     14  C   UNL     1       7.317   5.027  18.485  0.00  0.00    +0.000 A 
ATOM     15  C   UNL     1       6.036   5.548  18.713  0.00  0.00    +0.000 A 
ENDBRANCH   8  10
BRANCH   1  18
ATOM     16  C   UNL     1       1.693   9.415  19.043  0.00  0.00    +0.000 C 
ATOM     17  C   UNL     1       1.949  10.255  17.804  0.00  0.00    +0.000 C 
ATOM     18  N   UNL     1       2.188   8.211  18.997  0.00  0.00    +0.000 NA
BRANCH  16  22
ATOM     19  C   UNL     1      -0.706  11.273  22.120  0.00  0.00    +0.000 A 
ATOM     20  C   UNL     1       0.209  12.035  21.390  0.00  0.00    +0.000 A 
ATOM     21  C   UNL     1       1.030  11.427  20.434  0.00  0.00    +0.000 A 
ATOM     22  C   UNL     1       0.930  10.057  20.166  0.00  0.00    +0.000 A 
ATOM     23  C   UNL     1       0.063   9.284  20.952  0.00  0.00    +0.000 A 
ATOM     24  C   UNL     1      -0.747   9.888  21.925  0.00  0.00    +0.000 A 
BRANCH  19  26
ATOM     25  C   UNL     1      -1.524  13.362  23.403  0.00  0.00    +0.000 C 
ATOM     26  C   UNL     1      -1.668  11.896  23.079  0.00  0.00    +0.000 C 
ATOM     27  O   UNL     1      -2.563  11.219  23.578  0.00  0.00    +0.000 OA
ENDBRANCH  19  26
ENDBRANCH  16  22
ENDBRANCH   1  18
TORSDOF 4
ENDMDL
MODEL 9
REMARK VINA RESULT:      -7.3      0.284      1.319
REMARK  Name = 
REMARK  6 active torsions:
REMARK  status: ('A' for Active; 'I' for Inactive)
REMARK    1  A    between atoms: C_1  and  C_2
REMARK    2  A    between atoms: C_2  and  C_4
REMARK    3  A    between atoms: C_7  and  C_8
REMARK    4  A    between atoms: C_8  and  C_9
REMARK    5  A    between atoms: N_10  and  N_11
REMARK    6  A    between atoms: C_18  and  C_20
REMARK                            x       y       z     vdW  Elec       q    Type
REMARK                         _______ _______ _______ _____ _____    ______ ____
ROOT
ATOM      1  N   UNL     1       4.406   3.259  18.373  0.00  0.00    +0.000 NA
ATOM      2  C   UNL     1       3.194   3.529  18.744  0.00  0.00    +0.000 C 
ATOM      3  S   UNL     1       1.975   2.314  18.380  0.00  0.00    +0.000 S 
ATOM      4  C   UNL     1       0.820   3.015  19.559  0.00  0.00    +0.000 C 
ATOM      5  C   UNL     1       1.380   4.353  19.955  0.00  0.00    +0.000 C 
ATOM      6  O   UNL     1       0.771   5.088  20.729  0.00  0.00    +0.000 OA
ATOM      7  N   UNL     1       2.624   4.592  19.410  0.00  0.00    +0.000 N 
ATOM      8  C   UNL     1       3.232   5.823  19.659  0.00  0.00    +0.000 C 
ATOM      9  O   UNL     1       4.212   5.967  20.386  0.00  0.00    +0.000 OA
ENDROOT
BRANCH   8  10
ATOM     10  C   UNL     1       2.491   7.057  19.218  0.00  0.00    +0.000 A 
ATOM     11  C   UNL     1       1.897   7.844  20.217  0.00  0.00    +0.000 A 
ATOM     12  C   UNL     1       1.151   8.978  19.887  0.00  0.00    +0.000 A 
ATOM     13  C   UNL     1       0.991   9.339  18.553  0.00  0.00    +0.000 A 
ATOM     14  C   UNL     1       1.586   8.577  17.549  0.00  0.00    +0.000 A 
ATOM     15  C   UNL     1       2.347   7.447  17.877  0.00  0.00    +0.000 A 
ENDBRANCH   8  10
BRANCH   1  18
ATOM     16  C   UNL     1       6.285   4.536  18.040  0.00  0.00    +0.000 C 
ATOM     17  C   UNL     1       7.354   5.403  18.680  0.00  0.00    +0.000 C 
ATOM     18  N   UNL     1       5.363   4.114  18.859  0.00  0.00    +0.000 NA
BRANCH  16  22
ATOM     19  C   UNL     1       6.471   4.015  13.754  0.00  0.00    +0.000 A 
ATOM     20  C   UNL     1       5.547   3.288  14.509  0.00  0.00    +0.000 A 
ATOM     21  C   UNL     1       5.524   3.408  15.903  0.00  0.00    +0.000 A 
ATOM     22  C   UNL     1       6.396   4.280  16.565  0.00  0.00    +0.000 A 
ATOM     23  C   UNL     1       7.369   4.952  15.811  0.00  0.00    +0.000 A 
ATOM     24  C   UNL     1       7.408   4.818  14.416  0.00  0.00    +0.000 A 
BRANCH  19  26
ATOM     25  C   UNL     1       5.344   3.280  11.549  0.00  0.00    +0.000 C 
ATOM     26  C   UNL     1       6.467   3.991  12.260  0.00  0.00    +0.000 C 
ATOM     27  O   UNL     1       7.362   4.554  11.635  0.00  0.00    +0.000 OA
ENDBRANCH  19  26
ENDBRANCH  16  22
ENDBRANCH   1  18
TORSDOF 4
ENDMDL
