MODEL 1
REMARK VINA RESULT:      -8.3      0.000      0.000
REMARK  Name = 
REMARK  3 active torsions:
REMARK  status: ('A' for Active; 'I' for Inactive)
REMARK    1  A    between atoms: C_1  and  C_2
REMARK    2  A    between atoms: C_8  and  C_9
REMARK    3  A    between atoms: C_9  and  O_10
REMARK                            x       y       z     vdW  Elec       q    Type
REMARK                         _______ _______ _______ _____ _____    ______ ____
ROOT
ATOM      1  C   UNL     1       4.146   3.839  18.265  0.00  0.00    +0.000 C 
ATOM      2  C   UNL     1       4.308   3.003  19.560  0.00  0.00    +0.000 C 
ATOM      3  O   UNL     1       4.970   1.989  19.725  0.00  0.00    +0.000 OA
ATOM      4  N   UNL     1       3.418   3.544  20.497  0.00  0.00    +0.000 N 
ATOM      5  C   UNL     1       2.880   4.741  20.040  0.00  0.00    +0.000 A 
ATOM      6  C   UNL     1       2.012   5.578  20.711  0.00  0.00    +0.000 A 
ATOM      7  C   UNL     1       1.707   6.805  20.114  0.00  0.00    +0.000 A 
ATOM      8  C   UNL     1       2.280   7.157  18.878  0.00  0.00    +0.000 A 
ATOM      9  I   UNL     1       1.916   9.044  18.077  0.00  0.00    +0.000 I 
ATOM     10  C   UNL     1       3.103   6.267  18.184  0.00  0.00    +0.000 A 
ATOM     11  C   UNL     1       3.384   5.041  18.771  0.00  0.00    +0.000 A 
ATOM     12  H   UNL     1       3.251   3.132  21.403  0.00  0.00    +0.000 HD
ENDROOT
BRANCH   1  20
ATOM     13  C   UNL     1       4.953   3.625  12.386  0.00  0.00    +0.000 C 
ATOM     14  C   UNL     1       5.657   4.021  13.652  0.00  0.00    +0.000 A 
ATOM     15  C   UNL     1       6.977   4.475  13.591  0.00  0.00    +0.000 A 
ATOM     16  C   UNL     1       7.657   4.861  14.745  0.00  0.00    +0.000 A 
ATOM     17  C   UNL     1       6.977   4.774  15.961  0.00  0.00    +0.000 A 
ATOM     18  N   UNL     1       7.426   5.102  17.213  0.00  0.00    +0.000 N 
ATOM     19  C   UNL     1       6.468   4.843  18.135  0.00  0.00    +0.000 A 
ATOM     20  C   UNL     1       5.345   4.310  17.497  0.00  0.00    +0.000 A 
ATOM     21  C   UNL     1       5.664   4.303  16.089  0.00  0.00    +0.000 A 
ATOM     22  C   UNL     1       4.996   3.928  14.898  0.00  0.00    +0.000 A 
ATOM     23  H   UNL     1       8.349   5.465  17.415  0.00  0.00    +0.000 HD
ENDBRANCH   1  20
BRANCH   1  24
ATOM     24  O   UNL     1       3.252   3.088  17.422  0.00  0.00    +0.000 OA
ATOM     25  H   UNL     1       3.234   3.586  16.585  0.00  0.00    +0.000 HD
ENDBRANCH   1  24
TORSDOF 2
ENDMDL
MODEL 2
REMARK VINA RESULT:      -7.5      2.057      5.525
REMARK  Name = 
REMARK  3 active torsions:
REMARK  status: ('A' for Active; 'I' for Inactive)
REMARK    1  A    between atoms: C_1  and  C_2
REMARK    2  A    between atoms: C_8  and  C_9
REMARK    3  A    between atoms: C_9  and  O_10
REMARK                            x       y       z     vdW  Elec       q    Type
REMARK                         _______ _______ _______ _____ _____    ______ ____
ROOT
ATOM      1  C   UNL     1       4.093   3.716  18.628  0.00  0.00    +0.000 C 
ATOM      2  C   UNL     1       3.438   2.904  17.481  0.00  0.00    +0.000 C 
ATOM      3  O   UNL     1       2.489   2.137  17.547  0.00  0.00    +0.000 OA
ATOM      4  N   UNL     1       4.244   3.093  16.350  0.00  0.00    +0.000 N 
ATOM      5  C   UNL     1       5.188   4.088  16.572  0.00  0.00    +0.000 A 
ATOM      6  C   UNL     1       6.112   4.579  15.672  0.00  0.00    +0.000 A 
ATOM      7  C   UNL     1       6.876   5.681  16.068  0.00  0.00    +0.000 A 
ATOM      8  C   UNL     1       6.689   6.257  17.337  0.00  0.00    +0.000 A 
ATOM      9  I   UNL     1       7.742   7.979  17.849  0.00  0.00    +0.000 I 
ATOM     10  C   UNL     1       5.796   5.704  18.258  0.00  0.00    +0.000 A 
ATOM     11  C   UNL     1       5.057   4.595  17.868  0.00  0.00    +0.000 A 
ATOM     12  H   UNL     1       4.098   2.602  15.480  0.00  0.00    +0.000 HD
ENDROOT
BRANCH   1  20
ATOM     13  C   UNL     1       2.066   9.190  17.537  0.00  0.00    +0.000 C 
ATOM     14  C   UNL     1       2.094   8.144  18.614  0.00  0.00    +0.000 A 
ATOM     15  C   UNL     1       1.527   8.424  19.859  0.00  0.00    +0.000 A 
ATOM     16  C   UNL     1       1.527   7.473  20.878  0.00  0.00    +0.000 A 
ATOM     17  C   UNL     1       2.116   6.236  20.614  0.00  0.00    +0.000 A 
ATOM     18  N   UNL     1       2.228   5.151  21.443  0.00  0.00    +0.000 N 
ATOM     19  C   UNL     1       2.895   4.152  20.817  0.00  0.00    +0.000 A 
ATOM     20  C   UNL     1       3.262   4.573  19.536  0.00  0.00    +0.000 A 
ATOM     21  C   UNL     1       2.724   5.906  19.396  0.00  0.00    +0.000 A 
ATOM     22  C   UNL     1       2.699   6.888  18.377  0.00  0.00    +0.000 A 
ATOM     23  H   UNL     1       1.877   5.115  22.392  0.00  0.00    +0.000 HD
ENDBRANCH   1  20
BRANCH   1  24
ATOM     24  O   UNL     1       4.876   2.771  19.382  0.00  0.00    +0.000 OA
ATOM     25  H   UNL     1       5.537   2.445  18.746  0.00  0.00    +0.000 HD
ENDBRANCH   1  24
TORSDOF 2
ENDMDL
MODEL 3
REMARK VINA RESULT:      -7.5      1.138      1.218
REMARK  Name = 
REMARK  3 active torsions:
REMARK  status: ('A' for Active; 'I' for Inactive)
REMARK    1  A    between atoms: C_1  and  C_2
REMARK    2  A    between atoms: C_8  and  C_9
REMARK    3  A    between atoms: C_9  and  O_10
REMARK                            x       y       z     vdW  Elec       q    Type
REMARK                         _______ _______ _______ _____ _____    ______ ____
ROOT
ATOM      1  C   UNL     1       3.417   3.362  17.793  0.00  0.00    +0.000 C 
ATOM      2  C   UNL     1       3.446   2.010  18.550  0.00  0.00    +0.000 C 
ATOM      3  O   UNL     1       4.000   0.972  18.219  0.00  0.00    +0.000 OA
ATOM      4  N   UNL     1       2.574   2.145  19.639  0.00  0.00    +0.000 N 
ATOM      5  C   UNL     1       2.172   3.466  19.794  0.00  0.00    +0.000 A 
ATOM      6  C   UNL     1       1.362   3.982  20.785  0.00  0.00    +0.000 A 
ATOM      7  C   UNL     1       1.200   5.370  20.829  0.00  0.00    +0.000 A 
ATOM      8  C   UNL     1       1.854   6.192  19.893  0.00  0.00    +0.000 A 
ATOM      9  I   UNL     1       1.705   8.262  20.064  0.00  0.00    +0.000 I 
ATOM     10  C   UNL     1       2.616   5.645  18.858  0.00  0.00    +0.000 A 
ATOM     11  C   UNL     1       2.754   4.265  18.805  0.00  0.00    +0.000 A 
ATOM     12  H   UNL     1       2.332   1.380  20.251  0.00  0.00    +0.000 HD
ENDROOT
BRANCH   1  20
ATOM     13  C   UNL     1       5.506   3.531  12.237  0.00  0.00    +0.000 C 
ATOM     14  C   UNL     1       5.862   3.946  13.636  0.00  0.00    +0.000 A 
ATOM     15  C   UNL     1       7.095   4.554  13.880  0.00  0.00    +0.000 A 
ATOM     16  C   UNL     1       7.453   4.961  15.163  0.00  0.00    +0.000 A 
ATOM     17  C   UNL     1       6.541   4.736  16.196  0.00  0.00    +0.000 A 
ATOM     18  N   UNL     1       6.661   5.053  17.523  0.00  0.00    +0.000 N 
ATOM     19  C   UNL     1       5.566   4.638  18.203  0.00  0.00    +0.000 A 
ATOM     20  C   UNL     1       4.685   4.007  17.320  0.00  0.00    +0.000 A 
ATOM     21  C   UNL     1       5.302   4.107  16.018  0.00  0.00    +0.000 A 
ATOM     22  C   UNL     1       4.962   3.714  14.701  0.00  0.00    +0.000 A 
ATOM     23  H   UNL     1       7.465   5.513  17.933  0.00  0.00    +0.000 HD
ENDBRANCH   1  20
BRANCH   1  24
ATOM     24  O   UNL     1       2.490   3.184  16.705  0.00  0.00    +0.000 OA
ATOM     25  H   UNL     1       2.963   2.610  16.076  0.00  0.00    +0.000 HD
ENDBRANCH   1  24
TORSDOF 2
ENDMDL
MODEL 4
REMARK VINA RESULT:      -7.5      1.054      1.297
REMARK  Name = 
REMARK  3 active torsions:
REMARK  status: ('A' for Active; 'I' for Inactive)
REMARK    1  A    between atoms: C_1  and  C_2
REMARK    2  A    between atoms: C_8  and  C_9
REMARK    3  A    between atoms: C_9  and  O_10
REMARK                            x       y       z     vdW  Elec       q    Type
REMARK                         _______ _______ _______ _____ _____    ______ ____
ROOT
ATOM      1  C   UNL     1       3.357   4.415  19.062  0.00  0.00    +0.000 C 
ATOM      2  C   UNL     1       3.148   3.652  20.395  0.00  0.00    +0.000 C 
ATOM      3  O   UNL     1       3.602   2.566  20.722  0.00  0.00    +0.000 OA
ATOM      4  N   UNL     1       2.195   4.378  21.123  0.00  0.00    +0.000 N 
ATOM      5  C   UNL     1       1.944   5.608  20.526  0.00  0.00    +0.000 A 
ATOM      6  C   UNL     1       1.108   6.605  20.987  0.00  0.00    +0.000 A 
ATOM      7  C   UNL     1       1.112   7.820  20.296  0.00  0.00    +0.000 A 
ATOM      8  C   UNL     1       1.950   8.002  19.180  0.00  0.00    +0.000 A 
ATOM      9  I   UNL     1       2.038   9.864  18.254  0.00  0.00    +0.000 I 
ATOM     10  C   UNL     1       2.739   6.958  18.690  0.00  0.00    +0.000 A 
ATOM     11  C   UNL     1       2.712   5.746  19.366  0.00  0.00    +0.000 A 
ATOM     12  H   UNL     1       1.803   4.056  21.995  0.00  0.00    +0.000 HD
ENDROOT
BRANCH   1  20
ATOM     13  C   UNL     1       5.122   3.953  13.411  0.00  0.00    +0.000 C 
ATOM     14  C   UNL     1       5.655   4.243  14.785  0.00  0.00    +0.000 A 
ATOM     15  C   UNL     1       7.024   4.457  14.961  0.00  0.00    +0.000 A 
ATOM     16  C   UNL     1       7.550   4.739  16.220  0.00  0.00    +0.000 A 
ATOM     17  C   UNL     1       6.665   4.795  17.298  0.00  0.00    +0.000 A 
ATOM     18  N   UNL     1       6.941   5.062  18.612  0.00  0.00    +0.000 N 
ATOM     19  C   UNL     1       5.807   4.993  19.351  0.00  0.00    +0.000 A 
ATOM     20  C   UNL     1       4.735   4.653  18.520  0.00  0.00    +0.000 A 
ATOM     21  C   UNL     1       5.288   4.564  17.189  0.00  0.00    +0.000 A 
ATOM     22  C   UNL     1       4.781   4.290  15.896  0.00  0.00    +0.000 A 
ATOM     23  H   UNL     1       7.864   5.262  18.977  0.00  0.00    +0.000 HD
ENDBRANCH   1  20
BRANCH   1  24
ATOM     24  O   UNL     1       2.528   3.747  18.092  0.00  0.00    +0.000 OA
ATOM     25  H   UNL     1       2.198   4.465  17.522  0.00  0.00    +0.000 HD
ENDBRANCH   1  24
TORSDOF 2
ENDMDL
MODEL 5
REMARK VINA RESULT:      -7.4      1.972      3.084
REMARK  Name = 
REMARK  3 active torsions:
REMARK  status: ('A' for Active; 'I' for Inactive)
REMARK    1  A    between atoms: C_1  and  C_2
REMARK    2  A    between atoms: C_8  and  C_9
REMARK    3  A    between atoms: C_9  and  O_10
REMARK                            x       y       z     vdW  Elec       q    Type
REMARK                         _______ _______ _______ _____ _____    ______ ____
ROOT
ATOM      1  C   UNL     1       2.481   4.283  19.075  0.00  0.00    +0.000 C 
ATOM      2  C   UNL     1       2.646   3.696  20.500  0.00  0.00    +0.000 C 
ATOM      3  O   UNL     1       2.990   2.567  20.815  0.00  0.00    +0.000 OA
ATOM      4  N   UNL     1       2.171   4.670  21.388  0.00  0.00    +0.000 N 
ATOM      5  C   UNL     1       1.937   5.872  20.731  0.00  0.00    +0.000 A 
ATOM      6  C   UNL     1       1.518   7.062  21.290  0.00  0.00    +0.000 A 
ATOM      7  C   UNL     1       1.481   8.187  20.460  0.00  0.00    +0.000 A 
ATOM      8  C   UNL     1       1.868   8.089  19.111  0.00  0.00    +0.000 A 
ATOM      9  I   UNL     1       1.934   9.805  17.934  0.00  0.00    +0.000 I 
ATOM     10  C   UNL     1       2.225   6.861  18.549  0.00  0.00    +0.000 A 
ATOM     11  C   UNL     1       2.237   5.743  19.372  0.00  0.00    +0.000 A 
ATOM     12  H   UNL     1       2.077   4.514  22.381  0.00  0.00    +0.000 HD
ENDROOT
BRANCH   1  20
ATOM     13  C   UNL     1       8.169   5.843  19.762  0.00  0.00    +0.000 C 
ATOM     14  C   UNL     1       7.220   5.299  18.734  0.00  0.00    +0.000 A 
ATOM     15  C   UNL     1       7.672   5.070  17.432  0.00  0.00    +0.000 A 
ATOM     16  C   UNL     1       6.821   4.557  16.456  0.00  0.00    +0.000 A 
ATOM     17  C   UNL     1       5.501   4.285  16.821  0.00  0.00    +0.000 A 
ATOM     18  N   UNL     1       4.493   3.773  16.049  0.00  0.00    +0.000 N 
ATOM     19  C   UNL     1       3.350   3.686  16.771  0.00  0.00    +0.000 A 
ATOM     20  C   UNL     1       3.582   4.168  18.063  0.00  0.00    +0.000 A 
ATOM     21  C   UNL     1       4.982   4.518  18.101  0.00  0.00    +0.000 A 
ATOM     22  C   UNL     1       5.874   5.030  19.074  0.00  0.00    +0.000 A 
ATOM     23  H   UNL     1       4.589   3.517  15.074  0.00  0.00    +0.000 HD
ENDBRANCH   1  20
BRANCH   1  24
ATOM     24  O   UNL     1       1.250   3.737  18.564  0.00  0.00    +0.000 OA
ATOM     25  H   UNL     1       1.292   3.902  17.605  0.00  0.00    +0.000 HD
ENDBRANCH   1  24
TORSDOF 2
ENDMDL
MODEL 6
REMARK VINA RESULT:      -7.1      2.680      6.340
REMARK  Name = 
REMARK  3 active torsions:
REMARK  status: ('A' for Active; 'I' for Inactive)
REMARK    1  A    between atoms: C_1  and  C_2
REMARK    2  A    between atoms: C_8  and  C_9
REMARK    3  A    between atoms: C_9  and  O_10
REMARK                            x       y       z     vdW  Elec       q    Type
REMARK                         _______ _______ _______ _____ _____    ______ ____
ROOT
ATOM      1  C   UNL     1       5.299   5.595  16.550  0.00  0.00    +0.000 C 
ATOM      2  C   UNL     1       6.687   5.857  17.188  0.00  0.00    +0.000 C 
ATOM      3  O   UNL     1       6.937   6.209  18.331  0.00  0.00    +0.000 OA
ATOM      4  N   UNL     1       7.625   5.764  16.150  0.00  0.00    +0.000 N 
ATOM      5  C   UNL     1       7.040   5.262  14.994  0.00  0.00    +0.000 A 
ATOM      6  C   UNL     1       7.664   4.985  13.794  0.00  0.00    +0.000 A 
ATOM      7  C   UNL     1       6.906   4.353  12.804  0.00  0.00    +0.000 A 
ATOM      8  C   UNL     1       5.563   4.012  13.045  0.00  0.00    +0.000 A 
ATOM      9  I   UNL     1       4.499   2.950  11.605  0.00  0.00    +0.000 I 
ATOM     10  C   UNL     1       4.931   4.361  14.241  0.00  0.00    +0.000 A 
ATOM     11  C   UNL     1       5.682   5.010  15.212  0.00  0.00    +0.000 A 
ATOM     12  H   UNL     1       8.603   5.981  16.269  0.00  0.00    +0.000 HD
ENDROOT
BRANCH   1  20
ATOM     13  C   UNL     1       1.474   6.998  20.870  0.00  0.00    +0.000 C 
ATOM     14  C   UNL     1       1.939   5.828  20.051  0.00  0.00    +0.000 A 
ATOM     15  C   UNL     1       1.413   4.560  20.305  0.00  0.00    +0.000 A 
ATOM     16  C   UNL     1       1.814   3.454  19.557  0.00  0.00    +0.000 A 
ATOM     17  C   UNL     1       2.761   3.657  18.551  0.00  0.00    +0.000 A 
ATOM     18  N   UNL     1       3.296   2.739  17.687  0.00  0.00    +0.000 N 
ATOM     19  C   UNL     1       4.206   3.333  16.879  0.00  0.00    +0.000 A 
ATOM     20  C   UNL     1       4.306   4.687  17.213  0.00  0.00    +0.000 A 
ATOM     21  C   UNL     1       3.343   4.900  18.267  0.00  0.00    +0.000 A 
ATOM     22  C   UNL     1       2.907   6.005  19.037  0.00  0.00    +0.000 A 
ATOM     23  H   UNL     1       3.056   1.755  17.673  0.00  0.00    +0.000 HD
ENDBRANCH   1  20
BRANCH   1  24
ATOM     24  O   UNL     1       4.727   6.894  16.303  0.00  0.00    +0.000 OA
ATOM     25  H   UNL     1       5.254   7.253  15.567  0.00  0.00    +0.000 HD
ENDBRANCH   1  24
TORSDOF 2
ENDMDL
MODEL 7
REMARK VINA RESULT:      -6.9      4.535      6.878
REMARK  Name = 
REMARK  3 active torsions:
REMARK  status: ('A' for Active; 'I' for Inactive)
REMARK    1  A    between atoms: C_1  and  C_2
REMARK    2  A    between atoms: C_8  and  C_9
REMARK    3  A    between atoms: C_9  and  O_10
REMARK                            x       y       z     vdW  Elec       q    Type
REMARK                         _______ _______ _______ _____ _____    ______ ____
ROOT
ATOM      1  C   UNL     1       0.388   8.977  20.834  0.00  0.00    +0.000 C 
ATOM      2  C   UNL     1       0.950   9.908  21.937  0.00  0.00    +0.000 C 
ATOM      3  O   UNL     1       1.800   9.655  22.777  0.00  0.00    +0.000 OA
ATOM      4  N   UNL     1       0.181  11.080  21.899  0.00  0.00    +0.000 N 
ATOM      5  C   UNL     1      -0.641  11.099  20.778  0.00  0.00    +0.000 A 
ATOM      6  C   UNL     1      -1.493  12.111  20.385  0.00  0.00    +0.000 A 
ATOM      7  C   UNL     1      -2.124  11.977  19.144  0.00  0.00    +0.000 A 
ATOM      8  C   UNL     1      -1.879  10.849  18.340  0.00  0.00    +0.000 A 
ATOM      9  I   UNL     1      -2.724  10.740  16.440  0.00  0.00    +0.000 I 
ATOM     10  C   UNL     1      -1.065   9.805  18.786  0.00  0.00    +0.000 A 
ATOM     11  C   UNL     1      -0.460   9.933  20.029  0.00  0.00    +0.000 A 
ATOM     12  H   UNL     1       0.273  11.824  22.574  0.00  0.00    +0.000 HD
ENDROOT
BRANCH   1  20
ATOM     13  C   UNL     1       2.286   3.375  21.357  0.00  0.00    +0.000 C 
ATOM     14  C   UNL     1       2.442   4.588  20.486  0.00  0.00    +0.000 A 
ATOM     15  C   UNL     1       3.337   4.555  19.415  0.00  0.00    +0.000 A 
ATOM     16  C   UNL     1       3.499   5.659  18.580  0.00  0.00    +0.000 A 
ATOM     17  C   UNL     1       2.740   6.799  18.853  0.00  0.00    +0.000 A 
ATOM     18  N   UNL     1       2.717   7.989  18.177  0.00  0.00    +0.000 N 
ATOM     19  C   UNL     1       1.865   8.853  18.780  0.00  0.00    +0.000 A 
ATOM     20  C   UNL     1       1.307   8.240  19.906  0.00  0.00    +0.000 A 
ATOM     21  C   UNL     1       1.846   6.901  19.927  0.00  0.00    +0.000 A 
ATOM     22  C   UNL     1       1.696   5.759  20.751  0.00  0.00    +0.000 A 
ATOM     23  H   UNL     1       3.274   8.195  17.356  0.00  0.00    +0.000 HD
ENDBRANCH   1  20
BRANCH   1  24
ATOM     24  O   UNL     1      -0.508   8.069  21.503  0.00  0.00    +0.000 OA
ATOM     25  H   UNL     1      -0.138   7.187  21.321  0.00  0.00    +0.000 HD
ENDBRANCH   1  24
TORSDOF 2
ENDMDL
MODEL 8
REMARK VINA RESULT:      -6.8      2.942      6.584
REMARK  Name = 
REMARK  3 active torsions:
REMARK  status: ('A' for Active; 'I' for Inactive)
REMARK    1  A    between atoms: C_1  and  C_2
REMARK    2  A    between atoms: C_8  and  C_9
REMARK    3  A    between atoms: C_9  and  O_10
REMARK                            x       y       z     vdW  Elec       q    Type
REMARK                         _______ _______ _______ _____ _____    ______ ____
ROOT
ATOM      1  C   UNL     1       2.678   5.446  19.512  0.00  0.00    +0.000 C 
ATOM      2  C   UNL     1       1.554   4.402  19.732  0.00  0.00    +0.000 C 
ATOM      3  O   UNL     1       0.579   4.487  20.464  0.00  0.00    +0.000 OA
ATOM      4  N   UNL     1       1.943   3.247  19.040  0.00  0.00    +0.000 N 
ATOM      5  C   UNL     1       3.048   3.498  18.235  0.00  0.00    +0.000 A 
ATOM      6  C   UNL     1       3.672   2.617  17.375  0.00  0.00    +0.000 A 
ATOM      7  C   UNL     1       4.686   3.124  16.556  0.00  0.00    +0.000 A 
ATOM      8  C   UNL     1       5.035   4.486  16.617  0.00  0.00    +0.000 A 
ATOM      9  I   UNL     1       6.451   5.243  15.291  0.00  0.00    +0.000 I 
ATOM     10  C   UNL     1       4.436   5.346  17.541  0.00  0.00    +0.000 A 
ATOM     11  C   UNL     1       3.447   4.831  18.368  0.00  0.00    +0.000 A 
ATOM     12  H   UNL     1       1.436   2.376  19.089  0.00  0.00    +0.000 HD
ENDROOT
BRANCH   1  20
ATOM     13  C   UNL     1       0.063   9.471  23.009  0.00  0.00    +0.000 C 
ATOM     14  C   UNL     1       0.595   9.299  21.616  0.00  0.00    +0.000 A 
ATOM     15  C   UNL     1       0.465  10.342  20.696  0.00  0.00    +0.000 A 
ATOM     16  C   UNL     1       0.956  10.220  19.398  0.00  0.00    +0.000 A 
ATOM     17  C   UNL     1       1.578   9.020  19.047  0.00  0.00    +0.000 A 
ATOM     18  N   UNL     1       2.141   8.672  17.849  0.00  0.00    +0.000 N 
ATOM     19  C   UNL     1       2.615   7.404  17.906  0.00  0.00    +0.000 A 
ATOM     20  C   UNL     1       2.350   6.869  19.170  0.00  0.00    +0.000 A 
ATOM     21  C   UNL     1       1.715   7.930  19.916  0.00  0.00    +0.000 A 
ATOM     22  C   UNL     1       1.215   8.088  21.231  0.00  0.00    +0.000 A 
ATOM     23  H   UNL     1       2.178   9.273  17.035  0.00  0.00    +0.000 HD
ENDBRANCH   1  20
BRANCH   1  24
ATOM     24  O   UNL     1       3.516   5.375  20.681  0.00  0.00    +0.000 OA
ATOM     25  H   UNL     1       3.794   4.443  20.722  0.00  0.00    +0.000 HD
ENDBRANCH   1  24
TORSDOF 2
ENDMDL
MODEL 9
REMARK VINA RESULT:      -6.8      7.927     10.286
REMARK  Name = 
REMARK  3 active torsions:
REMARK  status: ('A' for Active; 'I' for Inactive)
REMARK    1  A    between atoms: C_1  and  C_2
REMARK    2  A    between atoms: C_8  and  C_9
REMARK    3  A    between atoms: C_9  and  O_10
REMARK                            x       y       z     vdW  Elec       q    Type
REMARK                         _______ _______ _______ _____ _____    ______ ____
ROOT
ATOM      1  C   UNL     1       0.036  11.719  19.421  0.00  0.00    +0.000 C 
ATOM      2  C   UNL     1       0.900  10.712  18.620  0.00  0.00    +0.000 C 
ATOM      3  O   UNL     1       0.720   9.511  18.476  0.00  0.00    +0.000 OA
ATOM      4  N   UNL     1       2.040  11.411  18.200  0.00  0.00    +0.000 N 
ATOM      5  C   UNL     1       1.904  12.773  18.440  0.00  0.00    +0.000 A 
ATOM      6  C   UNL     1       2.799  13.772  18.112  0.00  0.00    +0.000 A 
ATOM      7  C   UNL     1       2.395  15.094  18.323  0.00  0.00    +0.000 A 
ATOM      8  C   UNL     1       1.118  15.373  18.843  0.00  0.00    +0.000 A 
ATOM      9  I   UNL     1       0.492  17.351  19.019  0.00  0.00    +0.000 I 
ATOM     10  C   UNL     1       0.254  14.346  19.230  0.00  0.00    +0.000 A 
ATOM     11  C   UNL     1       0.670  13.035  19.041  0.00  0.00    +0.000 A 
ATOM     12  H   UNL     1       2.818  10.969  17.734  0.00  0.00    +0.000 HD
ENDROOT
BRANCH   1  20
ATOM     13  C   UNL     1      -2.988  10.062  14.587  0.00  0.00    +0.000 C 
ATOM     14  C   UNL     1      -3.187  10.700  15.932  0.00  0.00    +0.000 A 
ATOM     15  C   UNL     1      -4.457  11.150  16.298  0.00  0.00    +0.000 A 
ATOM     16  C   UNL     1      -4.679  11.737  17.542  0.00  0.00    +0.000 A 
ATOM     17  C   UNL     1      -3.590  11.864  18.406  0.00  0.00    +0.000 A 
ATOM     18  N   UNL     1      -3.562  12.391  19.670  0.00  0.00    +0.000 N 
ATOM     19  C   UNL     1      -2.300  12.357  20.162  0.00  0.00    +0.000 A 
ATOM     20  C   UNL     1      -1.445  11.808  19.203  0.00  0.00    +0.000 A 
ATOM     21  C   UNL     1      -2.288  11.456  18.085  0.00  0.00    +0.000 A 
ATOM     22  C   UNL     1      -2.096  10.854  16.818  0.00  0.00    +0.000 A 
ATOM     23  H   UNL     1      -4.368  12.769  20.153  0.00  0.00    +0.000 HD
ENDBRANCH   1  20
BRANCH   1  24
ATOM     24  O   UNL     1       0.341  11.481  20.809  0.00  0.00    +0.000 OA
ATOM     25  H   UNL     1      -0.469  11.744  21.282  0.00  0.00    +0.000 HD
ENDBRANCH   1  24
TORSDOF 2
ENDMDL
