MODEL 1
REMARK VINA RESULT:      -7.9      0.000      0.000
REMARK  Name = 
REMARK  11 active torsions:
REMARK  status: ('A' for Active; 'I' for Inactive)
REMARK    1  A    between atoms: C_1  and  C_2
REMARK    2  A    between atoms: C_2  and  C_3
REMARK    3  A    between atoms: C_4  and  C_5
REMARK    4  A    between atoms: C_5  and  C_6
REMARK    5  A    between atoms: C_10  and  C_11
REMARK    6  A    between atoms: C_17  and  C_18
REMARK    7  A    between atoms: C_17  and  C_19
REMARK    8  A    between atoms: C_22  and  C_23
REMARK    9  A    between atoms: C_22  and  C_24
REMARK   10  A    between atoms: C_25  and  C_26
REMARK   11  A    between atoms: C_26  and  O_28
REMARK                            x       y       z     vdW  Elec       q    Type
REMARK                         _______ _______ _______ _____ _____    ______ ____
ROOT
ATOM      1  C   UNL     1       9.410  11.595  18.438  0.00  0.00    +0.000 C 
ATOM      2  C   UNL     1       8.378  12.394  17.611  0.00  0.00    +0.000 C 
ATOM      3  C   UNL     1      10.717  11.502  17.611  0.00  0.00    +0.000 C 
ATOM      4  C   UNL     1      11.830  11.288  18.619  0.00  0.00    +0.000 C 
ATOM      5  C   UNL     1      11.354  11.936  19.908  0.00  0.00    +0.000 C 
ATOM      6  C   UNL     1       9.893  12.413  19.693  0.00  0.00    +0.000 C 
ENDROOT
BRANCH   6   7
ATOM      7  C   UNL     1       9.080  12.416  20.988  0.00  0.00    +0.000 A 
ATOM      8  C   UNL     1       9.164  11.411  21.946  0.00  0.00    +0.000 A 
ATOM      9  C   UNL     1       8.390  11.458  23.109  0.00  0.00    +0.000 A 
ATOM     10  C   UNL     1       7.505  12.520  23.382  0.00  0.00    +0.000 A 
ATOM     11  C   UNL     1       7.436  13.571  22.455  0.00  0.00    +0.000 A 
ATOM     12  C   UNL     1       8.167  13.454  21.248  0.00  0.00    +0.000 A 
ATOM     13  C   UNL     1       6.627  14.846  22.707  0.00  0.00    +0.000 C 
ATOM     14  C   UNL     1       5.409  14.880  21.759  0.00  0.00    +0.000 C 
ATOM     15  C   UNL     1       7.492  16.103  22.436  0.00  0.00    +0.000 C 
ATOM     16  C   UNL     1       6.177  14.959  24.183  0.00  0.00    +0.000 C 
ATOM     17  C   UNL     1       5.662  13.655  24.763  0.00  0.00    +0.000 C 
ATOM     18  C   UNL     1       6.672  12.486  24.665  0.00  0.00    +0.000 C 
ATOM     19  C   UNL     1       7.618  12.503  25.888  0.00  0.00    +0.000 C 
ATOM     20  C   UNL     1       5.831  11.187  24.709  0.00  0.00    +0.000 C 
ENDBRANCH   6   7
BRANCH   1  22
ATOM     21  C   UNL     1       8.474   9.302  17.850  0.00  0.00    +0.000 C 
ATOM     22  C   UNL     1       8.874  10.196  18.771  0.00  0.00    +0.000 C 
BRANCH  21  24
ATOM     23  C   UNL     1       6.541   7.679  17.306  0.00  0.00    +0.000 C 
ATOM     24  C   UNL     1       7.811   8.016  18.056  0.00  0.00    +0.000 C 
ATOM     25  C   UNL     1       8.420   7.120  18.859  0.00  0.00    +0.000 C 
BRANCH  25  26
ATOM     26  C   UNL     1       7.963   5.734  19.107  0.00  0.00    +0.000 C 
ATOM     27  O   UNL     1       8.023   4.809  18.317  0.00  0.00    +0.000 OA
BRANCH  26  28
ATOM     28  O   UNL     1       7.460   5.590  20.357  0.00  0.00    +0.000 OA
ATOM     29  H   UNL     1       8.104   5.701  21.081  0.00  0.00    +0.000 HD
ENDBRANCH  26  28
ENDBRANCH  25  26
ENDBRANCH  21  24
ENDBRANCH   1  22
TORSDOF 5
ENDMDL
MODEL 2
REMARK VINA RESULT:      -7.7      6.684      8.568
REMARK  Name = 
REMARK  11 active torsions:
REMARK  status: ('A' for Active; 'I' for Inactive)
REMARK    1  A    between atoms: C_1  and  C_2
REMARK    2  A    between atoms: C_2  and  C_3
REMARK    3  A    between atoms: C_4  and  C_5
REMARK    4  A    between atoms: C_5  and  C_6
REMARK    5  A    between atoms: C_10  and  C_11
REMARK    6  A    between atoms: C_17  and  C_18
REMARK    7  A    between atoms: C_17  and  C_19
REMARK    8  A    between atoms: C_22  and  C_23
REMARK    9  A    between atoms: C_22  and  C_24
REMARK   10  A    between atoms: C_25  and  C_26
REMARK   11  A    between atoms: C_26  and  O_28
REMARK                            x       y       z     vdW  Elec       q    Type
REMARK                         _______ _______ _______ _____ _____    ______ ____
ROOT
ATOM      1  C   UNL     1       3.954   4.538  18.736  0.00  0.00    +0.000 C 
ATOM      2  C   UNL     1       5.138   4.814  19.690  0.00  0.00    +0.000 C 
ATOM      3  C   UNL     1       3.711   3.009  18.706  0.00  0.00    +0.000 C 
ATOM      4  C   UNL     1       2.261   2.828  18.301  0.00  0.00    +0.000 C 
ATOM      5  C   UNL     1       1.537   4.076  18.778  0.00  0.00    +0.000 C 
ATOM      6  C   UNL     1       2.598   5.057  19.345  0.00  0.00    +0.000 C 
ENDROOT
BRANCH   6   7
ATOM      7  C   UNL     1       2.181   6.521  19.197  0.00  0.00    +0.000 A 
ATOM      8  C   UNL     1       2.253   7.219  17.996  0.00  0.00    +0.000 A 
ATOM      9  C   UNL     1       1.867   8.560  17.919  0.00  0.00    +0.000 A 
ATOM     10  C   UNL     1       1.375   9.268  19.034  0.00  0.00    +0.000 A 
ATOM     11  C   UNL     1       1.246   8.573  20.247  0.00  0.00    +0.000 A 
ATOM     12  C   UNL     1       1.724   7.242  20.314  0.00  0.00    +0.000 A 
ATOM     13  C   UNL     1       0.590   9.186  21.486  0.00  0.00    +0.000 C 
ATOM     14  C   UNL     1       1.663   9.439  22.567  0.00  0.00    +0.000 C 
ATOM     15  C   UNL     1      -0.475   8.224  22.071  0.00  0.00    +0.000 C 
ATOM     16  C   UNL     1      -0.168  10.492  21.150  0.00  0.00    +0.000 C 
ATOM     17  C   UNL     1       0.592  11.411  20.211  0.00  0.00    +0.000 C 
ATOM     18  C   UNL     1       0.998  10.742  18.876  0.00  0.00    +0.000 C 
ATOM     19  C   UNL     1      -0.154  10.868  17.852  0.00  0.00    +0.000 C 
ATOM     20  C   UNL     1       2.216  11.539  18.348  0.00  0.00    +0.000 C 
ENDBRANCH   6   7
BRANCH   1  22
ATOM     21  C   UNL     1       5.188   4.558  16.510  0.00  0.00    +0.000 C 
ATOM     22  C   UNL     1       4.253   5.072  17.329  0.00  0.00    +0.000 C 
BRANCH  21  24
ATOM     23  C   UNL     1       5.306   6.478  14.788  0.00  0.00    +0.000 C 
ATOM     24  C   UNL     1       5.659   5.075  15.227  0.00  0.00    +0.000 C 
ATOM     25  C   UNL     1       6.488   4.293  14.505  0.00  0.00    +0.000 C 
BRANCH  25  26
ATOM     26  C   UNL     1       7.152   4.678  13.239  0.00  0.00    +0.000 C 
ATOM     27  O   UNL     1       7.980   5.561  13.105  0.00  0.00    +0.000 OA
BRANCH  26  28
ATOM     28  O   UNL     1       6.735   3.910  12.203  0.00  0.00    +0.000 OA
ATOM     29  H   UNL     1       5.770   3.794  12.133  0.00  0.00    +0.000 HD
ENDBRANCH  26  28
ENDBRANCH  25  26
ENDBRANCH  21  24
ENDBRANCH   1  22
TORSDOF 5
ENDMDL
MODEL 3
REMARK VINA RESULT:      -7.2      9.219     11.241
REMARK  Name = 
REMARK  11 active torsions:
REMARK  status: ('A' for Active; 'I' for Inactive)
REMARK    1  A    between atoms: C_1  and  C_2
REMARK    2  A    between atoms: C_2  and  C_3
REMARK    3  A    between atoms: C_4  and  C_5
REMARK    4  A    between atoms: C_5  and  C_6
REMARK    5  A    between atoms: C_10  and  C_11
REMARK    6  A    between atoms: C_17  and  C_18
REMARK    7  A    between atoms: C_17  and  C_19
REMARK    8  A    between atoms: C_22  and  C_23
REMARK    9  A    between atoms: C_22  and  C_24
REMARK   10  A    between atoms: C_25  and  C_26
REMARK   11  A    between atoms: C_26  and  O_28
REMARK                            x       y       z     vdW  Elec       q    Type
REMARK                         _______ _______ _______ _____ _____    ______ ____
ROOT
ATOM      1  C   UNL     1       0.000  11.094  20.123  0.00  0.00    +0.000 C 
ATOM      2  C   UNL     1       1.017  11.919  19.302  0.00  0.00    +0.000 C 
ATOM      3  C   UNL     1       0.469   9.618  20.120  0.00  0.00    +0.000 C 
ATOM      4  C   UNL     1      -0.138   8.989  21.359  0.00  0.00    +0.000 C 
ATOM      5  C   UNL     1      -0.301  10.119  22.362  0.00  0.00    +0.000 C 
ATOM      6  C   UNL     1       0.086  11.446  21.655  0.00  0.00    +0.000 C 
ENDROOT
BRANCH   6   7
ATOM      7  C   UNL     1      -0.659  12.653  22.226  0.00  0.00    +0.000 A 
ATOM      8  C   UNL     1      -0.085  13.913  22.357  0.00  0.00    +0.000 A 
ATOM      9  C   UNL     1      -0.809  14.981  22.894  0.00  0.00    +0.000 A 
ATOM     10  C   UNL     1      -2.148  14.849  23.313  0.00  0.00    +0.000 A 
ATOM     11  C   UNL     1      -2.767  13.600  23.146  0.00  0.00    +0.000 A 
ATOM     12  C   UNL     1      -1.983  12.518  22.679  0.00  0.00    +0.000 A 
ATOM     13  C   UNL     1      -4.254  13.369  23.424  0.00  0.00    +0.000 C 
ATOM     14  C   UNL     1      -4.414  12.483  24.678  0.00  0.00    +0.000 C 
ATOM     15  C   UNL     1      -4.927  12.650  22.228  0.00  0.00    +0.000 C 
ATOM     16  C   UNL     1      -5.021  14.703  23.594  0.00  0.00    +0.000 C 
ATOM     17  C   UNL     1      -4.283  15.725  24.438  0.00  0.00    +0.000 C 
ATOM     18  C   UNL     1      -2.865  16.059  23.915  0.00  0.00    +0.000 C 
ATOM     19  C   UNL     1      -2.944  17.185  22.858  0.00  0.00    +0.000 C 
ATOM     20  C   UNL     1      -2.070  16.583  25.136  0.00  0.00    +0.000 C 
ENDBRANCH   6   7
BRANCH   1  22
ATOM     21  C   UNL     1      -1.808  10.618  18.396  0.00  0.00    +0.000 C 
ATOM     22  C   UNL     1      -1.409  11.222  19.529  0.00  0.00    +0.000 C 
BRANCH  21  24
ATOM     23  C   UNL     1      -3.264  10.122  16.322  0.00  0.00    +0.000 C 
ATOM     24  C   UNL     1      -3.061  10.790  17.664  0.00  0.00    +0.000 C 
ATOM     25  C   UNL     1      -4.049  11.481  18.270  0.00  0.00    +0.000 C 
BRANCH  25  26
ATOM     26  C   UNL     1      -5.418  11.671  17.739  0.00  0.00    +0.000 C 
ATOM     27  O   UNL     1      -6.377  10.955  17.962  0.00  0.00    +0.000 OA
BRANCH  26  28
ATOM     28  O   UNL     1      -5.501  12.774  16.957  0.00  0.00    +0.000 OA
ATOM     29  H   UNL     1      -6.307  13.309  17.075  0.00  0.00    +0.000 HD
ENDBRANCH  26  28
ENDBRANCH  25  26
ENDBRANCH  21  24
ENDBRANCH   1  22
TORSDOF 5
ENDMDL
MODEL 4
REMARK VINA RESULT:      -7.1      8.558     10.399
REMARK  Name = 
REMARK  11 active torsions:
REMARK  status: ('A' for Active; 'I' for Inactive)
REMARK    1  A    between atoms: C_1  and  C_2
REMARK    2  A    between atoms: C_2  and  C_3
REMARK    3  A    between atoms: C_4  and  C_5
REMARK    4  A    between atoms: C_5  and  C_6
REMARK    5  A    between atoms: C_10  and  C_11
REMARK    6  A    between atoms: C_17  and  C_18
REMARK    7  A    between atoms: C_17  and  C_19
REMARK    8  A    between atoms: C_22  and  C_23
REMARK    9  A    between atoms: C_22  and  C_24
REMARK   10  A    between atoms: C_25  and  C_26
REMARK   11  A    between atoms: C_26  and  O_28
REMARK                            x       y       z     vdW  Elec       q    Type
REMARK                         _______ _______ _______ _____ _____    ______ ____
ROOT
ATOM      1  C   UNL     1       0.628  10.216  19.849  0.00  0.00    +0.000 C 
ATOM      2  C   UNL     1       1.428  11.253  19.029  0.00  0.00    +0.000 C 
ATOM      3  C   UNL     1       1.432   8.892  19.859  0.00  0.00    +0.000 C 
ATOM      4  C   UNL     1       0.981   8.144  21.099  0.00  0.00    +0.000 C 
ATOM      5  C   UNL     1       0.548   9.208  22.092  0.00  0.00    +0.000 C 
ATOM      6  C   UNL     1       0.616  10.585  21.380  0.00  0.00    +0.000 C 
ENDROOT
BRANCH   6   7
ATOM      7  C   UNL     1      -0.397  11.585  21.937  0.00  0.00    +0.000 A 
ATOM      8  C   UNL     1      -1.416  11.232  22.817  0.00  0.00    +0.000 A 
ATOM      9  C   UNL     1      -2.321  12.186  23.289  0.00  0.00    +0.000 A 
ATOM     10  C   UNL     1      -2.246  13.544  22.920  0.00  0.00    +0.000 A 
ATOM     11  C   UNL     1      -1.199  13.936  22.072  0.00  0.00    +0.000 A 
ATOM     12  C   UNL     1      -0.350  12.934  21.543  0.00  0.00    +0.000 A 
ATOM     13  C   UNL     1      -0.923  15.399  21.718  0.00  0.00    +0.000 C 
ATOM     14  C   UNL     1      -1.265  15.645  20.233  0.00  0.00    +0.000 C 
ATOM     15  C   UNL     1       0.572  15.742  21.938  0.00  0.00    +0.000 C 
ATOM     16  C   UNL     1      -1.711  16.370  22.631  0.00  0.00    +0.000 C 
ATOM     17  C   UNL     1      -3.149  15.947  22.869  0.00  0.00    +0.000 C 
ATOM     18  C   UNL     1      -3.291  14.523  23.459  0.00  0.00    +0.000 C 
ATOM     19  C   UNL     1      -3.191  14.579  25.001  0.00  0.00    +0.000 C 
ATOM     20  C   UNL     1      -4.710  14.038  23.074  0.00  0.00    +0.000 C 
ENDBRANCH   6   7
BRANCH   1  22
ATOM     21  C   UNL     1      -1.296  10.774  18.279  0.00  0.00    +0.000 C 
ATOM     22  C   UNL     1      -0.767  10.004  19.246  0.00  0.00    +0.000 C 
BRANCH  21  24
ATOM     23  C   UNL     1      -3.020   9.847  16.595  0.00  0.00    +0.000 C 
ATOM     24  C   UNL     1      -2.656  10.760  17.744  0.00  0.00    +0.000 C 
ATOM     25  C   UNL     1      -3.581  11.517  18.370  0.00  0.00    +0.000 C 
BRANCH  25  26
ATOM     26  C   UNL     1      -5.025  11.555  18.047  0.00  0.00    +0.000 C 
ATOM     27  O   UNL     1      -5.874  10.794  18.472  0.00  0.00    +0.000 OA
BRANCH  26  28
ATOM     28  O   UNL     1      -5.320  12.573  17.202  0.00  0.00    +0.000 OA
ATOM     29  H   UNL     1      -4.851  12.555  16.347  0.00  0.00    +0.000 HD
ENDBRANCH  26  28
ENDBRANCH  25  26
ENDBRANCH  21  24
ENDBRANCH   1  22
TORSDOF 5
ENDMDL
MODEL 5
REMARK VINA RESULT:      -7.1      0.876      1.308
REMARK  Name = 
REMARK  11 active torsions:
REMARK  status: ('A' for Active; 'I' for Inactive)
REMARK    1  A    between atoms: C_1  and  C_2
REMARK    2  A    between atoms: C_2  and  C_3
REMARK    3  A    between atoms: C_4  and  C_5
REMARK    4  A    between atoms: C_5  and  C_6
REMARK    5  A    between atoms: C_10  and  C_11
REMARK    6  A    between atoms: C_17  and  C_18
REMARK    7  A    between atoms: C_17  and  C_19
REMARK    8  A    between atoms: C_22  and  C_23
REMARK    9  A    between atoms: C_22  and  C_24
REMARK   10  A    between atoms: C_25  and  C_26
REMARK   11  A    between atoms: C_26  and  O_28
REMARK                            x       y       z     vdW  Elec       q    Type
REMARK                         _______ _______ _______ _____ _____    ______ ____
ROOT
ATOM      1  C   UNL     1       9.445  11.726  18.427  0.00  0.00    +0.000 C 
ATOM      2  C   UNL     1       8.403  12.516  17.604  0.00  0.00    +0.000 C 
ATOM      3  C   UNL     1      10.761  11.676  17.612  0.00  0.00    +0.000 C 
ATOM      4  C   UNL     1      11.868  11.469  18.627  0.00  0.00    +0.000 C 
ATOM      5  C   UNL     1      11.366  12.084  19.922  0.00  0.00    +0.000 C 
ATOM      6  C   UNL     1       9.897  12.533  19.701  0.00  0.00    +0.000 C 
ENDROOT
BRANCH   6   7
ATOM      7  C   UNL     1       9.072  12.496  20.987  0.00  0.00    +0.000 A 
ATOM      8  C   UNL     1       9.116  11.441  21.894  0.00  0.00    +0.000 A 
ATOM      9  C   UNL     1       8.333  11.454  23.051  0.00  0.00    +0.000 A 
ATOM     10  C   UNL     1       7.478  12.528  23.371  0.00  0.00    +0.000 A 
ATOM     11  C   UNL     1       7.452  13.627  22.498  0.00  0.00    +0.000 A 
ATOM     12  C   UNL     1       8.190  13.547  21.293  0.00  0.00    +0.000 A 
ATOM     13  C   UNL     1       6.680  14.912  22.808  0.00  0.00    +0.000 C 
ATOM     14  C   UNL     1       5.473  15.032  21.854  0.00  0.00    +0.000 C 
ATOM     15  C   UNL     1       7.586  16.153  22.609  0.00  0.00    +0.000 C 
ATOM     16  C   UNL     1       6.220  14.964  24.285  0.00  0.00    +0.000 C 
ATOM     17  C   UNL     1       5.658  13.649  24.793  0.00  0.00    +0.000 C 
ATOM     18  C   UNL     1       6.633  12.456  24.644  0.00  0.00    +0.000 C 
ATOM     19  C   UNL     1       7.567  12.381  25.874  0.00  0.00    +0.000 C 
ATOM     20  C   UNL     1       5.752  11.183  24.615  0.00  0.00    +0.000 C 
ENDBRANCH   6   7
BRANCH   1  22
ATOM     21  C   UNL     1       8.596   9.412  17.791  0.00  0.00    +0.000 C 
ATOM     22  C   UNL     1       8.936  10.310  18.732  0.00  0.00    +0.000 C 
BRANCH  21  24
ATOM     23  C   UNL     1       8.396   7.184  19.080  0.00  0.00    +0.000 C 
ATOM     24  C   UNL     1       7.962   8.107  17.963  0.00  0.00    +0.000 C 
ATOM     25  C   UNL     1       6.926   7.804  17.154  0.00  0.00    +0.000 C 
BRANCH  25  26
ATOM     26  C   UNL     1       6.091   6.584  17.243  0.00  0.00    +0.000 C 
ATOM     27  O   UNL     1       5.068   6.462  17.892  0.00  0.00    +0.000 OA
BRANCH  26  28
ATOM     28  O   UNL     1       6.597   5.578  16.488  0.00  0.00    +0.000 OA
ATOM     29  H   UNL     1       7.383   5.135  16.858  0.00  0.00    +0.000 HD
ENDBRANCH  26  28
ENDBRANCH  25  26
ENDBRANCH  21  24
ENDBRANCH   1  22
TORSDOF 5
ENDMDL
MODEL 6
REMARK VINA RESULT:      -7.1      9.358     12.219
REMARK  Name = 
REMARK  11 active torsions:
REMARK  status: ('A' for Active; 'I' for Inactive)
REMARK    1  A    between atoms: C_1  and  C_2
REMARK    2  A    between atoms: C_2  and  C_3
REMARK    3  A    between atoms: C_4  and  C_5
REMARK    4  A    between atoms: C_5  and  C_6
REMARK    5  A    between atoms: C_10  and  C_11
REMARK    6  A    between atoms: C_17  and  C_18
REMARK    7  A    between atoms: C_17  and  C_19
REMARK    8  A    between atoms: C_22  and  C_23
REMARK    9  A    between atoms: C_22  and  C_24
REMARK   10  A    between atoms: C_25  and  C_26
REMARK   11  A    between atoms: C_26  and  O_28
REMARK                            x       y       z     vdW  Elec       q    Type
REMARK                         _______ _______ _______ _____ _____    ______ ____
ROOT
ATOM      1  C   UNL     1      -4.249  14.515  22.471  0.00  0.00    +0.000 C 
ATOM      2  C   UNL     1      -5.022  13.919  23.669  0.00  0.00    +0.000 C 
ATOM      3  C   UNL     1      -4.456  16.049  22.484  0.00  0.00    +0.000 C 
ATOM      4  C   UNL     1      -3.268  16.633  21.744  0.00  0.00    +0.000 C 
ATOM      5  C   UNL     1      -2.130  15.647  21.940  0.00  0.00    +0.000 C 
ATOM      6  C   UNL     1      -2.693  14.408  22.686  0.00  0.00    +0.000 C 
ENDROOT
BRANCH   6   7
ATOM      7  C   UNL     1      -1.940  13.123  22.341  0.00  0.00    +0.000 A 
ATOM      8  C   UNL     1      -1.751  12.081  23.243  0.00  0.00    +0.000 A 
ATOM      9  C   UNL     1      -1.046  10.931  22.878  0.00  0.00    +0.000 A 
ATOM     10  C   UNL     1      -0.507  10.756  21.587  0.00  0.00    +0.000 A 
ATOM     11  C   UNL     1      -0.725  11.770  20.643  0.00  0.00    +0.000 A 
ATOM     12  C   UNL     1      -1.368  12.958  21.067  0.00  0.00    +0.000 A 
ATOM     13  C   UNL     1      -0.319  11.634  19.174  0.00  0.00    +0.000 C 
ATOM     14  C   UNL     1       0.857  12.588  18.872  0.00  0.00    +0.000 C 
ATOM     15  C   UNL     1      -1.502  12.008  18.244  0.00  0.00    +0.000 C 
ATOM     16  C   UNL     1       0.051  10.176  18.811  0.00  0.00    +0.000 C 
ATOM     17  C   UNL     1       0.907   9.488  19.859  0.00  0.00    +0.000 C 
ATOM     18  C   UNL     1       0.275   9.479  21.272  0.00  0.00    +0.000 C 
ATOM     19  C   UNL     1      -0.660   8.256  21.424  0.00  0.00    +0.000 C 
ATOM     20  C   UNL     1       1.452   9.327  22.267  0.00  0.00    +0.000 C 
ENDBRANCH   6   7
BRANCH   1  22
ATOM     21  C   UNL     1      -5.334  12.706  21.047  0.00  0.00    +0.000 C 
ATOM     22  C   UNL     1      -4.741  13.908  21.150  0.00  0.00    +0.000 C 
BRANCH  21  24
ATOM     23  C   UNL     1      -6.785  10.918  19.878  0.00  0.00    +0.000 C 
ATOM     24  C   UNL     1      -5.700  11.970  19.838  0.00  0.00    +0.000 C 
ATOM     25  C   UNL     1      -5.101  12.330  18.683  0.00  0.00    +0.000 C 
BRANCH  25  26
ATOM     26  C   UNL     1      -5.412  11.780  17.344  0.00  0.00    +0.000 C 
ATOM     27  O   UNL     1      -4.725  10.997  16.715  0.00  0.00    +0.000 OA
BRANCH  26  28
ATOM     28  O   UNL     1      -6.594  12.249  16.875  0.00  0.00    +0.000 OA
ATOM     29  H   UNL     1      -6.564  12.632  15.979  0.00  0.00    +0.000 HD
ENDBRANCH  26  28
ENDBRANCH  25  26
ENDBRANCH  21  24
ENDBRANCH   1  22
TORSDOF 5
ENDMDL
MODEL 7
REMARK VINA RESULT:      -7.0      3.589      5.302
REMARK  Name = 
REMARK  11 active torsions:
REMARK  status: ('A' for Active; 'I' for Inactive)
REMARK    1  A    between atoms: C_1  and  C_2
REMARK    2  A    between atoms: C_2  and  C_3
REMARK    3  A    between atoms: C_4  and  C_5
REMARK    4  A    between atoms: C_5  and  C_6
REMARK    5  A    between atoms: C_10  and  C_11
REMARK    6  A    between atoms: C_17  and  C_18
REMARK    7  A    between atoms: C_17  and  C_19
REMARK    8  A    between atoms: C_22  and  C_23
REMARK    9  A    between atoms: C_22  and  C_24
REMARK   10  A    between atoms: C_25  and  C_26
REMARK   11  A    between atoms: C_26  and  O_28
REMARK                            x       y       z     vdW  Elec       q    Type
REMARK                         _______ _______ _______ _____ _____    ______ ____
ROOT
ATOM      1  C   UNL     1       9.957  13.294  18.507  0.00  0.00    +0.000 C 
ATOM      2  C   UNL     1      10.669  14.502  17.860  0.00  0.00    +0.000 C 
ATOM      3  C   UNL     1      10.360  12.023  17.719  0.00  0.00    +0.000 C 
ATOM      4  C   UNL     1      10.177  10.864  18.680  0.00  0.00    +0.000 C 
ATOM      5  C   UNL     1      10.380  11.442  20.071  0.00  0.00    +0.000 C 
ATOM      6  C   UNL     1      10.548  12.978  19.932  0.00  0.00    +0.000 C 
ENDROOT
BRANCH   6   7
ATOM      7  C   UNL     1      10.063  13.736  21.168  0.00  0.00    +0.000 A 
ATOM      8  C   UNL     1      10.459  15.034  21.474  0.00  0.00    +0.000 A 
ATOM      9  C   UNL     1       9.992  15.677  22.623  0.00  0.00    +0.000 A 
ATOM     10  C   UNL     1       9.091  15.063  23.517  0.00  0.00    +0.000 A 
ATOM     11  C   UNL     1       8.637  13.772  23.206  0.00  0.00    +0.000 A 
ATOM     12  C   UNL     1       9.193  13.115  22.082  0.00  0.00    +0.000 A 
ATOM     13  C   UNL     1       7.550  13.059  24.015  0.00  0.00    +0.000 C 
ATOM     14  C   UNL     1       8.174  11.880  24.792  0.00  0.00    +0.000 C 
ATOM     15  C   UNL     1       6.451  12.499  23.077  0.00  0.00    +0.000 C 
ATOM     16  C   UNL     1       6.822  14.027  24.978  0.00  0.00    +0.000 C 
ATOM     17  C   UNL     1       7.757  14.974  25.709  0.00  0.00    +0.000 C 
ATOM     18  C   UNL     1       8.645  15.823  24.767  0.00  0.00    +0.000 C 
ATOM     19  C   UNL     1       7.891  17.105  24.345  0.00  0.00    +0.000 C 
ATOM     20  C   UNL     1       9.885  16.232  25.600  0.00  0.00    +0.000 C 
ENDBRANCH   6   7
BRANCH   1  22
ATOM     21  C   UNL     1       7.817  14.640  18.802  0.00  0.00    +0.000 C 
ATOM     22  C   UNL     1       8.435  13.487  18.490  0.00  0.00    +0.000 C 
BRANCH  21  24
ATOM     23  C   UNL     1       5.820  15.237  20.327  0.00  0.00    +0.000 C 
ATOM     24  C   UNL     1       6.387  14.892  18.968  0.00  0.00    +0.000 C 
ATOM     25  C   UNL     1       5.620  14.896  17.858  0.00  0.00    +0.000 C 
BRANCH  25  26
ATOM     26  C   UNL     1       4.180  15.233  17.806  0.00  0.00    +0.000 C 
ATOM     27  O   UNL     1       3.709  16.354  17.743  0.00  0.00    +0.000 OA
BRANCH  26  28
ATOM     28  O   UNL     1       3.406  14.120  17.827  0.00  0.00    +0.000 OA
ATOM     29  H   UNL     1       2.938  13.954  18.666  0.00  0.00    +0.000 HD
ENDBRANCH  26  28
ENDBRANCH  25  26
ENDBRANCH  21  24
ENDBRANCH   1  22
TORSDOF 5
ENDMDL
MODEL 8
REMARK VINA RESULT:      -6.9      8.368     10.217
REMARK  Name = 
REMARK  11 active torsions:
REMARK  status: ('A' for Active; 'I' for Inactive)
REMARK    1  A    between atoms: C_1  and  C_2
REMARK    2  A    between atoms: C_2  and  C_3
REMARK    3  A    between atoms: C_4  and  C_5
REMARK    4  A    between atoms: C_5  and  C_6
REMARK    5  A    between atoms: C_10  and  C_11
REMARK    6  A    between atoms: C_17  and  C_18
REMARK    7  A    between atoms: C_17  and  C_19
REMARK    8  A    between atoms: C_22  and  C_23
REMARK    9  A    between atoms: C_22  and  C_24
REMARK   10  A    between atoms: C_25  and  C_26
REMARK   11  A    between atoms: C_26  and  O_28
REMARK                            x       y       z     vdW  Elec       q    Type
REMARK                         _______ _______ _______ _____ _____    ______ ____
ROOT
ATOM      1  C   UNL     1       0.474  10.421  20.076  0.00  0.00    +0.000 C 
ATOM      2  C   UNL     1       1.389  11.423  19.336  0.00  0.00    +0.000 C 
ATOM      3  C   UNL     1       1.175   9.040  20.070  0.00  0.00    +0.000 C 
ATOM      4  C   UNL     1       0.609   8.283  21.256  0.00  0.00    +0.000 C 
ATOM      5  C   UNL     1       0.209   9.340  22.271  0.00  0.00    +0.000 C 
ATOM      6  C   UNL     1       0.415  10.733  21.618  0.00  0.00    +0.000 C 
ENDROOT
BRANCH   6   7
ATOM      7  C   UNL     1      -0.546  11.787  22.169  0.00  0.00    +0.000 A 
ATOM      8  C   UNL     1      -1.637  11.480  22.975  0.00  0.00    +0.000 A 
ATOM      9  C   UNL     1      -2.490  12.482  23.444  0.00  0.00    +0.000 A 
ATOM     10  C   UNL     1      -2.288  13.845  23.145  0.00  0.00    +0.000 A 
ATOM     11  C   UNL     1      -1.166  14.187  22.374  0.00  0.00    +0.000 A 
ATOM     12  C   UNL     1      -0.370  13.143  21.843  0.00  0.00    +0.000 A 
ATOM     13  C   UNL     1      -0.757  15.637  22.106  0.00  0.00    +0.000 C 
ATOM     14  C   UNL     1      -0.994  15.974  20.618  0.00  0.00    +0.000 C 
ATOM     15  C   UNL     1       0.746  15.847  22.421  0.00  0.00    +0.000 C 
ATOM     16  C   UNL     1      -1.517  16.628  23.020  0.00  0.00    +0.000 C 
ATOM     17  C   UNL     1      -2.995  16.313  23.161  0.00  0.00    +0.000 C 
ATOM     18  C   UNL     1      -3.281  14.881  23.674  0.00  0.00    +0.000 C 
ATOM     19  C   UNL     1      -3.265  14.862  25.220  0.00  0.00    +0.000 C 
ATOM     20  C   UNL     1      -4.710  14.530  23.191  0.00  0.00    +0.000 C 
ENDBRANCH   6   7
BRANCH   1  22
ATOM     21  C   UNL     1      -1.095   9.956  18.127  0.00  0.00    +0.000 C 
ATOM     22  C   UNL     1      -0.901  10.339  19.401  0.00  0.00    +0.000 C 
BRANCH  21  24
ATOM     23  C   UNL     1      -3.639   9.551  17.955  0.00  0.00    +0.000 C 
ATOM     24  C   UNL     1      -2.327   9.988  17.342  0.00  0.00    +0.000 C 
ATOM     25  C   UNL     1      -2.262  10.503  16.097  0.00  0.00    +0.000 C 
BRANCH  25  26
ATOM     26  C   UNL     1      -3.414  10.718  15.192  0.00  0.00    +0.000 C 
ATOM     27  O   UNL     1      -3.860   9.911  14.398  0.00  0.00    +0.000 OA
BRANCH  26  28
ATOM     28  O   UNL     1      -3.950  11.952  15.352  0.00  0.00    +0.000 OA
ATOM     29  H   UNL     1      -3.775  12.580  14.626  0.00  0.00    +0.000 HD
ENDBRANCH  26  28
ENDBRANCH  25  26
ENDBRANCH  21  24
ENDBRANCH   1  22
TORSDOF 5
ENDMDL
MODEL 9
REMARK VINA RESULT:      -6.9      5.661     10.157
REMARK  Name = 
REMARK  11 active torsions:
REMARK  status: ('A' for Active; 'I' for Inactive)
REMARK    1  A    between atoms: C_1  and  C_2
REMARK    2  A    between atoms: C_2  and  C_3
REMARK    3  A    between atoms: C_4  and  C_5
REMARK    4  A    between atoms: C_5  and  C_6
REMARK    5  A    between atoms: C_10  and  C_11
REMARK    6  A    between atoms: C_17  and  C_18
REMARK    7  A    between atoms: C_17  and  C_19
REMARK    8  A    between atoms: C_22  and  C_23
REMARK    9  A    between atoms: C_22  and  C_24
REMARK   10  A    between atoms: C_25  and  C_26
REMARK   11  A    between atoms: C_26  and  O_28
REMARK                            x       y       z     vdW  Elec       q    Type
REMARK                         _______ _______ _______ _____ _____    ______ ____
ROOT
ATOM      1  C   UNL     1       0.223  10.140  19.299  0.00  0.00    +0.000 C 
ATOM      2  C   UNL     1      -0.738  10.167  18.089  0.00  0.00    +0.000 C 
ATOM      3  C   UNL     1      -0.595  10.485  20.567  0.00  0.00    +0.000 C 
ATOM      4  C   UNL     1       0.165   9.876  21.729  0.00  0.00    +0.000 C 
ATOM      5  C   UNL     1       0.910   8.681  21.158  0.00  0.00    +0.000 C 
ATOM      6  C   UNL     1       0.693   8.672  19.621  0.00  0.00    +0.000 C 
ENDROOT
BRANCH   6   7
ATOM      7  C   UNL     1       1.863   8.040  18.867  0.00  0.00    +0.000 A 
ATOM      8  C   UNL     1       2.783   8.775  18.126  0.00  0.00    +0.000 A 
ATOM      9  C   UNL     1       3.829   8.145  17.448  0.00  0.00    +0.000 A 
ATOM     10  C   UNL     1       4.021   6.749  17.488  0.00  0.00    +0.000 A 
ATOM     11  C   UNL     1       3.137   5.988  18.268  0.00  0.00    +0.000 A 
ATOM     12  C   UNL     1       2.038   6.644  18.873  0.00  0.00    +0.000 A 
ATOM     13  C   UNL     1       3.326   4.489  18.510  0.00  0.00    +0.000 C 
ATOM     14  C   UNL     1       2.223   3.703  17.770  0.00  0.00    +0.000 C 
ATOM     15  C   UNL     1       3.228   4.164  20.022  0.00  0.00    +0.000 C 
ATOM     16  C   UNL     1       4.730   4.009  18.071  0.00  0.00    +0.000 C 
ATOM     17  C   UNL     1       5.182   4.584  16.742  0.00  0.00    +0.000 C 
ATOM     18  C   UNL     1       5.176   6.131  16.697  0.00  0.00    +0.000 C 
ATOM     19  C   UNL     1       6.517   6.679  17.238  0.00  0.00    +0.000 C 
ATOM     20  C   UNL     1       5.052   6.518  15.203  0.00  0.00    +0.000 C 
ENDBRANCH   6   7
BRANCH   1  22
ATOM     21  C   UNL     1       1.467  12.316  19.740  0.00  0.00    +0.000 C 
ATOM     22  C   UNL     1       1.373  11.136  19.102  0.00  0.00    +0.000 C 
BRANCH  21  24
ATOM     23  C   UNL     1       3.181  14.003  20.681  0.00  0.00    +0.000 C 
ATOM     24  C   UNL     1       2.424  13.399  19.519  0.00  0.00    +0.000 C 
ATOM     25  C   UNL     1       2.669  13.766  18.244  0.00  0.00    +0.000 C 
BRANCH  25  26
ATOM     26  C   UNL     1       3.675  14.762  17.813  0.00  0.00    +0.000 C 
ATOM     27  O   UNL     1       3.473  15.947  17.620  0.00  0.00    +0.000 OA
BRANCH  26  28
ATOM     28  O   UNL     1       4.899  14.199  17.657  0.00  0.00    +0.000 OA
ATOM     29  H   UNL     1       5.332  13.910  18.481  0.00  0.00    +0.000 HD
ENDBRANCH  26  28
ENDBRANCH  25  26
ENDBRANCH  21  24
ENDBRANCH   1  22
TORSDOF 5
ENDMDL
