MODEL 1
REMARK VINA RESULT:      -8.1      0.000      0.000
REMARK  Name = 
REMARK  8 active torsions:
REMARK  status: ('A' for Active; 'I' for Inactive)
REMARK    1  A    between atoms: C_2  and  C_13
REMARK    2  A    between atoms: N_3  and  C_4
REMARK    3  A    between atoms: C_4  and  C_5
REMARK    4  A    between atoms: C_5  and  C_6
REMARK    5  A    between atoms: C_6  and  N_7
REMARK    6  A    between atoms: C_17  and  N_18
REMARK    7  A    between atoms: C_23  and  N_24
REMARK    8  A    between atoms: N_24  and  C_25
REMARK                            x       y       z     vdW  Elec       q    Type
REMARK                         _______ _______ _______ _____ _____    ______ ____
ROOT
ATOM      1  C   UNL     1      -3.625  13.501  21.533  0.00  0.00    +0.000 A 
ATOM      2  C   UNL     1      -3.300  14.490  22.469  0.00  0.00    +0.000 A 
ATOM      3  C   UNL     1      -2.146  14.353  23.215  0.00  0.00    +0.000 A 
ATOM      4  C   UNL     1      -1.343  13.218  23.025  0.00  0.00    +0.000 A 
ATOM      5  C   UNL     1      -1.635  12.163  22.098  0.00  0.00    +0.000 A 
ATOM      6  C   UNL     1      -2.804  12.321  21.353  0.00  0.00    +0.000 A 
ENDROOT
BRANCH   5   7
ATOM      7  N   UNL     1      -0.660  11.056  22.050  0.00  0.00    +0.000 N 
ATOM      8  N   UNL     1      -0.440  10.528  23.298  0.00  0.00    +0.000 NA
ATOM      9  C   UNL     1       0.236   9.416  23.123  0.00  0.00    +0.000 A 
ATOM     10  C   UNL     1       0.579   9.204  21.800  0.00  0.00    +0.000 A 
ATOM     11  C   UNL     1       1.274   8.135  21.190  0.00  0.00    +0.000 A 
ATOM     12  C   UNL     1       1.630   8.125  19.842  0.00  0.00    +0.000 A 
ATOM     13  C   UNL     1       1.318   9.296  19.141  0.00  0.00    +0.000 A 
ATOM     14  C   UNL     1       0.536  10.395  19.721  0.00  0.00    +0.000 A 
ATOM     15  C   UNL     1       0.130  10.330  21.088  0.00  0.00    +0.000 A 
BRANCH  12  16
ATOM     16  N   UNL     1       2.267   6.941  19.394  0.00  0.00    +0.000 N 
ATOM     17  H   UNL     1       2.250   6.226  20.123  0.00  0.00    +0.000 HD
BRANCH  16  18
ATOM     18  C   UNL     1       3.124   6.487  18.364  0.00  0.00    +0.000 A 
ATOM     19  C   UNL     1       3.985   7.319  17.652  0.00  0.00    +0.000 A 
ATOM     20  C   UNL     1       4.851   6.796  16.671  0.00  0.00    +0.000 A 
ATOM     21  C   UNL     1       4.866   5.432  16.369  0.00  0.00    +0.000 A 
ATOM     22  C   UNL     1       4.005   4.578  17.043  0.00  0.00    +0.000 A 
ATOM     23  C   UNL     1       3.143   5.105  18.021  0.00  0.00    +0.000 A 
ATOM     24 CL   UNL     1       2.115   3.968  18.838  0.00  0.00    +0.000 Cl
ENDBRANCH  16  18
ENDBRANCH  12  16
ENDBRANCH   5   7
BRANCH   1  26
ATOM     25  O   UNL     1      -5.829  14.224  21.245  0.00  0.00    +0.000 OA
ATOM     26  C   UNL     1      -4.893  13.617  20.758  0.00  0.00    +0.000 C 
ATOM     27  N   UNL     1      -4.964  13.037  19.491  0.00  0.00    +0.000 N 
ATOM     28  H   UNL     1      -4.303  12.326  19.224  0.00  0.00    +0.000 HD
BRANCH  27  29
ATOM     29  C   UNL     1      -6.178  13.169  18.697  0.00  0.00    +0.000 C 
BRANCH  29  30
ATOM     30  C   UNL     1      -6.264  12.068  17.648  0.00  0.00    +0.000 C 
BRANCH  30  31
ATOM     31  C   UNL     1      -5.047  11.134  17.684  0.00  0.00    +0.000 C 
BRANCH  31  32
ATOM     32  N   UNL     1      -3.865  11.731  17.033  0.00  0.00    +0.000 NA
ATOM     33  C   UNL     1      -3.744  11.294  15.621  0.00  0.00    +0.000 C 
ATOM     34  C   UNL     1      -3.303   9.826  15.468  0.00  0.00    +0.000 C 
ATOM     35  O   UNL     1      -2.070   9.571  16.152  0.00  0.00    +0.000 OA
ATOM     36  C   UNL     1      -2.151   9.944  17.533  0.00  0.00    +0.000 C 
ATOM     37  C   UNL     1      -2.583  11.410  17.698  0.00  0.00    +0.000 C 
ENDBRANCH  31  32
ENDBRANCH  30  31
ENDBRANCH  29  30
ENDBRANCH  27  29
ENDBRANCH   1  26
TORSDOF 8
ENDMDL
MODEL 2
REMARK VINA RESULT:      -8.0      3.266      4.823
REMARK  Name = 
REMARK  8 active torsions:
REMARK  status: ('A' for Active; 'I' for Inactive)
REMARK    1  A    between atoms: C_2  and  C_13
REMARK    2  A    between atoms: N_3  and  C_4
REMARK    3  A    between atoms: C_4  and  C_5
REMARK    4  A    between atoms: C_5  and  C_6
REMARK    5  A    between atoms: C_6  and  N_7
REMARK    6  A    between atoms: C_17  and  N_18
REMARK    7  A    between atoms: C_23  and  N_24
REMARK    8  A    between atoms: N_24  and  C_25
REMARK                            x       y       z     vdW  Elec       q    Type
REMARK                         _______ _______ _______ _____ _____    ______ ____
ROOT
ATOM      1  C   UNL     1      -1.016  11.331  21.812  0.00  0.00    +0.000 A 
ATOM      2  C   UNL     1      -0.885  10.769  23.088  0.00  0.00    +0.000 A 
ATOM      3  C   UNL     1      -0.098   9.646  23.247  0.00  0.00    +0.000 A 
ATOM      4  C   UNL     1       0.534   9.093  22.123  0.00  0.00    +0.000 A 
ATOM      5  C   UNL     1       0.420   9.611  20.791  0.00  0.00    +0.000 A 
ATOM      6  C   UNL     1      -0.379  10.746  20.650  0.00  0.00    +0.000 A 
ENDROOT
BRANCH   5   7
ATOM      7  N   UNL     1       1.166   8.881  19.747  0.00  0.00    +0.000 N 
ATOM      8  N   UNL     1       1.210   9.590  18.573  0.00  0.00    +0.000 NA
ATOM      9  C   UNL     1       2.083   8.987  17.799  0.00  0.00    +0.000 A 
ATOM     10  C   UNL     1       2.576   7.822  18.361  0.00  0.00    +0.000 A 
ATOM     11  C   UNL     1       3.535   6.903  17.877  0.00  0.00    +0.000 A 
ATOM     12  C   UNL     1       3.847   5.711  18.530  0.00  0.00    +0.000 A 
ATOM     13  C   UNL     1       3.080   5.444  19.670  0.00  0.00    +0.000 A 
ATOM     14  C   UNL     1       2.127   6.405  20.240  0.00  0.00    +0.000 A 
ATOM     15  C   UNL     1       1.891   7.647  19.575  0.00  0.00    +0.000 A 
BRANCH  12  16
ATOM     16  N   UNL     1       4.879   4.947  17.930  0.00  0.00    +0.000 N 
ATOM     17  H   UNL     1       5.425   4.459  18.641  0.00  0.00    +0.000 HD
BRANCH  16  18
ATOM     18  C   UNL     1       5.558   4.814  16.696  0.00  0.00    +0.000 A 
ATOM     19  C   UNL     1       5.120   3.996  15.657  0.00  0.00    +0.000 A 
ATOM     20  C   UNL     1       5.816   3.946  14.432  0.00  0.00    +0.000 A 
ATOM     21  C   UNL     1       6.973   4.701  14.223  0.00  0.00    +0.000 A 
ATOM     22  C   UNL     1       7.450   5.510  15.245  0.00  0.00    +0.000 A 
ATOM     23  C   UNL     1       6.752   5.555  16.465  0.00  0.00    +0.000 A 
ATOM     24 CL   UNL     1       7.398   6.610  17.685  0.00  0.00    +0.000 Cl
ENDBRANCH  16  18
ENDBRANCH  12  16
ENDBRANCH   5   7
BRANCH   1  26
ATOM     25  O   UNL     1      -2.864  12.420  20.884  0.00  0.00    +0.000 OA
ATOM     26  C   UNL     1      -1.903  12.514  21.624  0.00  0.00    +0.000 C 
ATOM     27  N   UNL     1      -1.611  13.693  22.313  0.00  0.00    +0.000 N 
ATOM     28  H   UNL     1      -0.690  13.840  22.692  0.00  0.00    +0.000 HD
BRANCH  27  29
ATOM     29  C   UNL     1      -2.483  14.851  22.176  0.00  0.00    +0.000 C 
BRANCH  29  30
ATOM     30  C   UNL     1      -2.060  15.714  20.995  0.00  0.00    +0.000 C 
BRANCH  30  31
ATOM     31  C   UNL     1      -0.598  15.474  20.594  0.00  0.00    +0.000 C 
BRANCH  31  32
ATOM     32  N   UNL     1      -0.428  15.379  19.131  0.00  0.00    +0.000 NA
ATOM     33  C   UNL     1      -0.019  14.014  18.721  0.00  0.00    +0.000 C 
ATOM     34  C   UNL     1       1.436  13.671  19.088  0.00  0.00    +0.000 C 
ATOM     35  O   UNL     1       2.356  14.626  18.544  0.00  0.00    +0.000 OA
ATOM     36  C   UNL     1       2.024  15.960  18.946  0.00  0.00    +0.000 C 
ATOM     37  C   UNL     1       0.574  16.316  18.578  0.00  0.00    +0.000 C 
ENDBRANCH  31  32
ENDBRANCH  30  31
ENDBRANCH  29  30
ENDBRANCH  27  29
ENDBRANCH   1  26
TORSDOF 8
ENDMDL
MODEL 3
REMARK VINA RESULT:      -7.9      3.598      5.458
REMARK  Name = 
REMARK  8 active torsions:
REMARK  status: ('A' for Active; 'I' for Inactive)
REMARK    1  A    between atoms: C_2  and  C_13
REMARK    2  A    between atoms: N_3  and  C_4
REMARK    3  A    between atoms: C_4  and  C_5
REMARK    4  A    between atoms: C_5  and  C_6
REMARK    5  A    between atoms: C_6  and  N_7
REMARK    6  A    between atoms: C_17  and  N_18
REMARK    7  A    between atoms: C_23  and  N_24
REMARK    8  A    between atoms: N_24  and  C_25
REMARK                            x       y       z     vdW  Elec       q    Type
REMARK                         _______ _______ _______ _____ _____    ______ ____
ROOT
ATOM      1  C   UNL     1      -0.631  11.545  21.905  0.00  0.00    +0.000 A 
ATOM      2  C   UNL     1      -0.811  10.818  23.088  0.00  0.00    +0.000 A 
ATOM      3  C   UNL     1      -0.321   9.530  23.164  0.00  0.00    +0.000 A 
ATOM      4  C   UNL     1       0.327   8.982  22.047  0.00  0.00    +0.000 A 
ATOM      5  C   UNL     1       0.521   9.669  20.803  0.00  0.00    +0.000 A 
ATOM      6  C   UNL     1       0.020  10.969  20.747  0.00  0.00    +0.000 A 
ENDROOT
BRANCH   5   7
ATOM      7  N   UNL     1       1.230   8.913  19.751  0.00  0.00    +0.000 N 
ATOM      8  N   UNL     1       1.238   9.598  18.561  0.00  0.00    +0.000 NA
ATOM      9  C   UNL     1       2.083   8.974  17.773  0.00  0.00    +0.000 A 
ATOM     10  C   UNL     1       2.588   7.819  18.342  0.00  0.00    +0.000 A 
ATOM     11  C   UNL     1       3.527   6.885  17.847  0.00  0.00    +0.000 A 
ATOM     12  C   UNL     1       3.856   5.706  18.514  0.00  0.00    +0.000 A 
ATOM     13  C   UNL     1       3.126   5.466  19.683  0.00  0.00    +0.000 A 
ATOM     14  C   UNL     1       2.196   6.444  20.264  0.00  0.00    +0.000 A 
ATOM     15  C   UNL     1       1.943   7.672  19.582  0.00  0.00    +0.000 A 
BRANCH  12  16
ATOM     16  N   UNL     1       4.864   4.925  17.896  0.00  0.00    +0.000 N 
ATOM     17  H   UNL     1       5.413   4.426  18.598  0.00  0.00    +0.000 HD
BRANCH  16  18
ATOM     18  C   UNL     1       5.520   4.780  16.651  0.00  0.00    +0.000 A 
ATOM     19  C   UNL     1       5.043   3.983  15.614  0.00  0.00    +0.000 A 
ATOM     20  C   UNL     1       5.718   3.922  14.378  0.00  0.00    +0.000 A 
ATOM     21  C   UNL     1       6.894   4.644  14.156  0.00  0.00    +0.000 A 
ATOM     22  C   UNL     1       7.410   5.430  15.177  0.00  0.00    +0.000 A 
ATOM     23  C   UNL     1       6.732   5.488  16.407  0.00  0.00    +0.000 A 
ATOM     24 CL   UNL     1       7.427   6.514  17.624  0.00  0.00    +0.000 Cl
ENDBRANCH  16  18
ENDBRANCH  12  16
ENDBRANCH   5   7
BRANCH   1  26
ATOM     25  O   UNL     1      -2.340  13.057  21.395  0.00  0.00    +0.000 OA
ATOM     26  C   UNL     1      -1.200  12.919  21.799  0.00  0.00    +0.000 C 
ATOM     27  N   UNL     1      -0.411  14.006  22.179  0.00  0.00    +0.000 N 
ATOM     28  H   UNL     1       0.588  13.905  22.246  0.00  0.00    +0.000 HD
BRANCH  27  29
ATOM     29  C   UNL     1      -0.956  15.356  22.121  0.00  0.00    +0.000 C 
BRANCH  29  30
ATOM     30  C   UNL     1       0.126  16.363  21.756  0.00  0.00    +0.000 C 
BRANCH  30  31
ATOM     31  C   UNL     1       1.247  15.735  20.918  0.00  0.00    +0.000 C 
BRANCH  31  32
ATOM     32  N   UNL     1       0.852  15.542  19.509  0.00  0.00    +0.000 NA
ATOM     33  C   UNL     1       2.003  15.122  18.675  0.00  0.00    +0.000 C 
ATOM     34  C   UNL     1       3.019  16.250  18.417  0.00  0.00    +0.000 C 
ATOM     35  O   UNL     1       2.396  17.396  17.824  0.00  0.00    +0.000 OA
ATOM     36  C   UNL     1       1.297  17.863  18.617  0.00  0.00    +0.000 C 
ATOM     37  C   UNL     1       0.273  16.747  18.875  0.00  0.00    +0.000 C 
ENDBRANCH  31  32
ENDBRANCH  30  31
ENDBRANCH  29  30
ENDBRANCH  27  29
ENDBRANCH   1  26
TORSDOF 8
ENDMDL
MODEL 4
REMARK VINA RESULT:      -7.9      4.307     10.095
REMARK  Name = 
REMARK  8 active torsions:
REMARK  status: ('A' for Active; 'I' for Inactive)
REMARK    1  A    between atoms: C_2  and  C_13
REMARK    2  A    between atoms: N_3  and  C_4
REMARK    3  A    between atoms: C_4  and  C_5
REMARK    4  A    between atoms: C_5  and  C_6
REMARK    5  A    between atoms: C_6  and  N_7
REMARK    6  A    between atoms: C_17  and  N_18
REMARK    7  A    between atoms: C_23  and  N_24
REMARK    8  A    between atoms: N_24  and  C_25
REMARK                            x       y       z     vdW  Elec       q    Type
REMARK                         _______ _______ _______ _____ _____    ______ ____
ROOT
ATOM      1  C   UNL     1       2.624   7.596  18.878  0.00  0.00    +0.000 A 
ATOM      2  C   UNL     1       2.588   8.323  17.682  0.00  0.00    +0.000 A 
ATOM      3  C   UNL     1       1.812   9.462  17.614  0.00  0.00    +0.000 A 
ATOM      4  C   UNL     1       1.068   9.847  18.739  0.00  0.00    +0.000 A 
ATOM      5  C   UNL     1       1.047   9.132  19.982  0.00  0.00    +0.000 A 
ATOM      6  C   UNL     1       1.839   7.985  20.032  0.00  0.00    +0.000 A 
ENDROOT
BRANCH   5   7
ATOM      7  N   UNL     1       0.198   9.706  21.045  0.00  0.00    +0.000 N 
ATOM      8  N   UNL     1       0.317   9.002  22.217  0.00  0.00    +0.000 NA
ATOM      9  C   UNL     1      -0.271   9.718  23.148  0.00  0.00    +0.000 A 
ATOM     10  C   UNL     1      -0.882  10.851  22.642  0.00  0.00    +0.000 A 
ATOM     11  C   UNL     1      -1.591  11.883  23.297  0.00  0.00    +0.000 A 
ATOM     12  C   UNL     1      -2.239  12.915  22.619  0.00  0.00    +0.000 A 
ATOM     13  C   UNL     1      -2.208  12.814  21.224  0.00  0.00    +0.000 A 
ATOM     14  C   UNL     1      -1.425  11.798  20.509  0.00  0.00    +0.000 A 
ATOM     15  C   UNL     1      -0.716  10.802  21.247  0.00  0.00    +0.000 A 
BRANCH  12  16
ATOM     16  N   UNL     1      -2.843  13.894  23.446  0.00  0.00    +0.000 N 
ATOM     17  H   UNL     1      -2.484  13.831  24.399  0.00  0.00    +0.000 HD
BRANCH  16  18
ATOM     18  C   UNL     1      -3.947  14.780  23.457  0.00  0.00    +0.000 A 
ATOM     19  C   UNL     1      -3.857  16.131  23.134  0.00  0.00    +0.000 A 
ATOM     20  C   UNL     1      -5.005  16.949  23.116  0.00  0.00    +0.000 A 
ATOM     21  C   UNL     1      -6.266  16.438  23.434  0.00  0.00    +0.000 A 
ATOM     22  C   UNL     1      -6.388  15.100  23.784  0.00  0.00    +0.000 A 
ATOM     23  C   UNL     1      -5.240  14.289  23.801  0.00  0.00    +0.000 A 
ATOM     24 CL   UNL     1      -5.479  12.621  24.223  0.00  0.00    +0.000 Cl
ENDBRANCH  16  18
ENDBRANCH  12  16
ENDBRANCH   5   7
BRANCH   1  26
ATOM     25  O   UNL     1       3.456   5.715  19.989  0.00  0.00    +0.000 OA
ATOM     26  C   UNL     1       3.421   6.338  18.945  0.00  0.00    +0.000 C 
ATOM     27  N   UNL     1       4.095   5.906  17.801  0.00  0.00    +0.000 N 
ATOM     28  H   UNL     1       4.279   6.551  17.050  0.00  0.00    +0.000 HD
BRANCH  27  29
ATOM     29  C   UNL     1       4.850   4.660  17.828  0.00  0.00    +0.000 C 
BRANCH  29  30
ATOM     30  C   UNL     1       4.123   3.568  17.055  0.00  0.00    +0.000 C 
BRANCH  30  31
ATOM     31  C   UNL     1       2.619   3.543  17.358  0.00  0.00    +0.000 C 
BRANCH  31  32
ATOM     32  N   UNL     1       2.186   2.259  17.940  0.00  0.00    +0.000 NA
ATOM     33  C   UNL     1       0.894   2.394  18.654  0.00  0.00    +0.000 C 
ATOM     34  C   UNL     1       1.004   3.160  19.985  0.00  0.00    +0.000 C 
ATOM     35  O   UNL     1       1.970   2.561  20.860  0.00  0.00    +0.000 OA
ATOM     36  C   UNL     1       3.249   2.443  20.224  0.00  0.00    +0.000 C 
ATOM     37  C   UNL     1       3.152   1.675  18.897  0.00  0.00    +0.000 C 
ENDBRANCH  31  32
ENDBRANCH  30  31
ENDBRANCH  29  30
ENDBRANCH  27  29
ENDBRANCH   1  26
TORSDOF 8
ENDMDL
MODEL 5
REMARK VINA RESULT:      -7.9      4.387     10.464
REMARK  Name = 
REMARK  8 active torsions:
REMARK  status: ('A' for Active; 'I' for Inactive)
REMARK    1  A    between atoms: C_2  and  C_13
REMARK    2  A    between atoms: N_3  and  C_4
REMARK    3  A    between atoms: C_4  and  C_5
REMARK    4  A    between atoms: C_5  and  C_6
REMARK    5  A    between atoms: C_6  and  N_7
REMARK    6  A    between atoms: C_17  and  N_18
REMARK    7  A    between atoms: C_23  and  N_24
REMARK    8  A    between atoms: N_24  and  C_25
REMARK                            x       y       z     vdW  Elec       q    Type
REMARK                         _______ _______ _______ _____ _____    ______ ____
ROOT
ATOM      1  C   UNL     1       2.134   7.250  19.503  0.00  0.00    +0.000 A 
ATOM      2  C   UNL     1       2.477   7.879  18.301  0.00  0.00    +0.000 A 
ATOM      3  C   UNL     1       2.005   9.152  18.053  0.00  0.00    +0.000 A 
ATOM      4  C   UNL     1       1.180   9.770  19.005  0.00  0.00    +0.000 A 
ATOM      5  C   UNL     1       0.777   9.168  20.242  0.00  0.00    +0.000 A 
ATOM      6  C   UNL     1       1.266   7.882  20.476  0.00  0.00    +0.000 A 
ENDROOT
BRANCH   5   7
ATOM      7  N   UNL     1      -0.095   9.987  21.107  0.00  0.00    +0.000 N 
ATOM      8  N   UNL     1      -0.130   9.500  22.390  0.00  0.00    +0.000 NA
ATOM      9  C   UNL     1      -0.720  10.415  23.125  0.00  0.00    +0.000 A 
ATOM     10  C   UNL     1      -1.184  11.481  22.376  0.00  0.00    +0.000 A 
ATOM     11  C   UNL     1      -1.843  12.666  22.775  0.00  0.00    +0.000 A 
ATOM     12  C   UNL     1      -2.340  13.605  21.871  0.00  0.00    +0.000 A 
ATOM     13  C   UNL     1      -2.212  13.251  20.524  0.00  0.00    +0.000 A 
ATOM     14  C   UNL     1      -1.473  12.066  20.071  0.00  0.00    +0.000 A 
ATOM     15  C   UNL     1      -0.917  11.169  21.032  0.00  0.00    +0.000 A 
BRANCH  12  16
ATOM     16  N   UNL     1      -2.914  14.761  22.458  0.00  0.00    +0.000 N 
ATOM     17  H   UNL     1      -3.620  15.164  21.841  0.00  0.00    +0.000 HD
BRANCH  16  18
ATOM     18  C   UNL     1      -2.678  15.682  23.505  0.00  0.00    +0.000 A 
ATOM     19  C   UNL     1      -1.413  16.146  23.857  0.00  0.00    +0.000 A 
ATOM     20  C   UNL     1      -1.250  17.103  24.879  0.00  0.00    +0.000 A 
ATOM     21  C   UNL     1      -2.347  17.607  25.583  0.00  0.00    +0.000 A 
ATOM     22  C   UNL     1      -3.621  17.148  25.274  0.00  0.00    +0.000 A 
ATOM     23  C   UNL     1      -3.776  16.194  24.254  0.00  0.00    +0.000 A 
ATOM     24 CL   UNL     1      -5.403  15.690  23.910  0.00  0.00    +0.000 Cl
ENDBRANCH  16  18
ENDBRANCH  12  16
ENDBRANCH   5   7
BRANCH   1  26
ATOM     25  O   UNL     1       2.421   5.365  20.856  0.00  0.00    +0.000 OA
ATOM     26  C   UNL     1       2.600   5.857  19.758  0.00  0.00    +0.000 C 
ATOM     27  N   UNL     1       3.217   5.153  18.722  0.00  0.00    +0.000 N 
ATOM     28  H   UNL     1       3.595   5.648  17.931  0.00  0.00    +0.000 HD
BRANCH  27  29
ATOM     29  C   UNL     1       3.647   3.778  18.932  0.00  0.00    +0.000 C 
BRANCH  29  30
ATOM     30  C   UNL     1       5.166   3.675  18.916  0.00  0.00    +0.000 C 
BRANCH  30  31
ATOM     31  C   UNL     1       5.844   5.043  19.068  0.00  0.00    +0.000 C 
BRANCH  31  32
ATOM     32  N   UNL     1       7.271   5.006  18.693  0.00  0.00    +0.000 NA
ATOM     33  C   UNL     1       7.872   6.361  18.714  0.00  0.00    +0.000 C 
ATOM     34  C   UNL     1       7.411   7.257  17.550  0.00  0.00    +0.000 C 
ATOM     35  O   UNL     1       7.664   6.644  16.280  0.00  0.00    +0.000 OA
ATOM     36  C   UNL     1       7.068   5.343  16.198  0.00  0.00    +0.000 C 
ATOM     37  C   UNL     1       7.527   4.438  17.352  0.00  0.00    +0.000 C 
ENDBRANCH  31  32
ENDBRANCH  30  31
ENDBRANCH  29  30
ENDBRANCH  27  29
ENDBRANCH   1  26
TORSDOF 8
ENDMDL
MODEL 6
REMARK VINA RESULT:      -7.9      4.352     10.027
REMARK  Name = 
REMARK  8 active torsions:
REMARK  status: ('A' for Active; 'I' for Inactive)
REMARK    1  A    between atoms: C_2  and  C_13
REMARK    2  A    between atoms: N_3  and  C_4
REMARK    3  A    between atoms: C_4  and  C_5
REMARK    4  A    between atoms: C_5  and  C_6
REMARK    5  A    between atoms: C_6  and  N_7
REMARK    6  A    between atoms: C_17  and  N_18
REMARK    7  A    between atoms: C_23  and  N_24
REMARK    8  A    between atoms: N_24  and  C_25
REMARK                            x       y       z     vdW  Elec       q    Type
REMARK                         _______ _______ _______ _____ _____    ______ ____
ROOT
ATOM      1  C   UNL     1       2.454   7.239  19.399  0.00  0.00    +0.000 A 
ATOM      2  C   UNL     1       2.823   7.415  18.060  0.00  0.00    +0.000 A 
ATOM      3  C   UNL     1       2.397   8.545  17.391  0.00  0.00    +0.000 A 
ATOM      4  C   UNL     1       1.594   9.475  18.068  0.00  0.00    +0.000 A 
ATOM      5  C   UNL     1       1.166   9.338  19.430  0.00  0.00    +0.000 A 
ATOM      6  C   UNL     1       1.607   8.191  20.089  0.00  0.00    +0.000 A 
ENDROOT
BRANCH   5   7
ATOM      7  N   UNL     1       0.322  10.430  19.955  0.00  0.00    +0.000 N 
ATOM      8  N   UNL     1       0.133  11.414  19.017  0.00  0.00    +0.000 NA
ATOM      9  C   UNL     1      -0.809  12.202  19.482  0.00  0.00    +0.000 A 
ATOM     10  C   UNL     1      -1.212  11.855  20.758  0.00  0.00    +0.000 A 
ATOM     11  C   UNL     1      -2.200  12.420  21.596  0.00  0.00    +0.000 A 
ATOM     12  C   UNL     1      -2.414  12.008  22.911  0.00  0.00    +0.000 A 
ATOM     13  C   UNL     1      -1.519  11.040  23.378  0.00  0.00    +0.000 A 
ATOM     14  C   UNL     1      -0.528  10.380  22.519  0.00  0.00    +0.000 A 
ATOM     15  C   UNL     1      -0.392  10.785  21.156  0.00  0.00    +0.000 A 
BRANCH  12  16
ATOM     16  N   UNL     1      -3.491  12.647  23.575  0.00  0.00    +0.000 N 
ATOM     17  H   UNL     1      -3.859  12.051  24.318  0.00  0.00    +0.000 HD
BRANCH  16  18
ATOM     18  C   UNL     1      -4.383  13.732  23.409  0.00  0.00    +0.000 A 
ATOM     19  C   UNL     1      -5.463  13.718  22.529  0.00  0.00    +0.000 A 
ATOM     20  C   UNL     1      -6.345  14.814  22.448  0.00  0.00    +0.000 A 
ATOM     21  C   UNL     1      -6.160  15.956  23.232  0.00  0.00    +0.000 A 
ATOM     22  C   UNL     1      -5.080  16.013  24.103  0.00  0.00    +0.000 A 
ATOM     23  C   UNL     1      -4.203  14.916  24.180  0.00  0.00    +0.000 A 
ATOM     24 CL   UNL     1      -2.892  15.054  25.311  0.00  0.00    +0.000 Cl
ENDBRANCH  16  18
ENDBRANCH  12  16
ENDBRANCH   5   7
BRANCH   1  26
ATOM     25  O   UNL     1       3.959   5.516  19.875  0.00  0.00    +0.000 OA
ATOM     26  C   UNL     1       2.868   5.999  20.114  0.00  0.00    +0.000 C 
ATOM     27  N   UNL     1       1.996   5.435  21.047  0.00  0.00    +0.000 N 
ATOM     28  H   UNL     1       1.019   5.677  21.034  0.00  0.00    +0.000 HD
BRANCH  27  29
ATOM     29  C   UNL     1       2.392   4.245  21.787  0.00  0.00    +0.000 C 
BRANCH  29  30
ATOM     30  C   UNL     1       1.883   2.984  21.102  0.00  0.00    +0.000 C 
BRANCH  30  31
ATOM     31  C   UNL     1       2.947   2.341  20.202  0.00  0.00    +0.000 C 
BRANCH  31  32
ATOM     32  N   UNL     1       2.363   1.742  18.986  0.00  0.00    +0.000 NA
ATOM     33  C   UNL     1       3.312   1.791  17.848  0.00  0.00    +0.000 C 
ATOM     34  C   UNL     1       3.506   3.205  17.269  0.00  0.00    +0.000 C 
ATOM     35  O   UNL     1       2.258   3.788  16.872  0.00  0.00    +0.000 OA
ATOM     36  C   UNL     1       1.318   3.797  17.954  0.00  0.00    +0.000 C 
ATOM     37  C   UNL     1       1.112   2.389  18.536  0.00  0.00    +0.000 C 
ENDBRANCH  31  32
ENDBRANCH  30  31
ENDBRANCH  29  30
ENDBRANCH  27  29
ENDBRANCH   1  26
TORSDOF 8
ENDMDL
MODEL 7
REMARK VINA RESULT:      -7.8      2.494      3.895
REMARK  Name = 
REMARK  8 active torsions:
REMARK  status: ('A' for Active; 'I' for Inactive)
REMARK    1  A    between atoms: C_2  and  C_13
REMARK    2  A    between atoms: N_3  and  C_4
REMARK    3  A    between atoms: C_4  and  C_5
REMARK    4  A    between atoms: C_5  and  C_6
REMARK    5  A    between atoms: C_6  and  N_7
REMARK    6  A    between atoms: C_17  and  N_18
REMARK    7  A    between atoms: C_23  and  N_24
REMARK    8  A    between atoms: N_24  and  C_25
REMARK                            x       y       z     vdW  Elec       q    Type
REMARK                         _______ _______ _______ _____ _____    ______ ____
ROOT
ATOM      1  C   UNL     1      -0.909  12.218  21.767  0.00  0.00    +0.000 A 
ATOM      2  C   UNL     1      -0.083  13.348  21.780  0.00  0.00    +0.000 A 
ATOM      3  C   UNL     1       1.081  13.335  21.039  0.00  0.00    +0.000 A 
ATOM      4  C   UNL     1       1.410  12.184  20.308  0.00  0.00    +0.000 A 
ATOM      5  C   UNL     1       0.616  10.990  20.273  0.00  0.00    +0.000 A 
ATOM      6  C   UNL     1      -0.557  11.023  21.028  0.00  0.00    +0.000 A 
ENDROOT
BRANCH   5   7
ATOM      7  N   UNL     1       1.140   9.888  19.441  0.00  0.00    +0.000 N 
ATOM      8  N   UNL     1       1.234  10.257  18.123  0.00  0.00    +0.000 NA
ATOM      9  C   UNL     1       1.925   9.319  17.517  0.00  0.00    +0.000 A 
ATOM     10  C   UNL     1       2.229   8.259  18.352  0.00  0.00    +0.000 A 
ATOM     11  C   UNL     1       2.965   7.077  18.107  0.00  0.00    +0.000 A 
ATOM     12  C   UNL     1       3.095   6.051  19.041  0.00  0.00    +0.000 A 
ATOM     13  C   UNL     1       2.371   6.235  20.225  0.00  0.00    +0.000 A 
ATOM     14  C   UNL     1       1.655   7.477  20.543  0.00  0.00    +0.000 A 
ATOM     15  C   UNL     1       1.609   8.533  19.583  0.00  0.00    +0.000 A 
BRANCH  12  16
ATOM     16  N   UNL     1       3.923   4.972  18.641  0.00  0.00    +0.000 N 
ATOM     17  H   UNL     1       3.930   4.240  19.352  0.00  0.00    +0.000 HD
BRANCH  16  18
ATOM     18  C   UNL     1       4.929   4.665  17.695  0.00  0.00    +0.000 A 
ATOM     19  C   UNL     1       4.668   4.136  16.433  0.00  0.00    +0.000 A 
ATOM     20  C   UNL     1       5.713   3.899  15.517  0.00  0.00    +0.000 A 
ATOM     21  C   UNL     1       7.043   4.171  15.846  0.00  0.00    +0.000 A 
ATOM     22  C   UNL     1       7.341   4.676  17.104  0.00  0.00    +0.000 A 
ATOM     23  C   UNL     1       6.295   4.910  18.014  0.00  0.00    +0.000 A 
ATOM     24 CL   UNL     1       6.747   5.568  19.557  0.00  0.00    +0.000 Cl
ENDBRANCH  16  18
ENDBRANCH  12  16
ENDBRANCH   5   7
BRANCH   1  26
ATOM     25  O   UNL     1      -2.116  11.657  23.689  0.00  0.00    +0.000 OA
ATOM     26  C   UNL     1      -2.143  12.206  22.603  0.00  0.00    +0.000 C 
ATOM     27  N   UNL     1      -3.291  12.837  22.120  0.00  0.00    +0.000 N 
ATOM     28  H   UNL     1      -3.379  13.039  21.138  0.00  0.00    +0.000 HD
BRANCH  27  29
ATOM     29  C   UNL     1      -4.499  12.873  22.933  0.00  0.00    +0.000 C 
BRANCH  29  30
ATOM     30  C   UNL     1      -5.703  13.289  22.099  0.00  0.00    +0.000 C 
BRANCH  30  31
ATOM     31  C   UNL     1      -5.925  12.363  20.896  0.00  0.00    +0.000 C 
BRANCH  31  32
ATOM     32  N   UNL     1      -5.370  12.924  19.649  0.00  0.00    +0.000 NA
ATOM     33  C   UNL     1      -6.355  13.791  18.959  0.00  0.00    +0.000 C 
ATOM     34  C   UNL     1      -7.508  13.011  18.301  0.00  0.00    +0.000 C 
ATOM     35  O   UNL     1      -7.020  12.023  17.383  0.00  0.00    +0.000 OA
ATOM     36  C   UNL     1      -6.090  11.136  18.016  0.00  0.00    +0.000 C 
ATOM     37  C   UNL     1      -4.931  11.904  18.671  0.00  0.00    +0.000 C 
ENDBRANCH  31  32
ENDBRANCH  30  31
ENDBRANCH  29  30
ENDBRANCH  27  29
ENDBRANCH   1  26
TORSDOF 8
ENDMDL
MODEL 8
REMARK VINA RESULT:      -7.7      4.392     10.210
REMARK  Name = 
REMARK  8 active torsions:
REMARK  status: ('A' for Active; 'I' for Inactive)
REMARK    1  A    between atoms: C_2  and  C_13
REMARK    2  A    between atoms: N_3  and  C_4
REMARK    3  A    between atoms: C_4  and  C_5
REMARK    4  A    between atoms: C_5  and  C_6
REMARK    5  A    between atoms: C_6  and  N_7
REMARK    6  A    between atoms: C_17  and  N_18
REMARK    7  A    between atoms: C_23  and  N_24
REMARK    8  A    between atoms: N_24  and  C_25
REMARK                            x       y       z     vdW  Elec       q    Type
REMARK                         _______ _______ _______ _____ _____    ______ ____
ROOT
ATOM      1  C   UNL     1       2.250   7.599  18.969  0.00  0.00    +0.000 A 
ATOM      2  C   UNL     1       2.494   8.417  17.859  0.00  0.00    +0.000 A 
ATOM      3  C   UNL     1       1.959   9.689  17.834  0.00  0.00    +0.000 A 
ATOM      4  C   UNL     1       1.173  10.118  18.914  0.00  0.00    +0.000 A 
ATOM      5  C   UNL     1       0.871   9.319  20.066  0.00  0.00    +0.000 A 
ATOM      6  C   UNL     1       1.421   8.037  20.073  0.00  0.00    +0.000 A 
ENDROOT
BRANCH   5   7
ATOM      7  N   UNL     1       0.024   9.959  21.093  0.00  0.00    +0.000 N 
ATOM      8  N   UNL     1       0.066   9.268  22.278  0.00  0.00    +0.000 NA
ATOM      9  C   UNL     1      -0.507  10.032  23.180  0.00  0.00    +0.000 A 
ATOM     10  C   UNL     1      -1.035  11.190  22.639  0.00  0.00    +0.000 A 
ATOM     11  C   UNL     1      -1.701  12.273  23.257  0.00  0.00    +0.000 A 
ATOM     12  C   UNL     1      -2.266  13.330  22.543  0.00  0.00    +0.000 A 
ATOM     13  C   UNL     1      -2.198  13.205  21.152  0.00  0.00    +0.000 A 
ATOM     14  C   UNL     1      -1.455  12.133  20.476  0.00  0.00    +0.000 A 
ATOM     15  C   UNL     1      -0.829  11.110  21.251  0.00  0.00    +0.000 A 
BRANCH  12  16
ATOM     16  N   UNL     1      -2.837  14.356  23.337  0.00  0.00    +0.000 N 
ATOM     17  H   UNL     1      -3.652  14.008  23.843  0.00  0.00    +0.000 HD
BRANCH  16  18
ATOM     18  C   UNL     1      -2.801  15.762  23.489  0.00  0.00    +0.000 A 
ATOM     19  C   UNL     1      -3.212  16.657  22.505  0.00  0.00    +0.000 A 
ATOM     20  C   UNL     1      -3.198  18.047  22.738  0.00  0.00    +0.000 A 
ATOM     21  C   UNL     1      -2.760  18.575  23.956  0.00  0.00    +0.000 A 
ATOM     22  C   UNL     1      -2.321  17.712  24.951  0.00  0.00    +0.000 A 
ATOM     23  C   UNL     1      -2.337  16.327  24.712  0.00  0.00    +0.000 A 
ATOM     24 CL   UNL     1      -1.797  15.313  26.015  0.00  0.00    +0.000 Cl
ENDBRANCH  16  18
ENDBRANCH  12  16
ENDBRANCH   5   7
BRANCH   1  26
ATOM     25  O   UNL     1       3.709   5.936  19.723  0.00  0.00    +0.000 OA
ATOM     26  C   UNL     1       2.783   6.207  18.981  0.00  0.00    +0.000 C 
ATOM     27  N   UNL     1       2.194   5.252  18.150  0.00  0.00    +0.000 N 
ATOM     28  H   UNL     1       1.631   5.543  17.368  0.00  0.00    +0.000 HD
BRANCH  27  29
ATOM     29  C   UNL     1       2.670   3.876  18.172  0.00  0.00    +0.000 C 
BRANCH  29  30
ATOM     30  C   UNL     1       3.632   3.616  17.020  0.00  0.00    +0.000 C 
BRANCH  30  31
ATOM     31  C   UNL     1       5.100   3.699  17.459  0.00  0.00    +0.000 C 
BRANCH  31  32
ATOM     32  N   UNL     1       5.989   4.128  16.363  0.00  0.00    +0.000 NA
ATOM     33  C   UNL     1       7.280   4.640  16.880  0.00  0.00    +0.000 C 
ATOM     34  C   UNL     1       7.168   6.017  17.561  0.00  0.00    +0.000 C 
ATOM     35  O   UNL     1       6.586   6.992  16.686  0.00  0.00    +0.000 OA
ATOM     36  C   UNL     1       5.314   6.556  16.189  0.00  0.00    +0.000 C 
ATOM     37  C   UNL     1       5.416   5.186  15.501  0.00  0.00    +0.000 C 
ENDBRANCH  31  32
ENDBRANCH  30  31
ENDBRANCH  29  30
ENDBRANCH  27  29
ENDBRANCH   1  26
TORSDOF 8
ENDMDL
MODEL 9
REMARK VINA RESULT:      -7.6      4.125     10.355
REMARK  Name = 
REMARK  8 active torsions:
REMARK  status: ('A' for Active; 'I' for Inactive)
REMARK    1  A    between atoms: C_2  and  C_13
REMARK    2  A    between atoms: N_3  and  C_4
REMARK    3  A    between atoms: C_4  and  C_5
REMARK    4  A    between atoms: C_5  and  C_6
REMARK    5  A    between atoms: C_6  and  N_7
REMARK    6  A    between atoms: C_17  and  N_18
REMARK    7  A    between atoms: C_23  and  N_24
REMARK    8  A    between atoms: N_24  and  C_25
REMARK                            x       y       z     vdW  Elec       q    Type
REMARK                         _______ _______ _______ _____ _____    ______ ____
ROOT
ATOM      1  C   UNL     1       1.902   7.982  19.444  0.00  0.00    +0.000 A 
ATOM      2  C   UNL     1       2.491   8.290  18.212  0.00  0.00    +0.000 A 
ATOM      3  C   UNL     1       2.238   9.520  17.638  0.00  0.00    +0.000 A 
ATOM      4  C   UNL     1       1.385  10.417  18.298  0.00  0.00    +0.000 A 
ATOM      5  C   UNL     1       0.737  10.149  19.549  0.00  0.00    +0.000 A 
ATOM      6  C   UNL     1       1.006   8.902  20.114  0.00  0.00    +0.000 A 
ENDROOT
BRANCH   5   7
ATOM      7  N   UNL     1      -0.121  11.228  20.077  0.00  0.00    +0.000 N 
ATOM      8  N   UNL     1      -0.298  12.226  19.151  0.00  0.00    +0.000 NA
ATOM      9  C   UNL     1      -1.253  13.002  19.611  0.00  0.00    +0.000 A 
ATOM     10  C   UNL     1      -1.678  12.631  20.874  0.00  0.00    +0.000 A 
ATOM     11  C   UNL     1      -2.685  13.178  21.702  0.00  0.00    +0.000 A 
ATOM     12  C   UNL     1      -2.921  12.744  23.006  0.00  0.00    +0.000 A 
ATOM     13  C   UNL     1      -2.029  11.772  23.474  0.00  0.00    +0.000 A 
ATOM     14  C   UNL     1      -1.019  11.132  22.623  0.00  0.00    +0.000 A 
ATOM     15  C   UNL     1      -0.860  11.559  21.269  0.00  0.00    +0.000 A 
BRANCH  12  16
ATOM     16  N   UNL     1      -4.014  13.366  23.660  0.00  0.00    +0.000 N 
ATOM     17  H   UNL     1      -4.732  12.678  23.893  0.00  0.00    +0.000 HD
BRANCH  16  18
ATOM     18  C   UNL     1      -4.554  14.652  23.894  0.00  0.00    +0.000 A 
ATOM     19  C   UNL     1      -5.759  15.095  23.355  0.00  0.00    +0.000 A 
ATOM     20  C   UNL     1      -6.267  16.372  23.668  0.00  0.00    +0.000 A 
ATOM     21  C   UNL     1      -5.575  17.241  24.516  0.00  0.00    +0.000 A 
ATOM     22  C   UNL     1      -4.359  16.841  25.052  0.00  0.00    +0.000 A 
ATOM     23  C   UNL     1      -3.857  15.566  24.736  0.00  0.00    +0.000 A 
ATOM     24 CL   UNL     1      -2.343  15.130  25.467  0.00  0.00    +0.000 Cl
ENDBRANCH  16  18
ENDBRANCH  12  16
ENDBRANCH   5   7
BRANCH   1  26
ATOM     25  O   UNL     1       1.320   6.201  20.842  0.00  0.00    +0.000 OA
ATOM     26  C   UNL     1       2.131   6.638  20.047  0.00  0.00    +0.000 C 
ATOM     27  N   UNL     1       3.265   5.915  19.671  0.00  0.00    +0.000 N 
ATOM     28  H   UNL     1       4.043   6.386  19.240  0.00  0.00    +0.000 HD
BRANCH  27  29
ATOM     29  C   UNL     1       3.492   4.584  20.215  0.00  0.00    +0.000 C 
BRANCH  29  30
ATOM     30  C   UNL     1       4.249   3.712  19.222  0.00  0.00    +0.000 C 
BRANCH  30  31
ATOM     31  C   UNL     1       5.613   4.308  18.847  0.00  0.00    +0.000 C 
BRANCH  31  32
ATOM     32  N   UNL     1       5.911   4.163  17.409  0.00  0.00    +0.000 NA
ATOM     33  C   UNL     1       7.219   4.768  17.063  0.00  0.00    +0.000 C 
ATOM     34  C   UNL     1       7.210   6.308  17.084  0.00  0.00    +0.000 C 
ATOM     35  O   UNL     1       6.196   6.841  16.222  0.00  0.00    +0.000 OA
ATOM     36  C   UNL     1       4.904   6.312  16.544  0.00  0.00    +0.000 C 
ATOM     37  C   UNL     1       4.900   4.776  16.520  0.00  0.00    +0.000 C 
ENDBRANCH  31  32
ENDBRANCH  30  31
ENDBRANCH  29  30
ENDBRANCH  27  29
ENDBRANCH   1  26
TORSDOF 8
ENDMDL
