MODEL 1
REMARK VINA RESULT:      -4.7      0.000      0.000
REMARK  Name = 
REMARK  4 active torsions:
REMARK  status: ('A' for Active; 'I' for Inactive)
REMARK    1  A    between atoms: C_1  and  C_2
REMARK    2  A    between atoms: N_4  and  C_5
REMARK    3  A    between atoms: C_5  and  C_6
REMARK    4  A    between atoms: C_6  and  C_7
REMARK                            x       y       z     vdW  Elec       q    Type
REMARK                         _______ _______ _______ _____ _____    ______ ____
ROOT
ATOM      1  C   UNL     1       7.332   5.505  18.345  0.00  0.00    +0.000 C 
ENDROOT
BRANCH   1   2
ATOM      2  C   UNL     1       6.184   4.996  19.202  0.00  0.00    +0.000 C 
ATOM      3  C   UNL     1       4.851   5.751  19.006  0.00  0.00    +0.000 C 
ATOM      4  N   UNL     1       3.777   4.730  19.190  0.00  0.00    +0.000 NA
ATOM      5  C   UNL     1       4.421   3.610  19.056  0.00  0.00    +0.000 C 
ATOM      6  N   UNL     1       5.768   3.649  18.854  0.00  0.00    +0.000 N 
ATOM      7  H   UNL     1       6.314   2.887  19.238  0.00  0.00    +0.000 HD
ENDBRANCH   1   2
BRANCH   1   8
ATOM      8  C   UNL     1       6.803   6.343  17.180  0.00  0.00    +0.000 C 
BRANCH   8  12
ATOM      9  C   UNL     1       6.635   4.348  13.982  0.00  0.00    +0.000 C 
ATOM     10  C   UNL     1       6.174   4.924  15.292  0.00  0.00    +0.000 C 
ATOM     11  O   UNL     1       5.105   4.627  15.797  0.00  0.00    +0.000 OA
ATOM     12  N   UNL     1       7.104   5.747  15.889  0.00  0.00    +0.000 N 
ATOM     13  H   UNL     1       7.763   6.220  15.283  0.00  0.00    +0.000 HD
ENDBRANCH   8  12
ENDBRANCH   1   8
TORSDOF 3
ENDMDL
MODEL 2
REMARK VINA RESULT:      -4.7      1.932      2.937
REMARK  Name = 
REMARK  4 active torsions:
REMARK  status: ('A' for Active; 'I' for Inactive)
REMARK    1  A    between atoms: C_1  and  C_2
REMARK    2  A    between atoms: N_4  and  C_5
REMARK    3  A    between atoms: C_5  and  C_6
REMARK    4  A    between atoms: C_6  and  C_7
REMARK                            x       y       z     vdW  Elec       q    Type
REMARK                         _______ _______ _______ _____ _____    ______ ____
ROOT
ATOM      1  C   UNL     1       4.245   4.252  17.019  0.00  0.00    +0.000 C 
ENDROOT
BRANCH   1   2
ATOM      2  C   UNL     1       4.106   4.010  18.512  0.00  0.00    +0.000 C 
ATOM      3  C   UNL     1       2.774   3.353  18.937  0.00  0.00    +0.000 C 
ATOM      4  N   UNL     1       3.106   2.484  20.105  0.00  0.00    +0.000 NA
ATOM      5  C   UNL     1       4.397   2.363  20.014  0.00  0.00    +0.000 C 
ATOM      6  N   UNL     1       5.048   3.027  19.019  0.00  0.00    +0.000 N 
ATOM      7  H   UNL     1       5.987   3.352  19.220  0.00  0.00    +0.000 HD
ENDBRANCH   1   2
BRANCH   1   8
ATOM      8  C   UNL     1       5.720   4.316  16.617  0.00  0.00    +0.000 C 
BRANCH   8  12
ATOM      9  C   UNL     1       7.866   6.995  18.184  0.00  0.00    +0.000 C 
ATOM     10  C   UNL     1       7.354   5.611  17.892  0.00  0.00    +0.000 C 
ATOM     11  O   UNL     1       7.767   4.624  18.476  0.00  0.00    +0.000 OA
ATOM     12  N   UNL     1       6.333   5.586  16.967  0.00  0.00    +0.000 N 
ATOM     13  H   UNL     1       6.301   6.338  16.289  0.00  0.00    +0.000 HD
ENDBRANCH   8  12
ENDBRANCH   1   8
TORSDOF 3
ENDMDL
MODEL 3
REMARK VINA RESULT:      -4.7      1.454      1.561
REMARK  Name = 
REMARK  4 active torsions:
REMARK  status: ('A' for Active; 'I' for Inactive)
REMARK    1  A    between atoms: C_1  and  C_2
REMARK    2  A    between atoms: N_4  and  C_5
REMARK    3  A    between atoms: C_5  and  C_6
REMARK    4  A    between atoms: C_6  and  C_7
REMARK                            x       y       z     vdW  Elec       q    Type
REMARK                         _______ _______ _______ _____ _____    ______ ____
ROOT
ATOM      1  C   UNL     1       6.080   5.746  17.390  0.00  0.00    +0.000 C 
ENDROOT
BRANCH   1   2
ATOM      2  C   UNL     1       5.246   5.180  18.528  0.00  0.00    +0.000 C 
ATOM      3  C   UNL     1       3.787   4.840  18.150  0.00  0.00    +0.000 C 
ATOM      4  N   UNL     1       3.426   3.645  18.968  0.00  0.00    +0.000 NA
ATOM      5  C   UNL     1       4.585   3.192  19.342  0.00  0.00    +0.000 C 
ATOM      6  N   UNL     1       5.704   3.876  18.975  0.00  0.00    +0.000 N 
ATOM      7  H   UNL     1       6.486   3.861  19.620  0.00  0.00    +0.000 HD
ENDBRANCH   1   2
BRANCH   1   8
ATOM      8  C   UNL     1       7.042   4.686  16.849  0.00  0.00    +0.000 C 
BRANCH   8  12
ATOM      9  C   UNL     1       6.306   3.749  13.269  0.00  0.00    +0.000 C 
ATOM     10  C   UNL     1       6.942   4.486  14.415  0.00  0.00    +0.000 C 
ATOM     11  O   UNL     1       7.693   5.431  14.248  0.00  0.00    +0.000 OA
ATOM     12  N   UNL     1       6.533   4.038  15.653  0.00  0.00    +0.000 N 
ATOM     13  H   UNL     1       6.228   3.074  15.721  0.00  0.00    +0.000 HD
ENDBRANCH   8  12
ENDBRANCH   1   8
TORSDOF 3
ENDMDL
MODEL 4
REMARK VINA RESULT:      -4.6      2.591      5.000
REMARK  Name = 
REMARK  4 active torsions:
REMARK  status: ('A' for Active; 'I' for Inactive)
REMARK    1  A    between atoms: C_1  and  C_2
REMARK    2  A    between atoms: N_4  and  C_5
REMARK    3  A    between atoms: C_5  and  C_6
REMARK    4  A    between atoms: C_6  and  C_7
REMARK                            x       y       z     vdW  Elec       q    Type
REMARK                         _______ _______ _______ _____ _____    ______ ____
ROOT
ATOM      1  C   UNL     1       4.053   4.884  17.799  0.00  0.00    +0.000 C 
ENDROOT
BRANCH   1   2
ATOM      2  C   UNL     1       5.363   4.276  17.326  0.00  0.00    +0.000 C 
ATOM      3  C   UNL     1       6.027   5.018  16.143  0.00  0.00    +0.000 C 
ATOM      4  N   UNL     1       7.498   4.883  16.357  0.00  0.00    +0.000 NA
ATOM      5  C   UNL     1       7.577   4.546  17.609  0.00  0.00    +0.000 C 
ATOM      6  N   UNL     1       6.424   4.372  18.313  0.00  0.00    +0.000 N 
ATOM      7  H   UNL     1       6.432   3.671  19.046  0.00  0.00    +0.000 HD
ENDBRANCH   1   2
BRANCH   1   8
ATOM      8  C   UNL     1       4.035   5.006  19.324  0.00  0.00    +0.000 C 
BRANCH   8  12
ATOM      9  C   UNL     1       1.486   3.031  21.282  0.00  0.00    +0.000 C 
ATOM     10  C   UNL     1       2.134   4.232  20.650  0.00  0.00    +0.000 C 
ATOM     11  O   UNL     1       1.706   5.362  20.803  0.00  0.00    +0.000 OA
ATOM     12  N   UNL     1       3.286   3.933  19.955  0.00  0.00    +0.000 N 
ATOM     13  H   UNL     1       3.371   2.999  19.574  0.00  0.00    +0.000 HD
ENDBRANCH   8  12
ENDBRANCH   1   8
TORSDOF 3
ENDMDL
MODEL 5
REMARK VINA RESULT:      -4.6      2.130      3.888
REMARK  Name = 
REMARK  4 active torsions:
REMARK  status: ('A' for Active; 'I' for Inactive)
REMARK    1  A    between atoms: C_1  and  C_2
REMARK    2  A    between atoms: N_4  and  C_5
REMARK    3  A    between atoms: C_5  and  C_6
REMARK    4  A    between atoms: C_6  and  C_7
REMARK                            x       y       z     vdW  Elec       q    Type
REMARK                         _______ _______ _______ _____ _____    ______ ____
ROOT
ATOM      1  C   UNL     1       6.096   3.876  15.956  0.00  0.00    +0.000 C 
ENDROOT
BRANCH   1   2
ATOM      2  C   UNL     1       7.171   4.723  16.616  0.00  0.00    +0.000 C 
ATOM      3  C   UNL     1       6.779   6.200  16.842  0.00  0.00    +0.000 C 
ATOM      4  N   UNL     1       7.454   6.608  18.109  0.00  0.00    +0.000 NA
ATOM      5  C   UNL     1       7.752   5.468  18.656  0.00  0.00    +0.000 C 
ATOM      6  N   UNL     1       7.451   4.322  17.984  0.00  0.00    +0.000 N 
ATOM      7  H   UNL     1       8.077   3.535  18.112  0.00  0.00    +0.000 HD
ENDBRANCH   1   2
BRANCH   1   8
ATOM      8  C   UNL     1       4.728   4.161  16.578  0.00  0.00    +0.000 C 
BRANCH   8  12
ATOM      9  C   UNL     1       2.745   1.771  18.722  0.00  0.00    +0.000 C 
ATOM     10  C   UNL     1       3.007   2.805  17.661  0.00  0.00    +0.000 C 
ATOM     11  O   UNL     1       2.110   3.331  17.026  0.00  0.00    +0.000 OA
ATOM     12  N   UNL     1       4.337   3.145  17.541  0.00  0.00    +0.000 N 
ATOM     13  H   UNL     1       5.021   2.449  17.811  0.00  0.00    +0.000 HD
ENDBRANCH   8  12
ENDBRANCH   1   8
TORSDOF 3
ENDMDL
MODEL 6
REMARK VINA RESULT:      -4.6      2.596      5.103
REMARK  Name = 
REMARK  4 active torsions:
REMARK  status: ('A' for Active; 'I' for Inactive)
REMARK    1  A    between atoms: C_1  and  C_2
REMARK    2  A    between atoms: N_4  and  C_5
REMARK    3  A    between atoms: C_5  and  C_6
REMARK    4  A    between atoms: C_6  and  C_7
REMARK                            x       y       z     vdW  Elec       q    Type
REMARK                         _______ _______ _______ _____ _____    ______ ____
ROOT
ATOM      1  C   UNL     1       3.827   4.305  17.197  0.00  0.00    +0.000 C 
ENDROOT
BRANCH   1   2
ATOM      2  C   UNL     1       5.187   4.177  16.532  0.00  0.00    +0.000 C 
ATOM      3  C   UNL     1       5.653   5.439  15.772  0.00  0.00    +0.000 C 
ATOM      4  N   UNL     1       7.137   5.481  15.929  0.00  0.00    +0.000 NA
ATOM      5  C   UNL     1       7.342   4.678  16.931  0.00  0.00    +0.000 C 
ATOM      6  N   UNL     1       6.275   4.038  17.484  0.00  0.00    +0.000 N 
ATOM      7  H   UNL     1       6.438   3.111  17.861  0.00  0.00    +0.000 HD
ENDBRANCH   1   2
BRANCH   1   8
ATOM      8  C   UNL     1       3.384   2.962  17.781  0.00  0.00    +0.000 C 
BRANCH   8  12
ATOM      9  C   UNL     1       1.295   2.912  20.923  0.00  0.00    +0.000 C 
ATOM     10  C   UNL     1       1.643   2.697  19.476  0.00  0.00    +0.000 C 
ATOM     11  O   UNL     1       0.833   2.286  18.663  0.00  0.00    +0.000 OA
ATOM     12  N   UNL     1       2.927   3.081  19.155  0.00  0.00    +0.000 N 
ATOM     13  H   UNL     1       3.618   3.058  19.896  0.00  0.00    +0.000 HD
ENDBRANCH   8  12
ENDBRANCH   1   8
TORSDOF 3
ENDMDL
MODEL 7
REMARK VINA RESULT:      -4.6      2.330      4.965
REMARK  Name = 
REMARK  4 active torsions:
REMARK  status: ('A' for Active; 'I' for Inactive)
REMARK    1  A    between atoms: C_1  and  C_2
REMARK    2  A    between atoms: N_4  and  C_5
REMARK    3  A    between atoms: C_5  and  C_6
REMARK    4  A    between atoms: C_6  and  C_7
REMARK                            x       y       z     vdW  Elec       q    Type
REMARK                         _______ _______ _______ _____ _____    ______ ____
ROOT
ATOM      1  C   UNL     1       4.527   4.239  16.874  0.00  0.00    +0.000 C 
ENDROOT
BRANCH   1   2
ATOM      2  C   UNL     1       5.333   5.033  15.859  0.00  0.00    +0.000 C 
ATOM      3  C   UNL     1       6.796   5.309  16.273  0.00  0.00    +0.000 C 
ATOM      4  N   UNL     1       7.584   5.294  15.005  0.00  0.00    +0.000 NA
ATOM      5  C   UNL     1       6.784   4.689  14.178  0.00  0.00    +0.000 C 
ATOM      6  N   UNL     1       5.551   4.313  14.617  0.00  0.00    +0.000 N 
ATOM      7  H   UNL     1       4.797   4.328  13.940  0.00  0.00    +0.000 HD
ENDBRANCH   1   2
BRANCH   1   8
ATOM      8  C   UNL     1       3.596   5.161  17.664  0.00  0.00    +0.000 C 
BRANCH   8  12
ATOM      9  C   UNL     1       0.979   3.262  19.608  0.00  0.00    +0.000 C 
ATOM     10  C   UNL     1       1.627   3.932  18.427  0.00  0.00    +0.000 C 
ATOM     11  O   UNL     1       1.064   4.053  17.354  0.00  0.00    +0.000 OA
ATOM     12  N   UNL     1       2.872   4.454  18.706  0.00  0.00    +0.000 N 
ATOM     13  H   UNL     1       3.403   4.018  19.450  0.00  0.00    +0.000 HD
ENDBRANCH   8  12
ENDBRANCH   1   8
TORSDOF 3
ENDMDL
MODEL 8
REMARK VINA RESULT:      -4.6      2.411      5.070
REMARK  Name = 
REMARK  4 active torsions:
REMARK  status: ('A' for Active; 'I' for Inactive)
REMARK    1  A    between atoms: C_1  and  C_2
REMARK    2  A    between atoms: N_4  and  C_5
REMARK    3  A    between atoms: C_5  and  C_6
REMARK    4  A    between atoms: C_6  and  C_7
REMARK                            x       y       z     vdW  Elec       q    Type
REMARK                         _______ _______ _______ _____ _____    ______ ____
ROOT
ATOM      1  C   UNL     1       5.293   4.401  15.250  0.00  0.00    +0.000 C 
ENDROOT
BRANCH   1   2
ATOM      2  C   UNL     1       6.493   4.119  14.362  0.00  0.00    +0.000 C 
ATOM      3  C   UNL     1       6.140   3.622  12.942  0.00  0.00    +0.000 C 
ATOM      4  N   UNL     1       7.197   4.176  12.045  0.00  0.00    +0.000 NA
ATOM      5  C   UNL     1       7.716   5.124  12.766  0.00  0.00    +0.000 C 
ATOM      6  N   UNL     1       7.249   5.314  14.032  0.00  0.00    +0.000 N 
ATOM      7  H   UNL     1       7.914   5.642  14.724  0.00  0.00    +0.000 HD
ENDBRANCH   1   2
BRANCH   1   8
ATOM      8  C   UNL     1       5.425   5.771  15.917  0.00  0.00    +0.000 C 
BRANCH   8  12
ATOM      9  C   UNL     1       7.784   6.167  18.835  0.00  0.00    +0.000 C 
ATOM     10  C   UNL     1       7.229   6.373  17.453  0.00  0.00    +0.000 C 
ATOM     11  O   UNL     1       7.810   7.028  16.606  0.00  0.00    +0.000 OA
ATOM     12  N   UNL     1       6.053   5.691  17.224  0.00  0.00    +0.000 N 
ATOM     13  H   UNL     1       5.469   5.490  18.027  0.00  0.00    +0.000 HD
ENDBRANCH   8  12
ENDBRANCH   1   8
TORSDOF 3
ENDMDL
MODEL 9
REMARK VINA RESULT:      -4.5      2.289      4.372
REMARK  Name = 
REMARK  4 active torsions:
REMARK  status: ('A' for Active; 'I' for Inactive)
REMARK    1  A    between atoms: C_1  and  C_2
REMARK    2  A    between atoms: N_4  and  C_5
REMARK    3  A    between atoms: C_5  and  C_6
REMARK    4  A    between atoms: C_6  and  C_7
REMARK                            x       y       z     vdW  Elec       q    Type
REMARK                         _______ _______ _______ _____ _____    ______ ____
ROOT
ATOM      1  C   UNL     1       4.667   3.999  17.031  0.00  0.00    +0.000 C 
ENDROOT
BRANCH   1   2
ATOM      2  C   UNL     1       6.092   4.530  17.023  0.00  0.00    +0.000 C 
ATOM      3  C   UNL     1       6.205   6.068  16.935  0.00  0.00    +0.000 C 
ATOM      4  N   UNL     1       7.415   6.431  17.731  0.00  0.00    +0.000 NA
ATOM      5  C   UNL     1       7.616   5.365  18.448  0.00  0.00    +0.000 C 
ATOM      6  N   UNL     1       6.794   4.294  18.272  0.00  0.00    +0.000 N 
ATOM      7  H   UNL     1       7.201   3.375  18.403  0.00  0.00    +0.000 HD
ENDBRANCH   1   2
BRANCH   1   8
ATOM      8  C   UNL     1       3.700   5.061  17.558  0.00  0.00    +0.000 C 
BRANCH   8  12
ATOM      9  C   UNL     1       1.019   3.666  19.817  0.00  0.00    +0.000 C 
ATOM     10  C   UNL     1       1.693   4.064  18.533  0.00  0.00    +0.000 C 
ATOM     11  O   UNL     1       1.140   3.977  17.451  0.00  0.00    +0.000 OA
ATOM     12  N   UNL     1       2.949   4.600  18.713  0.00  0.00    +0.000 N 
ATOM     13  H   UNL     1       3.464   4.313  19.537  0.00  0.00    +0.000 HD
ENDBRANCH   8  12
ENDBRANCH   1   8
TORSDOF 3
ENDMDL
