MODEL 1
REMARK VINA RESULT:      -8.3      0.000      0.000
REMARK  Name = 
REMARK  5 active torsions:
REMARK  status: ('A' for Active; 'I' for Inactive)
REMARK    1  A    between atoms: C_2  and  C_3
REMARK    2  A    between atoms: C_2  and  C_23
REMARK    3  A    between atoms: C_13  and  C_14
REMARK    4  A    between atoms: C_14  and  C_15
REMARK    5  A    between atoms: C_15  and  C_17
REMARK                            x       y       z     vdW  Elec       q    Type
REMARK                         _______ _______ _______ _____ _____    ______ ____
ROOT
ATOM      1  C   UNL     1       1.065   9.624  19.312  0.00  0.00    +0.000 C 
ATOM      2  C   UNL     1      -0.014  10.299  18.887  0.00  0.00    +0.000 C 
ATOM      3  N   UNL     1      -0.555  10.239  17.625  0.00  0.00    +0.000 N 
ATOM      4  C   UNL     1      -1.876  10.622  17.367  0.00  0.00    +0.000 A 
ATOM      5  N   UNL     1      -2.423  10.297  16.176  0.00  0.00    +0.000 NA
ATOM      6  C   UNL     1      -3.709  10.663  15.975  0.00  0.00    +0.000 A 
ATOM      7  C   UNL     1      -4.478  11.343  16.907  0.00  0.00    +0.000 A 
ATOM      8  C   UNL     1      -3.899  11.672  18.128  0.00  0.00    +0.000 A 
ATOM      9  C   UNL     1      -2.579  11.306  18.381  0.00  0.00    +0.000 A 
ATOM     10  N   UNL     1      -1.988  11.656  19.620  0.00  0.00    +0.000 NA
ATOM     11  C   UNL     1      -0.782  11.207  19.851  0.00  0.00    +0.000 C 
ATOM     12  H   UNL     1      -0.100   9.686  16.906  0.00  0.00    +0.000 HD
ENDROOT
BRANCH   1  14
ATOM     13  O   UNL     1       2.317   9.221  17.326  0.00  0.00    +0.000 OA
ATOM     14  C   UNL     1       1.891   8.794  18.393  0.00  0.00    +0.000 C 
BRANCH  14  15
ATOM     15  C   UNL     1       2.254   7.440  18.870  0.00  0.00    +0.000 A 
ATOM     16  C   UNL     1       3.015   6.609  18.039  0.00  0.00    +0.000 A 
ATOM     17  C   UNL     1       3.388   5.338  18.481  0.00  0.00    +0.000 A 
ATOM     18  C   UNL     1       2.986   4.892  19.740  0.00  0.00    +0.000 A 
ATOM     19  C   UNL     1       2.202   5.708  20.557  0.00  0.00    +0.000 A 
ATOM     20  C   UNL     1       1.835   6.983  20.125  0.00  0.00    +0.000 A 
ENDBRANCH  14  15
ENDBRANCH   1  14
BRANCH  11  21
ATOM     21  C   UNL     1      -0.113  11.703  21.119  0.00  0.00    +0.000 C 
BRANCH  21  22
ATOM     22  C   UNL     1      -0.882  11.361  22.369  0.00  0.00    +0.000 C 
ATOM     23  O   UNL     1      -0.857  10.214  22.815  0.00  0.00    +0.000 OA
BRANCH  22  24
ATOM     24  C   UNL     1      -1.698  12.395  23.073  0.00  0.00    +0.000 A 
ATOM     25  C   UNL     1      -2.990  12.030  23.477  0.00  0.00    +0.000 A 
ATOM     26  C   UNL     1      -3.794  12.927  24.182  0.00  0.00    +0.000 A 
ATOM     27  C   UNL     1      -3.312  14.196  24.493  0.00  0.00    +0.000 A 
ATOM     28  C   UNL     1      -2.031  14.570  24.092  0.00  0.00    +0.000 A 
ATOM     29  C   UNL     1      -1.223  13.675  23.381  0.00  0.00    +0.000 A 
ENDBRANCH  22  24
ENDBRANCH  21  22
ENDBRANCH  11  21
TORSDOF 5
ENDMDL
MODEL 2
REMARK VINA RESULT:      -8.3      0.157      1.300
REMARK  Name = 
REMARK  5 active torsions:
REMARK  status: ('A' for Active; 'I' for Inactive)
REMARK    1  A    between atoms: C_2  and  C_3
REMARK    2  A    between atoms: C_2  and  C_23
REMARK    3  A    between atoms: C_13  and  C_14
REMARK    4  A    between atoms: C_14  and  C_15
REMARK    5  A    between atoms: C_15  and  C_17
REMARK                            x       y       z     vdW  Elec       q    Type
REMARK                         _______ _______ _______ _____ _____    ______ ____
ROOT
ATOM      1  C   UNL     1       1.113   9.512  19.299  0.00  0.00    +0.000 C 
ATOM      2  C   UNL     1       0.039  10.209  18.895  0.00  0.00    +0.000 C 
ATOM      3  N   UNL     1      -0.508  10.185  17.635  0.00  0.00    +0.000 N 
ATOM      4  C   UNL     1      -1.826  10.588  17.392  0.00  0.00    +0.000 A 
ATOM      5  N   UNL     1      -2.381  10.297  16.196  0.00  0.00    +0.000 NA
ATOM      6  C   UNL     1      -3.664  10.682  16.010  0.00  0.00    +0.000 A 
ATOM      7  C   UNL     1      -4.422  11.347  16.961  0.00  0.00    +0.000 A 
ATOM      8  C   UNL     1      -3.834  11.640  18.187  0.00  0.00    +0.000 A 
ATOM      9  C   UNL     1      -2.517  11.255  18.425  0.00  0.00    +0.000 A 
ATOM     10  N   UNL     1      -1.917  11.569  19.669  0.00  0.00    +0.000 NA
ATOM     11  C   UNL     1      -0.715  11.101  19.884  0.00  0.00    +0.000 C 
ATOM     12  H   UNL     1      -0.062   9.645  16.901  0.00  0.00    +0.000 HD
ENDROOT
BRANCH   1  14
ATOM     13  O   UNL     1       2.355   9.146  17.301  0.00  0.00    +0.000 OA
ATOM     14  C   UNL     1       1.926   8.696  18.357  0.00  0.00    +0.000 C 
BRANCH  14  15
ATOM     15  C   UNL     1       2.272   7.325  18.798  0.00  0.00    +0.000 A 
ATOM     16  C   UNL     1       1.923   6.921  20.092  0.00  0.00    +0.000 A 
ATOM     17  C   UNL     1       2.219   5.625  20.518  0.00  0.00    +0.000 A 
ATOM     18  C   UNL     1       2.877   4.742  19.662  0.00  0.00    +0.000 A 
ATOM     19  C   UNL     1       3.252   5.153  18.382  0.00  0.00    +0.000 A 
ATOM     20  C   UNL     1       2.950   6.445  17.947  0.00  0.00    +0.000 A 
ENDBRANCH  14  15
ENDBRANCH   1  14
BRANCH  11  21
ATOM     21  C   UNL     1      -0.035  11.560  21.160  0.00  0.00    +0.000 C 
BRANCH  21  22
ATOM     22  C   UNL     1      -0.820  11.228  22.403  0.00  0.00    +0.000 C 
ATOM     23  O   UNL     1      -0.787  10.089  22.870  0.00  0.00    +0.000 OA
BRANCH  22  24
ATOM     24  C   UNL     1      -1.663  12.262  23.076  0.00  0.00    +0.000 A 
ATOM     25  C   UNL     1      -1.097  13.531  23.265  0.00  0.00    +0.000 A 
ATOM     26  C   UNL     1      -1.841  14.561  23.843  0.00  0.00    +0.000 A 
ATOM     27  C   UNL     1      -3.158  14.333  24.233  0.00  0.00    +0.000 A 
ATOM     28  C   UNL     1      -3.728  13.074  24.054  0.00  0.00    +0.000 A 
ATOM     29  C   UNL     1      -2.984  12.037  23.478  0.00  0.00    +0.000 A 
ENDBRANCH  22  24
ENDBRANCH  21  22
ENDBRANCH  11  21
TORSDOF 5
ENDMDL
MODEL 3
REMARK VINA RESULT:      -8.3      3.354      9.060
REMARK  Name = 
REMARK  5 active torsions:
REMARK  status: ('A' for Active; 'I' for Inactive)
REMARK    1  A    between atoms: C_2  and  C_3
REMARK    2  A    between atoms: C_2  and  C_23
REMARK    3  A    between atoms: C_13  and  C_14
REMARK    4  A    between atoms: C_14  and  C_15
REMARK    5  A    between atoms: C_15  and  C_17
REMARK                            x       y       z     vdW  Elec       q    Type
REMARK                         _______ _______ _______ _____ _____    ______ ____
ROOT
ATOM      1  C   UNL     1       1.884   8.280  19.259  0.00  0.00    +0.000 C 
ATOM      2  C   UNL     1       2.231   6.984  19.301  0.00  0.00    +0.000 C 
ATOM      3  N   UNL     1       1.962   6.112  20.329  0.00  0.00    +0.000 N 
ATOM      4  C   UNL     1       1.974   4.726  20.145  0.00  0.00    +0.000 A 
ATOM      5  N   UNL     1       1.452   3.941  21.112  0.00  0.00    +0.000 NA
ATOM      6  C   UNL     1       1.460   2.608  20.885  0.00  0.00    +0.000 A 
ATOM      7  C   UNL     1       1.966   2.017  19.737  0.00  0.00    +0.000 A 
ATOM      8  C   UNL     1       2.500   2.840  18.751  0.00  0.00    +0.000 A 
ATOM      9  C   UNL     1       2.505   4.220  18.939  0.00  0.00    +0.000 A 
ATOM     10  N   UNL     1       3.065   5.054  17.940  0.00  0.00    +0.000 NA
ATOM     11  C   UNL     1       2.958   6.345  18.115  0.00  0.00    +0.000 C 
ATOM     12  H   UNL     1       1.509   6.450  21.171  0.00  0.00    +0.000 HD
ENDROOT
BRANCH   1  14
ATOM     13  O   UNL     1       1.591   8.755  21.574  0.00  0.00    +0.000 OA
ATOM     14  C   UNL     1       1.249   8.967  20.417  0.00  0.00    +0.000 C 
BRANCH  14  15
ATOM     15  C   UNL     1       0.231   9.995  20.100  0.00  0.00    +0.000 A 
ATOM     16  C   UNL     1      -0.190  10.145  18.773  0.00  0.00    +0.000 A 
ATOM     17  C   UNL     1      -1.167  11.092  18.458  0.00  0.00    +0.000 A 
ATOM     18  C   UNL     1      -1.706  11.898  19.460  0.00  0.00    +0.000 A 
ATOM     19  C   UNL     1      -1.265  11.770  20.778  0.00  0.00    +0.000 A 
ATOM     20  C   UNL     1      -0.297  10.818  21.101  0.00  0.00    +0.000 A 
ENDBRANCH  14  15
ENDBRANCH   1  14
BRANCH  11  21
ATOM     21  C   UNL     1       3.680   7.220  17.109  0.00  0.00    +0.000 C 
BRANCH  21  22
ATOM     22  C   UNL     1       4.975   6.623  16.623  0.00  0.00    +0.000 C 
ATOM     23  O   UNL     1       5.031   6.085  15.516  0.00  0.00    +0.000 OA
BRANCH  22  24
ATOM     24  C   UNL     1       6.201   6.652  17.475  0.00  0.00    +0.000 A 
ATOM     25  C   UNL     1       7.023   7.784  17.382  0.00  0.00    +0.000 A 
ATOM     26  C   UNL     1       8.160   7.903  18.184  0.00  0.00    +0.000 A 
ATOM     27  C   UNL     1       8.482   6.895  19.088  0.00  0.00    +0.000 A 
ATOM     28  C   UNL     1       7.673   5.764  19.185  0.00  0.00    +0.000 A 
ATOM     29  C   UNL     1       6.535   5.639  18.381  0.00  0.00    +0.000 A 
ENDBRANCH  22  24
ENDBRANCH  21  22
ENDBRANCH  11  21
TORSDOF 5
ENDMDL
MODEL 4
REMARK VINA RESULT:      -8.1      3.305      9.047
REMARK  Name = 
REMARK  5 active torsions:
REMARK  status: ('A' for Active; 'I' for Inactive)
REMARK    1  A    between atoms: C_2  and  C_3
REMARK    2  A    between atoms: C_2  and  C_23
REMARK    3  A    between atoms: C_13  and  C_14
REMARK    4  A    between atoms: C_14  and  C_15
REMARK    5  A    between atoms: C_15  and  C_17
REMARK                            x       y       z     vdW  Elec       q    Type
REMARK                         _______ _______ _______ _____ _____    ______ ____
ROOT
ATOM      1  C   UNL     1       1.866   8.311  19.300  0.00  0.00    +0.000 C 
ATOM      2  C   UNL     1       2.222   7.016  19.286  0.00  0.00    +0.000 C 
ATOM      3  N   UNL     1       1.974   6.103  20.282  0.00  0.00    +0.000 N 
ATOM      4  C   UNL     1       1.991   4.724  20.043  0.00  0.00    +0.000 A 
ATOM      5  N   UNL     1       1.489   3.898  20.986  0.00  0.00    +0.000 NA
ATOM      6  C   UNL     1       1.502   2.575  20.706  0.00  0.00    +0.000 A 
ATOM      7  C   UNL     1       1.995   2.034  19.529  0.00  0.00    +0.000 A 
ATOM      8  C   UNL     1       2.510   2.899  18.569  0.00  0.00    +0.000 A 
ATOM      9  C   UNL     1       2.509   4.271  18.812  0.00  0.00    +0.000 A 
ATOM     10  N   UNL     1       3.049   5.147  17.839  0.00  0.00    +0.000 NA
ATOM     11  C   UNL     1       2.937   6.429  18.066  0.00  0.00    +0.000 C 
ATOM     12  H   UNL     1       1.530   6.403  21.143  0.00  0.00    +0.000 HD
ENDROOT
BRANCH   1  14
ATOM     13  O   UNL     1       1.589   8.676  21.637  0.00  0.00    +0.000 OA
ATOM     14  C   UNL     1       1.243   8.946  20.493  0.00  0.00    +0.000 C 
BRANCH  14  15
ATOM     15  C   UNL     1       0.233   9.998  20.231  0.00  0.00    +0.000 A 
ATOM     16  C   UNL     1      -0.243  10.762  21.303  0.00  0.00    +0.000 A 
ATOM     17  C   UNL     1      -1.178  11.774  21.072  0.00  0.00    +0.000 A 
ATOM     18  C   UNL     1      -1.648  12.008  19.780  0.00  0.00    +0.000 A 
ATOM     19  C   UNL     1      -1.197  11.226  18.716  0.00  0.00    +0.000 A 
ATOM     20  C   UNL     1      -0.255  10.220  18.938  0.00  0.00    +0.000 A 
ENDBRANCH  14  15
ENDBRANCH   1  14
BRANCH  11  21
ATOM     21  C   UNL     1       3.638   7.349  17.085  0.00  0.00    +0.000 C 
BRANCH  21  22
ATOM     22  C   UNL     1       4.961   6.808  16.605  0.00  0.00    +0.000 C 
ATOM     23  O   UNL     1       5.076   6.390  15.453  0.00  0.00    +0.000 OA
BRANCH  22  24
ATOM     24  C   UNL     1       6.141   6.748  17.518  0.00  0.00    +0.000 A 
ATOM     25  C   UNL     1       6.249   5.633  18.361  0.00  0.00    +0.000 A 
ATOM     26  C   UNL     1       7.349   5.485  19.206  0.00  0.00    +0.000 A 
ATOM     27  C   UNL     1       8.354   6.449  19.214  0.00  0.00    +0.000 A 
ATOM     28  C   UNL     1       8.255   7.564  18.384  0.00  0.00    +0.000 A 
ATOM     29  C   UNL     1       7.151   7.717  17.537  0.00  0.00    +0.000 A 
ENDBRANCH  22  24
ENDBRANCH  21  22
ENDBRANCH  11  21
TORSDOF 5
ENDMDL
MODEL 5
REMARK VINA RESULT:      -7.9      3.767      9.126
REMARK  Name = 
REMARK  5 active torsions:
REMARK  status: ('A' for Active; 'I' for Inactive)
REMARK    1  A    between atoms: C_2  and  C_3
REMARK    2  A    between atoms: C_2  and  C_23
REMARK    3  A    between atoms: C_13  and  C_14
REMARK    4  A    between atoms: C_14  and  C_15
REMARK    5  A    between atoms: C_15  and  C_17
REMARK                            x       y       z     vdW  Elec       q    Type
REMARK                         _______ _______ _______ _____ _____    ______ ____
ROOT
ATOM      1  C   UNL     1       1.940   8.369  18.775  0.00  0.00    +0.000 C 
ATOM      2  C   UNL     1       2.349   7.113  19.017  0.00  0.00    +0.000 C 
ATOM      3  N   UNL     1       2.121   6.401  20.170  0.00  0.00    +0.000 N 
ATOM      4  C   UNL     1       2.200   5.005  20.204  0.00  0.00    +0.000 A 
ATOM      5  N   UNL     1       1.715   4.356  21.285  0.00  0.00    +0.000 NA
ATOM      6  C   UNL     1       1.788   3.006  21.269  0.00  0.00    +0.000 A 
ATOM      7  C   UNL     1       2.325   2.269  20.225  0.00  0.00    +0.000 A 
ATOM      8  C   UNL     1       2.821   2.953  19.120  0.00  0.00    +0.000 A 
ATOM      9  C   UNL     1       2.759   4.344  19.090  0.00  0.00    +0.000 A 
ATOM     10  N   UNL     1       3.279   5.037  17.970  0.00  0.00    +0.000 NA
ATOM     11  C   UNL     1       3.109   6.333  17.942  0.00  0.00    +0.000 C 
ATOM     12  H   UNL     1       1.650   6.843  20.952  0.00  0.00    +0.000 HD
ENDROOT
BRANCH   1  14
ATOM     13  O   UNL     1       1.367   8.952  21.012  0.00  0.00    +0.000 OA
ATOM     14  C   UNL     1       1.270   9.196  19.816  0.00  0.00    +0.000 C 
BRANCH  14  15
ATOM     15  C   UNL     1       0.541  10.395  19.339  0.00  0.00    +0.000 A 
ATOM     16  C   UNL     1      -0.836  10.303  19.107  0.00  0.00    +0.000 A 
ATOM     17  C   UNL     1      -1.545  11.429  18.681  0.00  0.00    +0.000 A 
ATOM     18  C   UNL     1      -0.878  12.635  18.471  0.00  0.00    +0.000 A 
ATOM     19  C   UNL     1       0.501  12.720  18.673  0.00  0.00    +0.000 A 
ATOM     20  C   UNL     1       1.213  11.601  19.109  0.00  0.00    +0.000 A 
ENDBRANCH  14  15
ENDBRANCH   1  14
BRANCH  11  21
ATOM     21  C   UNL     1       3.790   7.074  16.807  0.00  0.00    +0.000 C 
BRANCH  21  22
ATOM     22  C   UNL     1       5.151   6.523  16.470  0.00  0.00    +0.000 C 
ATOM     23  O   UNL     1       5.316   5.876  15.435  0.00  0.00    +0.000 OA
BRANCH  22  24
ATOM     24  C   UNL     1       6.312   6.732  17.386  0.00  0.00    +0.000 A 
ATOM     25  C   UNL     1       6.628   5.692  18.272  0.00  0.00    +0.000 A 
ATOM     26  C   UNL     1       7.727   5.795  19.125  0.00  0.00    +0.000 A 
ATOM     27  C   UNL     1       8.524   6.937  19.098  0.00  0.00    +0.000 A 
ATOM     28  C   UNL     1       8.216   7.978  18.224  0.00  0.00    +0.000 A 
ATOM     29  C   UNL     1       7.111   7.880  17.370  0.00  0.00    +0.000 A 
ENDBRANCH  22  24
ENDBRANCH  21  22
ENDBRANCH  11  21
TORSDOF 5
ENDMDL
MODEL 6
REMARK VINA RESULT:      -7.9      5.747      8.928
REMARK  Name = 
REMARK  5 active torsions:
REMARK  status: ('A' for Active; 'I' for Inactive)
REMARK    1  A    between atoms: C_2  and  C_3
REMARK    2  A    between atoms: C_2  and  C_23
REMARK    3  A    between atoms: C_13  and  C_14
REMARK    4  A    between atoms: C_14  and  C_15
REMARK    5  A    between atoms: C_15  and  C_17
REMARK                            x       y       z     vdW  Elec       q    Type
REMARK                         _______ _______ _______ _____ _____    ______ ____
ROOT
ATOM      1  C   UNL     1       6.225   4.667  16.788  0.00  0.00    +0.000 C 
ATOM      2  C   UNL     1       5.414   5.435  17.534  0.00  0.00    +0.000 C 
ATOM      3  N   UNL     1       4.968   6.692  17.202  0.00  0.00    +0.000 N 
ATOM      4  C   UNL     1       3.832   7.253  17.795  0.00  0.00    +0.000 A 
ATOM      5  N   UNL     1       3.299   8.366  17.246  0.00  0.00    +0.000 NA
ATOM      6  C   UNL     1       2.188   8.863  17.834  0.00  0.00    +0.000 A 
ATOM      7  C   UNL     1       1.581   8.305  18.949  0.00  0.00    +0.000 A 
ATOM      8  C   UNL     1       2.144   7.159  19.502  0.00  0.00    +0.000 A 
ATOM      9  C   UNL     1       3.284   6.607  18.924  0.00  0.00    +0.000 A 
ATOM     10  N   UNL     1       3.863   5.450  19.499  0.00  0.00    +0.000 NA
ATOM     11  C   UNL     1       4.872   4.912  18.866  0.00  0.00    +0.000 C 
ATOM     12  H   UNL     1       5.296   7.136  16.351  0.00  0.00    +0.000 HD
ENDROOT
BRANCH   1  14
ATOM     13  O   UNL     1       7.719   6.017  15.517  0.00  0.00    +0.000 OA
ATOM     14  C   UNL     1       6.843   5.161  15.527  0.00  0.00    +0.000 C 
BRANCH  14  15
ATOM     15  C   UNL     1       6.407   4.501  14.274  0.00  0.00    +0.000 A 
ATOM     16  C   UNL     1       7.310   4.407  13.208  0.00  0.00    +0.000 A 
ATOM     17  C   UNL     1       6.926   3.768  12.028  0.00  0.00    +0.000 A 
ATOM     18  C   UNL     1       5.640   3.241  11.906  0.00  0.00    +0.000 A 
ATOM     19  C   UNL     1       4.729   3.362  12.957  0.00  0.00    +0.000 A 
ATOM     20  C   UNL     1       5.111   3.991  14.143  0.00  0.00    +0.000 A 
ENDBRANCH  14  15
ENDBRANCH   1  14
BRANCH  11  21
ATOM     21  C   UNL     1       5.565   3.758  19.565  0.00  0.00    +0.000 C 
BRANCH  21  22
ATOM     22  C   UNL     1       4.650   2.591  19.835  0.00  0.00    +0.000 C 
ATOM     23  O   UNL     1       5.120   1.501  20.160  0.00  0.00    +0.000 OA
BRANCH  22  24
ATOM     24  C   UNL     1       3.170   2.730  19.694  0.00  0.00    +0.000 A 
ATOM     25  C   UNL     1       2.442   3.066  20.845  0.00  0.00    +0.000 A 
ATOM     26  C   UNL     1       1.061   3.259  20.780  0.00  0.00    +0.000 A 
ATOM     27  C   UNL     1       0.396   3.122  19.565  0.00  0.00    +0.000 A 
ATOM     28  C   UNL     1       1.109   2.784  18.417  0.00  0.00    +0.000 A 
ATOM     29  C   UNL     1       2.494   2.585  18.478  0.00  0.00    +0.000 A 
ENDBRANCH  22  24
ENDBRANCH  21  22
ENDBRANCH  11  21
TORSDOF 5
ENDMDL
MODEL 7
REMARK VINA RESULT:      -7.9      3.501      9.295
REMARK  Name = 
REMARK  5 active torsions:
REMARK  status: ('A' for Active; 'I' for Inactive)
REMARK    1  A    between atoms: C_2  and  C_3
REMARK    2  A    between atoms: C_2  and  C_23
REMARK    3  A    between atoms: C_13  and  C_14
REMARK    4  A    between atoms: C_14  and  C_15
REMARK    5  A    between atoms: C_15  and  C_17
REMARK                            x       y       z     vdW  Elec       q    Type
REMARK                         _______ _______ _______ _____ _____    ______ ____
ROOT
ATOM      1  C   UNL     1       1.868   8.600  18.503  0.00  0.00    +0.000 C 
ATOM      2  C   UNL     1       2.368   7.406  18.861  0.00  0.00    +0.000 C 
ATOM      3  N   UNL     1       2.100   6.742  20.034  0.00  0.00    +0.000 N 
ATOM      4  C   UNL     1       2.304   5.364  20.167  0.00  0.00    +0.000 A 
ATOM      5  N   UNL     1       1.783   4.734  21.241  0.00  0.00    +0.000 NA
ATOM      6  C   UNL     1       1.982   3.399  21.320  0.00  0.00    +0.000 A 
ATOM      7  C   UNL     1       2.679   2.659  20.378  0.00  0.00    +0.000 A 
ATOM      8  C   UNL     1       3.210   3.324  19.278  0.00  0.00    +0.000 A 
ATOM      9  C   UNL     1       3.023   4.699  19.151  0.00  0.00    +0.000 A 
ATOM     10  N   UNL     1       3.579   5.375  18.038  0.00  0.00    +0.000 NA
ATOM     11  C   UNL     1       3.294   6.644  17.910  0.00  0.00    +0.000 C 
ATOM     12  H   UNL     1       1.519   7.179  20.741  0.00  0.00    +0.000 HD
ENDROOT
BRANCH   1  14
ATOM     13  O   UNL     1       1.285   9.526  20.618  0.00  0.00    +0.000 OA
ATOM     14  C   UNL     1       1.031   9.415  19.425  0.00  0.00    +0.000 C 
BRANCH  14  15
ATOM     15  C   UNL     1      -0.088  10.167  18.811  0.00  0.00    +0.000 A 
ATOM     16  C   UNL     1      -0.410  11.434  19.313  0.00  0.00    +0.000 A 
ATOM     17  C   UNL     1      -1.446  12.168  18.732  0.00  0.00    +0.000 A 
ATOM     18  C   UNL     1      -2.169  11.632  17.666  0.00  0.00    +0.000 A 
ATOM     19  C   UNL     1      -1.869  10.356  17.185  0.00  0.00    +0.000 A 
ATOM     20  C   UNL     1      -0.828   9.622  17.755  0.00  0.00    +0.000 A 
ENDBRANCH  14  15
ENDBRANCH   1  14
BRANCH  11  21
ATOM     21  C   UNL     1       4.006   7.383  16.793  0.00  0.00    +0.000 C 
BRANCH  21  22
ATOM     22  C   UNL     1       5.196   6.634  16.250  0.00  0.00    +0.000 C 
ATOM     23  O   UNL     1       5.241   6.328  15.058  0.00  0.00    +0.000 OA
BRANCH  22  24
ATOM     24  C   UNL     1       6.323   6.235  17.144  0.00  0.00    +0.000 A 
ATOM     25  C   UNL     1       7.050   7.262  17.763  0.00  0.00    +0.000 A 
ATOM     26  C   UNL     1       8.086   6.965  18.649  0.00  0.00    +0.000 A 
ATOM     27  C   UNL     1       8.404   5.639  18.927  0.00  0.00    +0.000 A 
ATOM     28  C   UNL     1       7.691   4.610  18.314  0.00  0.00    +0.000 A 
ATOM     29  C   UNL     1       6.653   4.904  17.422  0.00  0.00    +0.000 A 
ENDBRANCH  22  24
ENDBRANCH  21  22
ENDBRANCH  11  21
TORSDOF 5
ENDMDL
MODEL 8
REMARK VINA RESULT:      -7.8      3.211      9.225
REMARK  Name = 
REMARK  5 active torsions:
REMARK  status: ('A' for Active; 'I' for Inactive)
REMARK    1  A    between atoms: C_2  and  C_3
REMARK    2  A    between atoms: C_2  and  C_23
REMARK    3  A    between atoms: C_13  and  C_14
REMARK    4  A    between atoms: C_14  and  C_15
REMARK    5  A    between atoms: C_15  and  C_17
REMARK                            x       y       z     vdW  Elec       q    Type
REMARK                         _______ _______ _______ _____ _____    ______ ____
ROOT
ATOM      1  C   UNL     1       1.885   8.390  19.486  0.00  0.00    +0.000 C 
ATOM      2  C   UNL     1       2.240   7.097  19.409  0.00  0.00    +0.000 C 
ATOM      3  N   UNL     1       1.939   6.124  20.331  0.00  0.00    +0.000 N 
ATOM      4  C   UNL     1       1.969   4.763  20.007  0.00  0.00    +0.000 A 
ATOM      5  N   UNL     1       1.416   3.882  20.868  0.00  0.00    +0.000 NA
ATOM      6  C   UNL     1       1.444   2.579  20.507  0.00  0.00    +0.000 A 
ATOM      7  C   UNL     1       1.999   2.110  19.326  0.00  0.00    +0.000 A 
ATOM      8  C   UNL     1       2.566   3.032  18.452  0.00  0.00    +0.000 A 
ATOM      9  C   UNL     1       2.552   4.386  18.779  0.00  0.00    +0.000 A 
ATOM     10  N   UNL     1       3.144   5.319  17.894  0.00  0.00    +0.000 NA
ATOM     11  C   UNL     1       3.020   6.585  18.195  0.00  0.00    +0.000 C 
ATOM     12  H   UNL     1       1.450   6.372  21.185  0.00  0.00    +0.000 HD
ENDROOT
BRANCH   1  14
ATOM     13  O   UNL     1       1.504   8.632  21.824  0.00  0.00    +0.000 OA
ATOM     14  C   UNL     1       1.199   8.951  20.681  0.00  0.00    +0.000 C 
BRANCH  14  15
ATOM     15  C   UNL     1       0.176   9.993  20.429  0.00  0.00    +0.000 A 
ATOM     16  C   UNL     1      -0.274  10.197  19.119  0.00  0.00    +0.000 A 
ATOM     17  C   UNL     1      -1.255  11.157  18.864  0.00  0.00    +0.000 A 
ATOM     18  C   UNL     1      -1.771  11.923  19.910  0.00  0.00    +0.000 A 
ATOM     19  C   UNL     1      -1.301  11.741  21.212  0.00  0.00    +0.000 A 
ATOM     20  C   UNL     1      -0.327  10.775  21.474  0.00  0.00    +0.000 A 
ENDBRANCH  14  15
ENDBRANCH   1  14
BRANCH  11  21
ATOM     21  C   UNL     1       3.774   7.562  17.313  0.00  0.00    +0.000 C 
BRANCH  21  22
ATOM     22  C   UNL     1       4.877   6.914  16.517  0.00  0.00    +0.000 C 
ATOM     23  O   UNL     1       4.862   6.962  15.287  0.00  0.00    +0.000 OA
BRANCH  22  24
ATOM     24  C   UNL     1       5.991   6.190  17.200  0.00  0.00    +0.000 A 
ATOM     25  C   UNL     1       6.451   5.007  16.604  0.00  0.00    +0.000 A 
ATOM     26  C   UNL     1       7.520   4.301  17.158  0.00  0.00    +0.000 A 
ATOM     27  C   UNL     1       8.141   4.774  18.311  0.00  0.00    +0.000 A 
ATOM     28  C   UNL     1       7.689   5.946  18.914  0.00  0.00    +0.000 A 
ATOM     29  C   UNL     1       6.615   6.655  18.363  0.00  0.00    +0.000 A 
ENDBRANCH  22  24
ENDBRANCH  21  22
ENDBRANCH  11  21
TORSDOF 5
ENDMDL
MODEL 9
REMARK VINA RESULT:      -7.8      4.335      7.756
REMARK  Name = 
REMARK  5 active torsions:
REMARK  status: ('A' for Active; 'I' for Inactive)
REMARK    1  A    between atoms: C_2  and  C_3
REMARK    2  A    between atoms: C_2  and  C_23
REMARK    3  A    between atoms: C_13  and  C_14
REMARK    4  A    between atoms: C_14  and  C_15
REMARK    5  A    between atoms: C_15  and  C_17
REMARK                            x       y       z     vdW  Elec       q    Type
REMARK                         _______ _______ _______ _____ _____    ______ ____
ROOT
ATOM      1  C   UNL     1       5.793   6.014  17.176  0.00  0.00    +0.000 C 
ATOM      2  C   UNL     1       4.785   5.536  17.924  0.00  0.00    +0.000 C 
ATOM      3  N   UNL     1       4.655   4.241  18.364  0.00  0.00    +0.000 N 
ATOM      4  C   UNL     1       3.838   3.908  19.450  0.00  0.00    +0.000 A 
ATOM      5  N   UNL     1       3.954   2.676  19.991  0.00  0.00    +0.000 NA
ATOM      6  C   UNL     1       3.165   2.401  21.055  0.00  0.00    +0.000 A 
ATOM      7  C   UNL     1       2.262   3.297  21.606  0.00  0.00    +0.000 A 
ATOM      8  C   UNL     1       2.155   4.561  21.035  0.00  0.00    +0.000 A 
ATOM      9  C   UNL     1       2.954   4.890  19.943  0.00  0.00    +0.000 A 
ATOM     10  N   UNL     1       2.831   6.173  19.355  0.00  0.00    +0.000 NA
ATOM     11  C   UNL     1       3.669   6.471  18.397  0.00  0.00    +0.000 C 
ATOM     12  H   UNL     1       5.330   3.540  18.078  0.00  0.00    +0.000 HD
ENDROOT
BRANCH   1  14
ATOM     13  O   UNL     1       7.739   4.650  17.325  0.00  0.00    +0.000 OA
ATOM     14  C   UNL     1       6.856   5.131  16.625  0.00  0.00    +0.000 C 
BRANCH  14  15
ATOM     15  C   UNL     1       6.749   4.785  15.188  0.00  0.00    +0.000 A 
ATOM     16  C   UNL     1       5.721   3.931  14.771  0.00  0.00    +0.000 A 
ATOM     17  C   UNL     1       5.589   3.612  13.418  0.00  0.00    +0.000 A 
ATOM     18  C   UNL     1       6.492   4.129  12.488  0.00  0.00    +0.000 A 
ATOM     19  C   UNL     1       7.535   4.956  12.907  0.00  0.00    +0.000 A 
ATOM     20  C   UNL     1       7.666   5.286  14.257  0.00  0.00    +0.000 A 
ENDBRANCH  14  15
ENDBRANCH   1  14
BRANCH  11  21
ATOM     21  C   UNL     1       3.436   7.791  17.688  0.00  0.00    +0.000 C 
BRANCH  21  22
ATOM     22  C   UNL     1       2.018   8.287  17.807  0.00  0.00    +0.000 C 
ATOM     23  O   UNL     1       1.090   7.623  17.344  0.00  0.00    +0.000 OA
BRANCH  22  24
ATOM     24  C   UNL     1       1.716   9.593  18.466  0.00  0.00    +0.000 A 
ATOM     25  C   UNL     1       1.018   9.555  19.682  0.00  0.00    +0.000 A 
ATOM     26  C   UNL     1       0.742  10.732  20.379  0.00  0.00    +0.000 A 
ATOM     27  C   UNL     1       1.164  11.957  19.871  0.00  0.00    +0.000 A 
ATOM     28  C   UNL     1       1.855  12.006  18.661  0.00  0.00    +0.000 A 
ATOM     29  C   UNL     1       2.130  10.828  17.956  0.00  0.00    +0.000 A 
ENDBRANCH  22  24
ENDBRANCH  21  22
ENDBRANCH  11  21
TORSDOF 5
ENDMDL
