MODEL 1
REMARK VINA RESULT:      -7.2      0.000      0.000
REMARK  Name = 
REMARK  6 active torsions:
REMARK  status: ('A' for Active; 'I' for Inactive)
REMARK    1  A    between atoms: C_1  and  N_2
REMARK    2  A    between atoms: N_2  and  C_3
REMARK    3  A    between atoms: N_2  and  C_14
REMARK    4  A    between atoms: C_3  and  C_4
REMARK    5  A    between atoms: C_4  and  N_5
REMARK    6  A    between atoms: C_14  and  C_15
REMARK                            x       y       z     vdW  Elec       q    Type
REMARK                         _______ _______ _______ _____ _____    ______ ____
ROOT
ATOM      1  C   UNL     1       3.034   2.768  19.021  0.00  0.00    +0.000 C 
ATOM      2  N   UNL     1       3.387   3.962  18.235  0.00  0.00    +0.000 NA
ENDROOT
BRANCH   2   3
ATOM      3  C   UNL     1       2.425   5.046  18.571  0.00  0.00    +0.000 C 
BRANCH   3   4
ATOM      4  C   UNL     1       3.029   6.224  19.353  0.00  0.00    +0.000 C 
BRANCH   4   5
ATOM      5  N   UNL     1       2.392   7.491  19.016  0.00  0.00    +0.000 N 
ATOM      6  C   UNL     1       2.551   8.139  17.818  0.00  0.00    +0.000 A 
ATOM      7  C   UNL     1       1.862   9.329  17.885  0.00  0.00    +0.000 A 
ATOM      8  C   UNL     1       1.259   9.407  19.170  0.00  0.00    +0.000 A 
ATOM      9  C   UNL     1       0.457  10.373  19.809  0.00  0.00    +0.000 A 
ATOM     10  C   UNL     1       0.012  10.147  21.115  0.00  0.00    +0.000 A 
ATOM     11  C   UNL     1       0.354   8.976  21.785  0.00  0.00    +0.000 A 
ATOM     12  C   UNL     1       1.152   8.002  21.173  0.00  0.00    +0.000 A 
ATOM     13  C   UNL     1       1.596   8.240  19.863  0.00  0.00    +0.000 A 
ENDBRANCH   4   5
ENDBRANCH   3   4
ENDBRANCH   2   3
BRANCH   2  14
ATOM     14  C   UNL     1       4.777   4.378  18.508  0.00  0.00    +0.000 C 
BRANCH  14  15
ATOM     15  C   UNL     1       5.623   4.583  17.288  0.00  0.00    +0.000 A 
ATOM     16  C   UNL     1       5.503   3.823  16.146  0.00  0.00    +0.000 A 
ATOM     17  N   UNL     1       6.201   4.052  15.014  0.00  0.00    +0.000 NA
ATOM     18  C   UNL     1       7.043   5.090  15.034  0.00  0.00    +0.000 A 
ATOM     19  N   UNL     1       7.752   5.362  13.883  0.00  0.00    +0.000 N 
ATOM     20  N   UNL     1       7.271   5.867  16.095  0.00  0.00    +0.000 NA
ATOM     21  C   UNL     1       6.548   5.603  17.200  0.00  0.00    +0.000 A 
ATOM     22  H   UNL     1       7.823   4.526  13.322  0.00  0.00    +0.000 HD
ATOM     23  H   UNL     1       8.607   5.844  14.118  0.00  0.00    +0.000 HD
ENDBRANCH  14  15
ENDBRANCH   2  14
TORSDOF 5
ENDMDL
MODEL 2
REMARK VINA RESULT:      -6.9      0.660      1.209
REMARK  Name = 
REMARK  6 active torsions:
REMARK  status: ('A' for Active; 'I' for Inactive)
REMARK    1  A    between atoms: C_1  and  N_2
REMARK    2  A    between atoms: N_2  and  C_3
REMARK    3  A    between atoms: N_2  and  C_14
REMARK    4  A    between atoms: C_3  and  C_4
REMARK    5  A    between atoms: C_4  and  N_5
REMARK    6  A    between atoms: C_14  and  C_15
REMARK                            x       y       z     vdW  Elec       q    Type
REMARK                         _______ _______ _______ _____ _____    ______ ____
ROOT
ATOM      1  C   UNL     1       3.287   3.892  20.051  0.00  0.00    +0.000 C 
ATOM      2  N   UNL     1       3.830   4.434  18.795  0.00  0.00    +0.000 NA
ENDROOT
BRANCH   2   3
ATOM      3  C   UNL     1       3.633   5.909  18.796  0.00  0.00    +0.000 C 
BRANCH   3   4
ATOM      4  C   UNL     1       2.513   6.409  19.723  0.00  0.00    +0.000 C 
BRANCH   4   5
ATOM      5  N   UNL     1       2.007   7.714  19.319  0.00  0.00    +0.000 N 
ATOM      6  C   UNL     1       2.182   8.256  18.072  0.00  0.00    +0.000 A 
ATOM      7  C   UNL     1       1.635   9.519  18.078  0.00  0.00    +0.000 A 
ATOM      8  C   UNL     1       1.106   9.755  19.376  0.00  0.00    +0.000 A 
ATOM      9  C   UNL     1       0.449  10.849  19.973  0.00  0.00    +0.000 A 
ATOM     10  C   UNL     1       0.043  10.765  21.309  0.00  0.00    +0.000 A 
ATOM     11  C   UNL     1       0.282   9.611  22.049  0.00  0.00    +0.000 A 
ATOM     12  C   UNL     1       0.936   8.512  21.480  0.00  0.00    +0.000 A 
ATOM     13  C   UNL     1       1.342   8.607  20.139  0.00  0.00    +0.000 A 
ENDBRANCH   4   5
ENDBRANCH   3   4
ENDBRANCH   2   3
BRANCH   2  14
ATOM     14  C   UNL     1       5.257   4.086  18.647  0.00  0.00    +0.000 C 
BRANCH  14  15
ATOM     15  C   UNL     1       5.870   4.487  17.340  0.00  0.00    +0.000 A 
ATOM     16  C   UNL     1       6.885   5.413  17.231  0.00  0.00    +0.000 A 
ATOM     17  N   UNL     1       7.500   5.720  16.070  0.00  0.00    +0.000 NA
ATOM     18  C   UNL     1       7.083   5.064  14.983  0.00  0.00    +0.000 A 
ATOM     19  N   UNL     1       7.711   5.340  13.788  0.00  0.00    +0.000 N 
ATOM     20  N   UNL     1       6.084   4.179  14.963  0.00  0.00    +0.000 NA
ATOM     21  C   UNL     1       5.503   3.902  16.146  0.00  0.00    +0.000 A 
ATOM     22  H   UNL     1       8.126   6.259  13.826  0.00  0.00    +0.000 HD
ATOM     23  H   UNL     1       7.084   5.139  13.022  0.00  0.00    +0.000 HD
ENDBRANCH  14  15
ENDBRANCH   2  14
TORSDOF 5
ENDMDL
MODEL 3
REMARK VINA RESULT:      -6.8      0.879      1.918
REMARK  Name = 
REMARK  6 active torsions:
REMARK  status: ('A' for Active; 'I' for Inactive)
REMARK    1  A    between atoms: C_1  and  N_2
REMARK    2  A    between atoms: N_2  and  C_3
REMARK    3  A    between atoms: N_2  and  C_14
REMARK    4  A    between atoms: C_3  and  C_4
REMARK    5  A    between atoms: C_4  and  N_5
REMARK    6  A    between atoms: C_14  and  C_15
REMARK                            x       y       z     vdW  Elec       q    Type
REMARK                         _______ _______ _______ _____ _____    ______ ____
ROOT
ATOM      1  C   UNL     1       4.430   2.367  19.795  0.00  0.00    +0.000 C 
ATOM      2  N   UNL     1       4.244   3.399  18.761  0.00  0.00    +0.000 NA
ENDROOT
BRANCH   2   3
ATOM      3  C   UNL     1       2.959   4.101  19.025  0.00  0.00    +0.000 C 
BRANCH   3   4
ATOM      4  C   UNL     1       2.844   5.496  18.388  0.00  0.00    +0.000 C 
BRANCH   4   5
ATOM      5  N   UNL     1       2.274   6.473  19.306  0.00  0.00    +0.000 N 
ATOM      6  C   UNL     1       1.868   6.185  20.584  0.00  0.00    +0.000 A 
ATOM      7  C   UNL     1       1.322   7.328  21.123  0.00  0.00    +0.000 A 
ATOM      8  C   UNL     1       1.401   8.351  20.138  0.00  0.00    +0.000 A 
ATOM      9  C   UNL     1       1.003   9.701  20.108  0.00  0.00    +0.000 A 
ATOM     10  C   UNL     1       1.227  10.461  18.955  0.00  0.00    +0.000 A 
ATOM     11  C   UNL     1       1.839   9.893  17.842  0.00  0.00    +0.000 A 
ATOM     12  C   UNL     1       2.241   8.552  17.846  0.00  0.00    +0.000 A 
ATOM     13  C   UNL     1       2.009   7.797  19.007  0.00  0.00    +0.000 A 
ENDBRANCH   4   5
ENDBRANCH   3   4
ENDBRANCH   2   3
BRANCH   2  14
ATOM     14  C   UNL     1       5.378   4.345  18.753  0.00  0.00    +0.000 C 
BRANCH  14  15
ATOM     15  C   UNL     1       6.025   4.541  17.416  0.00  0.00    +0.000 A 
ATOM     16  C   UNL     1       5.632   3.870  16.279  0.00  0.00    +0.000 A 
ATOM     17  N   UNL     1       6.151   4.099  15.055  0.00  0.00    +0.000 NA
ATOM     18  C   UNL     1       7.093   5.042  14.974  0.00  0.00    +0.000 A 
ATOM     19  N   UNL     1       7.624   5.314  13.732  0.00  0.00    +0.000 N 
ATOM     20  N   UNL     1       7.581   5.724  16.014  0.00  0.00    +0.000 NA
ATOM     21  C   UNL     1       7.029   5.465  17.214  0.00  0.00    +0.000 A 
ATOM     22  H   UNL     1       7.508   4.512  13.130  0.00  0.00    +0.000 HD
ATOM     23  H   UNL     1       8.555   5.692  13.836  0.00  0.00    +0.000 HD
ENDBRANCH  14  15
ENDBRANCH   2  14
TORSDOF 5
ENDMDL
MODEL 4
REMARK VINA RESULT:      -6.8      0.686      1.209
REMARK  Name = 
REMARK  6 active torsions:
REMARK  status: ('A' for Active; 'I' for Inactive)
REMARK    1  A    between atoms: C_1  and  N_2
REMARK    2  A    between atoms: N_2  and  C_3
REMARK    3  A    between atoms: N_2  and  C_14
REMARK    4  A    between atoms: C_3  and  C_4
REMARK    5  A    between atoms: C_4  and  N_5
REMARK    6  A    between atoms: C_14  and  C_15
REMARK                            x       y       z     vdW  Elec       q    Type
REMARK                         _______ _______ _______ _____ _____    ______ ____
ROOT
ATOM      1  C   UNL     1       1.755   3.589  17.474  0.00  0.00    +0.000 C 
ATOM      2  N   UNL     1       2.710   4.644  17.850  0.00  0.00    +0.000 NA
ENDROOT
BRANCH   2   3
ATOM      3  C   UNL     1       2.254   5.258  19.127  0.00  0.00    +0.000 C 
BRANCH   3   4
ATOM      4  C   UNL     1       2.993   6.546  19.523  0.00  0.00    +0.000 C 
BRANCH   4   5
ATOM      5  N   UNL     1       2.249   7.742  19.152  0.00  0.00    +0.000 N 
ATOM      6  C   UNL     1       2.319   8.342  17.920  0.00  0.00    +0.000 A 
ATOM      7  C   UNL     1       1.542   9.477  17.957  0.00  0.00    +0.000 A 
ATOM      8  C   UNL     1       0.976   9.572  19.258  0.00  0.00    +0.000 A 
ATOM      9  C   UNL     1       0.122  10.504  19.879  0.00  0.00    +0.000 A 
ATOM     10  C   UNL     1      -0.262  10.308  21.210  0.00  0.00    +0.000 A 
ATOM     11  C   UNL     1       0.191   9.200  21.920  0.00  0.00    +0.000 A 
ATOM     12  C   UNL     1       1.042   8.262  21.326  0.00  0.00    +0.000 A 
ATOM     13  C   UNL     1       1.425   8.469  19.991  0.00  0.00    +0.000 A 
ENDBRANCH   4   5
ENDBRANCH   3   4
ENDBRANCH   2   3
BRANCH   2  14
ATOM     14  C   UNL     1       4.075   4.096  17.978  0.00  0.00    +0.000 C 
BRANCH  14  15
ATOM     15  C   UNL     1       5.021   4.501  16.890  0.00  0.00    +0.000 A 
ATOM     16  C   UNL     1       5.596   5.751  16.812  0.00  0.00    +0.000 A 
ATOM     17  N   UNL     1       6.512   6.100  15.886  0.00  0.00    +0.000 NA
ATOM     18  C   UNL     1       6.866   5.153  15.012  0.00  0.00    +0.000 A 
ATOM     19  N   UNL     1       7.818   5.476  14.069  0.00  0.00    +0.000 N 
ATOM     20  N   UNL     1       6.346   3.925  14.966  0.00  0.00    +0.000 NA
ATOM     21  C   UNL     1       5.439   3.621  15.914  0.00  0.00    +0.000 A 
ATOM     22  H   UNL     1       7.833   6.474  13.928  0.00  0.00    +0.000 HD
ATOM     23  H   UNL     1       7.701   4.888  13.256  0.00  0.00    +0.000 HD
ENDBRANCH  14  15
ENDBRANCH   2  14
TORSDOF 5
ENDMDL
MODEL 5
REMARK VINA RESULT:      -6.8      0.927      2.160
REMARK  Name = 
REMARK  6 active torsions:
REMARK  status: ('A' for Active; 'I' for Inactive)
REMARK    1  A    between atoms: C_1  and  N_2
REMARK    2  A    between atoms: N_2  and  C_3
REMARK    3  A    between atoms: N_2  and  C_14
REMARK    4  A    between atoms: C_3  and  C_4
REMARK    5  A    between atoms: C_4  and  N_5
REMARK    6  A    between atoms: C_14  and  C_15
REMARK                            x       y       z     vdW  Elec       q    Type
REMARK                         _______ _______ _______ _____ _____    ______ ____
ROOT
ATOM      1  C   UNL     1       3.922   2.294  18.927  0.00  0.00    +0.000 C 
ATOM      2  N   UNL     1       4.032   3.316  17.872  0.00  0.00    +0.000 NA
ENDROOT
BRANCH   2   3
ATOM      3  C   UNL     1       2.804   4.157  17.905  0.00  0.00    +0.000 C 
BRANCH   3   4
ATOM      4  C   UNL     1       3.050   5.665  17.741  0.00  0.00    +0.000 C 
BRANCH   4   5
ATOM      5  N   UNL     1       2.510   6.434  18.854  0.00  0.00    +0.000 N 
ATOM      6  C   UNL     1       2.266   5.918  20.101  0.00  0.00    +0.000 A 
ATOM      7  C   UNL     1       1.697   6.910  20.866  0.00  0.00    +0.000 A 
ATOM      8  C   UNL     1       1.593   8.074  20.057  0.00  0.00    +0.000 A 
ATOM      9  C   UNL     1       1.093   9.371  20.284  0.00  0.00    +0.000 A 
ATOM     10  C   UNL     1       1.134  10.316  19.253  0.00  0.00    +0.000 A 
ATOM     11  C   UNL     1       1.665   9.984  18.010  0.00  0.00    +0.000 A 
ATOM     12  C   UNL     1       2.164   8.700  17.760  0.00  0.00    +0.000 A 
ATOM     13  C   UNL     1       2.116   7.758  18.800  0.00  0.00    +0.000 A 
ENDBRANCH   4   5
ENDBRANCH   3   4
ENDBRANCH   2   3
BRANCH   2  14
ATOM     14  C   UNL     1       5.245   4.136  18.060  0.00  0.00    +0.000 C 
BRANCH  14  15
ATOM     15  C   UNL     1       5.935   4.538  16.792  0.00  0.00    +0.000 A 
ATOM     16  C   UNL     1       6.834   5.580  16.716  0.00  0.00    +0.000 A 
ATOM     17  N   UNL     1       7.522   5.897  15.601  0.00  0.00    +0.000 NA
ATOM     18  C   UNL     1       7.303   5.133  14.527  0.00  0.00    +0.000 A 
ATOM     19  N   UNL     1       8.011   5.420  13.380  0.00  0.00    +0.000 N 
ATOM     20  N   UNL     1       6.427   4.127  14.474  0.00  0.00    +0.000 NA
ATOM     21  C   UNL     1       5.766   3.844  15.612  0.00  0.00    +0.000 A 
ATOM     22  H   UNL     1       8.305   6.385  13.395  0.00  0.00    +0.000 HD
ATOM     23  H   UNL     1       7.496   5.097  12.574  0.00  0.00    +0.000 HD
ENDBRANCH  14  15
ENDBRANCH   2  14
TORSDOF 5
ENDMDL
MODEL 6
REMARK VINA RESULT:      -6.8      1.272      1.759
REMARK  Name = 
REMARK  6 active torsions:
REMARK  status: ('A' for Active; 'I' for Inactive)
REMARK    1  A    between atoms: C_1  and  N_2
REMARK    2  A    between atoms: N_2  and  C_3
REMARK    3  A    between atoms: N_2  and  C_14
REMARK    4  A    between atoms: C_3  and  C_4
REMARK    5  A    between atoms: C_4  and  N_5
REMARK    6  A    between atoms: C_14  and  C_15
REMARK                            x       y       z     vdW  Elec       q    Type
REMARK                         _______ _______ _______ _____ _____    ______ ____
ROOT
ATOM      1  C   UNL     1       2.060   4.914  19.215  0.00  0.00    +0.000 C 
ATOM      2  N   UNL     1       2.928   5.709  18.330  0.00  0.00    +0.000 NA
ENDROOT
BRANCH   2   3
ATOM      3  C   UNL     1       2.562   7.144  18.480  0.00  0.00    +0.000 C 
BRANCH   3   4
ATOM      4  C   UNL     1       2.112   7.550  19.893  0.00  0.00    +0.000 C 
BRANCH   4   5
ATOM      5  N   UNL     1       1.289   8.752  19.882  0.00  0.00    +0.000 N 
ATOM      6  C   UNL     1       1.104   9.550  18.782  0.00  0.00    +0.000 A 
ATOM      7  C   UNL     1       0.332  10.623  19.162  0.00  0.00    +0.000 A 
ATOM      8  C   UNL     1       0.033  10.473  20.544  0.00  0.00    +0.000 A 
ATOM      9  C   UNL     1      -0.697  11.246  21.468  0.00  0.00    +0.000 A 
ATOM     10  C   UNL     1      -0.807  10.814  22.794  0.00  0.00    +0.000 A 
ATOM     11  C   UNL     1      -0.204   9.628  23.203  0.00  0.00    +0.000 A 
ATOM     12  C   UNL     1       0.528   8.844  22.304  0.00  0.00    +0.000 A 
ATOM     13  C   UNL     1       0.636   9.288  20.977  0.00  0.00    +0.000 A 
ENDBRANCH   4   5
ENDBRANCH   3   4
ENDBRANCH   2   3
BRANCH   2  14
ATOM     14  C   UNL     1       4.351   5.484  18.651  0.00  0.00    +0.000 C 
BRANCH  14  15
ATOM     15  C   UNL     1       5.253   5.362  17.461  0.00  0.00    +0.000 A 
ATOM     16  C   UNL     1       4.946   5.881  16.221  0.00  0.00    +0.000 A 
ATOM     17  N   UNL     1       5.785   5.850  15.166  0.00  0.00    +0.000 NA
ATOM     18  C   UNL     1       6.978   5.283  15.369  0.00  0.00    +0.000 A 
ATOM     19  N   UNL     1       7.865   5.259  14.314  0.00  0.00    +0.000 N 
ATOM     20  N   UNL     1       7.366   4.712  16.512  0.00  0.00    +0.000 NA
ATOM     21  C   UNL     1       6.497   4.772  17.539  0.00  0.00    +0.000 A 
ATOM     22  H   UNL     1       7.359   5.325  13.444  0.00  0.00    +0.000 HD
ATOM     23  H   UNL     1       8.506   4.487  14.428  0.00  0.00    +0.000 HD
ENDBRANCH  14  15
ENDBRANCH   2  14
TORSDOF 5
ENDMDL
MODEL 7
REMARK VINA RESULT:      -6.7      0.822      1.788
REMARK  Name = 
REMARK  6 active torsions:
REMARK  status: ('A' for Active; 'I' for Inactive)
REMARK    1  A    between atoms: C_1  and  N_2
REMARK    2  A    between atoms: N_2  and  C_3
REMARK    3  A    between atoms: N_2  and  C_14
REMARK    4  A    between atoms: C_3  and  C_4
REMARK    5  A    between atoms: C_4  and  N_5
REMARK    6  A    between atoms: C_14  and  C_15
REMARK                            x       y       z     vdW  Elec       q    Type
REMARK                         _______ _______ _______ _____ _____    ______ ____
ROOT
ATOM      1  C   UNL     1       2.622   2.642  17.560  0.00  0.00    +0.000 C 
ATOM      2  N   UNL     1       3.235   3.978  17.475  0.00  0.00    +0.000 NA
ENDROOT
BRANCH   2   3
ATOM      3  C   UNL     1       2.474   4.900  18.362  0.00  0.00    +0.000 C 
BRANCH   3   4
ATOM      4  C   UNL     1       2.919   6.370  18.296  0.00  0.00    +0.000 C 
BRANCH   4   5
ATOM      5  N   UNL     1       2.242   7.194  19.288  0.00  0.00    +0.000 N 
ATOM      6  C   UNL     1       1.872   6.753  20.533  0.00  0.00    +0.000 A 
ATOM      7  C   UNL     1       1.198   7.775  21.162  0.00  0.00    +0.000 A 
ATOM      8  C   UNL     1       1.159   8.881  20.269  0.00  0.00    +0.000 A 
ATOM      9  C   UNL     1       0.609  10.175  20.350  0.00  0.00    +0.000 A 
ATOM     10  C   UNL     1       0.744  11.051  19.268  0.00  0.00    +0.000 A 
ATOM     11  C   UNL     1       1.417  10.654  18.117  0.00  0.00    +0.000 A 
ATOM     12  C   UNL     1       1.969   9.372  18.011  0.00  0.00    +0.000 A 
ATOM     13  C   UNL     1       1.826   8.499  19.101  0.00  0.00    +0.000 A 
ENDBRANCH   4   5
ENDBRANCH   3   4
ENDBRANCH   2   3
BRANCH   2  14
ATOM     14  C   UNL     1       4.660   3.926  17.855  0.00  0.00    +0.000 C 
BRANCH  14  15
ATOM     15  C   UNL     1       5.617   4.297  16.763  0.00  0.00    +0.000 A 
ATOM     16  C   UNL     1       5.672   3.645  15.550  0.00  0.00    +0.000 A 
ATOM     17  N   UNL     1       6.470   4.022  14.531  0.00  0.00    +0.000 NA
ATOM     18  C   UNL     1       7.234   5.099  14.739  0.00  0.00    +0.000 A 
ATOM     19  N   UNL     1       8.042   5.521  13.705  0.00  0.00    +0.000 N 
ATOM     20  N   UNL     1       7.293   5.782  15.885  0.00  0.00    +0.000 NA
ATOM     21  C   UNL     1       6.475   5.371  16.872  0.00  0.00    +0.000 A 
ATOM     22  H   UNL     1       8.228   4.750  13.083  0.00  0.00    +0.000 HD
ATOM     23  H   UNL     1       8.832   6.027  14.079  0.00  0.00    +0.000 HD
ENDBRANCH  14  15
ENDBRANCH   2  14
TORSDOF 5
ENDMDL
MODEL 8
REMARK VINA RESULT:      -6.6      2.500      4.515
REMARK  Name = 
REMARK  6 active torsions:
REMARK  status: ('A' for Active; 'I' for Inactive)
REMARK    1  A    between atoms: C_1  and  N_2
REMARK    2  A    between atoms: N_2  and  C_3
REMARK    3  A    between atoms: N_2  and  C_14
REMARK    4  A    between atoms: C_3  and  C_4
REMARK    5  A    between atoms: C_4  and  N_5
REMARK    6  A    between atoms: C_14  and  C_15
REMARK                            x       y       z     vdW  Elec       q    Type
REMARK                         _______ _______ _______ _____ _____    ______ ____
ROOT
ATOM      1  C   UNL     1       2.635   8.426  17.816  0.00  0.00    +0.000 C 
ATOM      2  N   UNL     1       2.744   7.347  18.813  0.00  0.00    +0.000 NA
ENDROOT
BRANCH   2   3
ATOM      3  C   UNL     1       1.929   7.721  20.000  0.00  0.00    +0.000 C 
BRANCH   3   4
ATOM      4  C   UNL     1       1.082   8.992  19.826  0.00  0.00    +0.000 C 
BRANCH   4   5
ATOM      5  N   UNL     1       0.525   9.458  21.089  0.00  0.00    +0.000 N 
ATOM      6  C   UNL     1       0.781   8.877  22.305  0.00  0.00    +0.000 A 
ATOM      7  C   UNL     1       0.034   9.536  23.254  0.00  0.00    +0.000 A 
ATOM      8  C   UNL     1      -0.703  10.556  22.594  0.00  0.00    +0.000 A 
ATOM      9  C   UNL     1      -1.627  11.525  23.032  0.00  0.00    +0.000 A 
ATOM     10  C   UNL     1      -2.192  12.409  22.106  0.00  0.00    +0.000 A 
ATOM     11  C   UNL     1      -1.847  12.337  20.760  0.00  0.00    +0.000 A 
ATOM     12  C   UNL     1      -0.935  11.381  20.299  0.00  0.00    +0.000 A 
ATOM     13  C   UNL     1      -0.375  10.497  21.236  0.00  0.00    +0.000 A 
ENDBRANCH   4   5
ENDBRANCH   3   4
ENDBRANCH   2   3
BRANCH   2  14
ATOM     14  C   UNL     1       2.300   6.059  18.243  0.00  0.00    +0.000 C 
BRANCH  14  15
ATOM     15  C   UNL     1       3.075   4.865  18.707  0.00  0.00    +0.000 A 
ATOM     16  C   UNL     1       4.452   4.819  18.737  0.00  0.00    +0.000 A 
ATOM     17  N   UNL     1       5.159   3.781  19.230  0.00  0.00    +0.000 NA
ATOM     18  C   UNL     1       4.452   2.758  19.718  0.00  0.00    +0.000 A 
ATOM     19  N   UNL     1       5.149   1.694  20.250  0.00  0.00    +0.000 N 
ATOM     20  N   UNL     1       3.119   2.675  19.702  0.00  0.00    +0.000 NA
ATOM     21  C   UNL     1       2.457   3.736  19.205  0.00  0.00    +0.000 A 
ATOM     22  H   UNL     1       6.077   1.665  19.856  0.00  0.00    +0.000 HD
ATOM     23  H   UNL     1       4.586   0.857  20.191  0.00  0.00    +0.000 HD
ENDBRANCH  14  15
ENDBRANCH   2  14
TORSDOF 5
ENDMDL
MODEL 9
REMARK VINA RESULT:      -6.6      1.844      4.431
REMARK  Name = 
REMARK  6 active torsions:
REMARK  status: ('A' for Active; 'I' for Inactive)
REMARK    1  A    between atoms: C_1  and  N_2
REMARK    2  A    between atoms: N_2  and  C_3
REMARK    3  A    between atoms: N_2  and  C_14
REMARK    4  A    between atoms: C_3  and  C_4
REMARK    5  A    between atoms: C_4  and  N_5
REMARK    6  A    between atoms: C_14  and  C_15
REMARK                            x       y       z     vdW  Elec       q    Type
REMARK                         _______ _______ _______ _____ _____    ______ ____
ROOT
ATOM      1  C   UNL     1       5.228   4.747  16.463  0.00  0.00    +0.000 C 
ATOM      2  N   UNL     1       4.243   4.838  17.555  0.00  0.00    +0.000 NA
ENDROOT
BRANCH   2   3
ATOM      3  C   UNL     1       3.633   6.195  17.523  0.00  0.00    +0.000 C 
BRANCH   3   4
ATOM      4  C   UNL     1       3.217   6.747  18.896  0.00  0.00    +0.000 C 
BRANCH   4   5
ATOM      5  N   UNL     1       2.351   7.913  18.780  0.00  0.00    +0.000 N 
ATOM      6  C   UNL     1       2.227   8.671  17.644  0.00  0.00    +0.000 A 
ATOM      7  C   UNL     1       1.384   9.721  17.925  0.00  0.00    +0.000 A 
ATOM      8  C   UNL     1       0.977   9.598  19.281  0.00  0.00    +0.000 A 
ATOM      9  C   UNL     1       0.143  10.366  20.118  0.00  0.00    +0.000 A 
ATOM     10  C   UNL     1      -0.061   9.967  21.443  0.00  0.00    +0.000 A 
ATOM     11  C   UNL     1       0.552   8.819  21.937  0.00  0.00    +0.000 A 
ATOM     12  C   UNL     1       1.387   8.042  21.127  0.00  0.00    +0.000 A 
ATOM     13  C   UNL     1       1.588   8.452  19.799  0.00  0.00    +0.000 A 
ENDBRANCH   4   5
ENDBRANCH   3   4
ENDBRANCH   2   3
BRANCH   2  14
ATOM     14  C   UNL     1       3.216   3.787  17.424  0.00  0.00    +0.000 C 
BRANCH  14  15
ATOM     15  C   UNL     1       2.616   3.328  18.718  0.00  0.00    +0.000 A 
ATOM     16  C   UNL     1       3.368   2.971  19.817  0.00  0.00    +0.000 A 
ATOM     17  N   UNL     1       2.839   2.637  21.012  0.00  0.00    +0.000 NA
ATOM     18  C   UNL     1       1.506   2.672  21.104  0.00  0.00    +0.000 A 
ATOM     19  N   UNL     1       0.940   2.358  22.321  0.00  0.00    +0.000 N 
ATOM     20  N   UNL     1       0.679   2.962  20.097  0.00  0.00    +0.000 NA
ATOM     21  C   UNL     1       1.253   3.293  18.925  0.00  0.00    +0.000 A 
ATOM     22  H   UNL     1       1.575   1.784  22.854  0.00  0.00    +0.000 HD
ATOM     23  H   UNL     1       0.001   2.014  22.179  0.00  0.00    +0.000 HD
ENDBRANCH  14  15
ENDBRANCH   2  14
TORSDOF 5
ENDMDL
