MODEL 1
REMARK VINA RESULT:      -7.7      0.000      0.000
REMARK  Name = 
REMARK  3 active torsions:
REMARK  status: ('A' for Active; 'I' for Inactive)
REMARK    1  A    between atoms: C_2  and  C_4
REMARK    2  A    between atoms: C_4  and  N_5
REMARK    3  A    between atoms: C_6  and  C_8
REMARK                            x       y       z     vdW  Elec       q    Type
REMARK                         _______ _______ _______ _____ _____    ______ ____
ROOT
ATOM      1  N   UNL     1       3.205   4.165  18.243  0.00  0.00    +0.000 N 
ATOM      2  C   UNL     1       4.537   3.783  18.277  0.00  0.00    +0.000 C 
ATOM      3  O   UNL     1       5.016   3.128  19.192  0.00  0.00    +0.000 OA
ATOM      4  H   UNL     1       2.830   4.460  17.350  0.00  0.00    +0.000 HD
ENDROOT
BRANCH   2   5
ATOM      5  C   UNL     1       5.363   4.166  17.096  0.00  0.00    +0.000 A 
ATOM      6  C   UNL     1       5.292   3.467  15.870  0.00  0.00    +0.000 A 
ATOM      7  C   UNL     1       6.062   3.856  14.768  0.00  0.00    +0.000 A 
ATOM      8  C   UNL     1       6.919   4.955  14.845  0.00  0.00    +0.000 A 
ATOM      9 CL   UNL     1       7.835   5.441  13.479  0.00  0.00    +0.000 Cl
ATOM     10  C   UNL     1       6.977   5.634  16.062  0.00  0.00    +0.000 A 
ATOM     11  O   UNL     1       7.752   6.725  16.335  0.00  0.00    +0.000 OA
ATOM     12  C   UNL     1       7.510   7.079  17.621  0.00  0.00    +0.000 A 
ATOM     13  C   UNL     1       6.593   6.226  18.189  0.00  0.00    +0.000 A 
ATOM     14  C   UNL     1       6.229   5.284  17.185  0.00  0.00    +0.000 A 
ENDBRANCH   2   5
BRANCH   1  15
ATOM     15  C   UNL     1       2.198   3.751  19.283  0.00  0.00    +0.000 C 
ATOM     16  C   UNL     1       1.202   4.927  19.576  0.00  0.00    +0.000 C 
ATOM     17  C   UNL     1       2.006   5.282  20.830  0.00  0.00    +0.000 C 
ATOM     18  C   UNL     1       2.677   3.906  20.761  0.00  0.00    +0.000 C 
BRANCH  15  20
ATOM     19  N   UNL     1       2.332   1.333  18.630  0.00  0.00    +0.000 N 
ATOM     20  C   UNL     1       1.481   2.372  18.906  0.00  0.00    +0.000 C 
ATOM     21  O   UNL     1       0.267   2.181  18.808  0.00  0.00    +0.000 OA
ATOM     22  H   UNL     1       1.931   0.443  18.368  0.00  0.00    +0.000 HD
ATOM     23  H   UNL     1       3.339   1.441  18.676  0.00  0.00    +0.000 HD
ENDBRANCH  15  20
ENDBRANCH   1  15
TORSDOF 3
ENDMDL
MODEL 2
REMARK VINA RESULT:      -7.6      1.239      2.048
REMARK  Name = 
REMARK  3 active torsions:
REMARK  status: ('A' for Active; 'I' for Inactive)
REMARK    1  A    between atoms: C_2  and  C_4
REMARK    2  A    between atoms: C_4  and  N_5
REMARK    3  A    between atoms: C_6  and  C_8
REMARK                            x       y       z     vdW  Elec       q    Type
REMARK                         _______ _______ _______ _____ _____    ______ ____
ROOT
ATOM      1  N   UNL     1       3.198   4.116  18.311  0.00  0.00    +0.000 N 
ATOM      2  C   UNL     1       4.562   3.884  18.399  0.00  0.00    +0.000 C 
ATOM      3  O   UNL     1       5.087   3.382  19.384  0.00  0.00    +0.000 OA
ATOM      4  H   UNL     1       2.814   4.274  17.387  0.00  0.00    +0.000 HD
ENDROOT
BRANCH   2   5
ATOM      5  C   UNL     1       5.368   4.228  17.194  0.00  0.00    +0.000 A 
ATOM      6  C   UNL     1       5.261   3.503  15.985  0.00  0.00    +0.000 A 
ATOM      7  C   UNL     1       6.013   3.856  14.859  0.00  0.00    +0.000 A 
ATOM      8  C   UNL     1       6.890   4.942  14.895  0.00  0.00    +0.000 A 
ATOM      9 CL   UNL     1       7.784   5.384  13.499  0.00  0.00    +0.000 Cl
ATOM     10  C   UNL     1       6.984   5.646  16.094  0.00  0.00    +0.000 A 
ATOM     11  O   UNL     1       7.781   6.730  16.328  0.00  0.00    +0.000 OA
ATOM     12  C   UNL     1       7.572   7.115  17.610  0.00  0.00    +0.000 A 
ATOM     13  C   UNL     1       6.654   6.290  18.215  0.00  0.00    +0.000 A 
ATOM     14  C   UNL     1       6.254   5.332  17.240  0.00  0.00    +0.000 A 
ENDBRANCH   2   5
BRANCH   1  15
ATOM     15  C   UNL     1       2.218   3.706  19.378  0.00  0.00    +0.000 C 
ATOM     16  C   UNL     1       2.267   2.153  19.595  0.00  0.00    +0.000 C 
ATOM     17  C   UNL     1       1.020   2.001  18.719  0.00  0.00    +0.000 C 
ATOM     18  C   UNL     1       0.752   3.501  18.882  0.00  0.00    +0.000 C 
BRANCH  15  20
ATOM     19  N   UNL     1       2.605   5.898  20.534  0.00  0.00    +0.000 N 
ATOM     20  C   UNL     1       2.407   4.554  20.721  0.00  0.00    +0.000 C 
ATOM     21  O   UNL     1       2.425   4.112  21.871  0.00  0.00    +0.000 OA
ATOM     22  H   UNL     1       2.748   6.479  21.348  0.00  0.00    +0.000 HD
ATOM     23  H   UNL     1       2.619   6.312  19.608  0.00  0.00    +0.000 HD
ENDBRANCH  15  20
ENDBRANCH   1  15
TORSDOF 3
ENDMDL
MODEL 3
REMARK VINA RESULT:      -7.6      4.163      5.786
REMARK  Name = 
REMARK  3 active torsions:
REMARK  status: ('A' for Active; 'I' for Inactive)
REMARK    1  A    between atoms: C_2  and  C_4
REMARK    2  A    between atoms: C_4  and  N_5
REMARK    3  A    between atoms: C_6  and  C_8
REMARK                            x       y       z     vdW  Elec       q    Type
REMARK                         _______ _______ _______ _____ _____    ______ ____
ROOT
ATOM      1  N   UNL     1       1.805   5.144  19.411  0.00  0.00    +0.000 N 
ATOM      2  C   UNL     1       2.764   6.143  19.357  0.00  0.00    +0.000 C 
ATOM      3  O   UNL     1       3.965   5.916  19.420  0.00  0.00    +0.000 OA
ATOM      4  H   UNL     1       0.875   5.376  19.086  0.00  0.00    +0.000 HD
ENDROOT
BRANCH   2   5
ATOM      5  C   UNL     1       2.259   7.531  19.156  0.00  0.00    +0.000 A 
ATOM      6  C   UNL     1       2.430   8.225  17.936  0.00  0.00    +0.000 A 
ATOM      7  C   UNL     1       1.930   9.521  17.763  0.00  0.00    +0.000 A 
ATOM      8  C   UNL     1       1.238  10.165  18.790  0.00  0.00    +0.000 A 
ATOM      9 CL   UNL     1       0.603  11.741  18.556  0.00  0.00    +0.000 Cl
ATOM     10  C   UNL     1       1.079   9.467  19.986  0.00  0.00    +0.000 A 
ATOM     11  O   UNL     1       0.438   9.925  21.102  0.00  0.00    +0.000 OA
ATOM     12  C   UNL     1       0.501   8.943  22.035  0.00  0.00    +0.000 A 
ATOM     13  C   UNL     1       1.182   7.856  21.540  0.00  0.00    +0.000 A 
ATOM     14  C   UNL     1       1.558   8.176  20.205  0.00  0.00    +0.000 A 
ENDBRANCH   2   5
BRANCH   1  15
ATOM     15  C   UNL     1       2.141   3.677  19.476  0.00  0.00    +0.000 C 
ATOM     16  C   UNL     1       0.871   2.845  19.873  0.00  0.00    +0.000 C 
ATOM     17  C   UNL     1       1.373   2.787  21.318  0.00  0.00    +0.000 C 
ATOM     18  C   UNL     1       2.763   3.204  20.827  0.00  0.00    +0.000 C 
BRANCH  15  20
ATOM     19  N   UNL     1       4.206   2.942  18.257  0.00  0.00    +0.000 N 
ATOM     20  C   UNL     1       2.858   3.168  18.141  0.00  0.00    +0.000 C 
ATOM     21  O   UNL     1       2.327   3.003  17.041  0.00  0.00    +0.000 OA
ATOM     22  H   UNL     1       4.712   2.637  17.438  0.00  0.00    +0.000 HD
ATOM     23  H   UNL     1       4.697   3.082  19.133  0.00  0.00    +0.000 HD
ENDBRANCH  15  20
ENDBRANCH   1  15
TORSDOF 3
ENDMDL
MODEL 4
REMARK VINA RESULT:      -7.5      1.435      1.875
REMARK  Name = 
REMARK  3 active torsions:
REMARK  status: ('A' for Active; 'I' for Inactive)
REMARK    1  A    between atoms: C_2  and  C_4
REMARK    2  A    between atoms: C_4  and  N_5
REMARK    3  A    between atoms: C_6  and  C_8
REMARK                            x       y       z     vdW  Elec       q    Type
REMARK                         _______ _______ _______ _____ _____    ______ ____
ROOT
ATOM      1  N   UNL     1       3.422   3.245  18.303  0.00  0.00    +0.000 N 
ATOM      2  C   UNL     1       4.028   4.486  18.178  0.00  0.00    +0.000 C 
ATOM      3  O   UNL     1       3.858   5.392  18.981  0.00  0.00    +0.000 OA
ATOM      4  H   UNL     1       3.815   2.481  17.768  0.00  0.00    +0.000 HD
ENDROOT
BRANCH   2   5
ATOM      5  C   UNL     1       4.962   4.649  17.027  0.00  0.00    +0.000 A 
ATOM      6  C   UNL     1       4.815   3.913  15.829  0.00  0.00    +0.000 A 
ATOM      7  C   UNL     1       5.692   4.097  14.754  0.00  0.00    +0.000 A 
ATOM      8  C   UNL     1       6.736   5.021  14.830  0.00  0.00    +0.000 A 
ATOM      9 CL   UNL     1       7.785   5.259  13.494  0.00  0.00    +0.000 Cl
ATOM     10  C   UNL     1       6.866   5.738  16.018  0.00  0.00    +0.000 A 
ATOM     11  O   UNL     1       7.818   6.680  16.286  0.00  0.00    +0.000 OA
ATOM     12  C   UNL     1       7.591   7.137  17.542  0.00  0.00    +0.000 A 
ATOM     13  C   UNL     1       6.507   6.499  18.095  0.00  0.00    +0.000 A 
ATOM     14  C   UNL     1       6.017   5.590  17.114  0.00  0.00    +0.000 A 
ENDBRANCH   2   5
BRANCH   1  15
ATOM     15  C   UNL     1       2.557   2.862  19.475  0.00  0.00    +0.000 C 
ATOM     16  C   UNL     1       1.522   1.762  19.051  0.00  0.00    +0.000 C 
ATOM     17  C   UNL     1       0.447   2.842  18.907  0.00  0.00    +0.000 C 
ATOM     18  C   UNL     1       1.329   3.795  19.720  0.00  0.00    +0.000 C 
BRANCH  15  20
ATOM     19  N   UNL     1       4.713   2.081  20.490  0.00  0.00    +0.000 N 
ATOM     20  C   UNL     1       3.427   2.474  20.759  0.00  0.00    +0.000 C 
ATOM     21  O   UNL     1       3.041   2.462  21.929  0.00  0.00    +0.000 OA
ATOM     22  H   UNL     1       5.301   1.807  21.264  0.00  0.00    +0.000 HD
ATOM     23  H   UNL     1       5.076   2.053  19.544  0.00  0.00    +0.000 HD
ENDBRANCH  15  20
ENDBRANCH   1  15
TORSDOF 3
ENDMDL
MODEL 5
REMARK VINA RESULT:      -7.1      4.215      6.449
REMARK  Name = 
REMARK  3 active torsions:
REMARK  status: ('A' for Active; 'I' for Inactive)
REMARK    1  A    between atoms: C_2  and  C_4
REMARK    2  A    between atoms: C_4  and  N_5
REMARK    3  A    between atoms: C_6  and  C_8
REMARK                            x       y       z     vdW  Elec       q    Type
REMARK                         _______ _______ _______ _____ _____    ______ ____
ROOT
ATOM      1  N   UNL     1       4.293   6.385  17.696  0.00  0.00    +0.000 N 
ATOM      2  C   UNL     1       3.102   6.382  18.405  0.00  0.00    +0.000 C 
ATOM      3  O   UNL     1       2.632   5.371  18.909  0.00  0.00    +0.000 OA
ATOM      4  H   UNL     1       4.743   7.280  17.549  0.00  0.00    +0.000 HD
ENDROOT
BRANCH   2   5
ATOM      5  C   UNL     1       2.435   7.704  18.579  0.00  0.00    +0.000 A 
ATOM      6  C   UNL     1       2.431   8.685  17.560  0.00  0.00    +0.000 A 
ATOM      7  C   UNL     1       1.782   9.912  17.738  0.00  0.00    +0.000 A 
ATOM      8  C   UNL     1       1.110  10.201  18.928  0.00  0.00    +0.000 A 
ATOM      9 CL   UNL     1       0.292  11.696  19.122  0.00  0.00    +0.000 Cl
ATOM     10  C   UNL     1       1.124   9.224  19.921  0.00  0.00    +0.000 A 
ATOM     11  O   UNL     1       0.529   9.318  21.147  0.00  0.00    +0.000 OA
ATOM     12  C   UNL     1       0.773   8.158  21.804  0.00  0.00    +0.000 A 
ATOM     13  C   UNL     1       1.525   7.313  21.022  0.00  0.00    +0.000 A 
ATOM     14  C   UNL     1       1.755   7.988  19.789  0.00  0.00    +0.000 A 
ENDBRANCH   2   5
BRANCH   1  15
ATOM     15  C   UNL     1       5.165   5.168  17.538  0.00  0.00    +0.000 C 
ATOM     16  C   UNL     1       6.293   5.440  16.481  0.00  0.00    +0.000 C 
ATOM     17  C   UNL     1       5.467   4.699  15.425  0.00  0.00    +0.000 C 
ATOM     18  C   UNL     1       4.620   4.091  16.548  0.00  0.00    +0.000 C 
BRANCH  15  20
ATOM     19  N   UNL     1       5.214   3.417  19.333  0.00  0.00    +0.000 N 
ATOM     20  C   UNL     1       5.709   4.635  18.944  0.00  0.00    +0.000 C 
ATOM     21  O   UNL     1       6.483   5.224  19.701  0.00  0.00    +0.000 OA
ATOM     22  H   UNL     1       5.511   3.042  20.223  0.00  0.00    +0.000 HD
ATOM     23  H   UNL     1       4.559   2.899  18.758  0.00  0.00    +0.000 HD
ENDBRANCH  15  20
ENDBRANCH   1  15
TORSDOF 3
ENDMDL
MODEL 6
REMARK VINA RESULT:      -7.0      1.909      2.603
REMARK  Name = 
REMARK  3 active torsions:
REMARK  status: ('A' for Active; 'I' for Inactive)
REMARK    1  A    between atoms: C_2  and  C_4
REMARK    2  A    between atoms: C_4  and  N_5
REMARK    3  A    between atoms: C_6  and  C_8
REMARK                            x       y       z     vdW  Elec       q    Type
REMARK                         _______ _______ _______ _____ _____    ______ ____
ROOT
ATOM      1  N   UNL     1       3.553   4.267  19.566  0.00  0.00    +0.000 N 
ATOM      2  C   UNL     1       4.868   3.916  19.299  0.00  0.00    +0.000 C 
ATOM      3  O   UNL     1       5.272   2.763  19.359  0.00  0.00    +0.000 OA
ATOM      4  H   UNL     1       3.239   5.172  19.238  0.00  0.00    +0.000 HD
ENDROOT
BRANCH   2   5
ATOM      5  C   UNL     1       5.771   5.022  18.870  0.00  0.00    +0.000 A 
ATOM      6  C   UNL     1       6.922   5.382  19.607  0.00  0.00    +0.000 A 
ATOM      7  C   UNL     1       7.767   6.411  19.175  0.00  0.00    +0.000 A 
ATOM      8  C   UNL     1       7.501   7.108  17.995  0.00  0.00    +0.000 A 
ATOM      9 CL   UNL     1       8.560   8.346  17.459  0.00  0.00    +0.000 Cl
ATOM     10  C   UNL     1       6.362   6.741  17.280  0.00  0.00    +0.000 A 
ATOM     11  O   UNL     1       5.933   7.301  16.111  0.00  0.00    +0.000 OA
ATOM     12  C   UNL     1       4.798   6.656  15.747  0.00  0.00    +0.000 A 
ATOM     13  C   UNL     1       4.480   5.687  16.669  0.00  0.00    +0.000 A 
ATOM     14  C   UNL     1       5.492   5.723  17.671  0.00  0.00    +0.000 A 
ENDBRANCH   2   5
BRANCH   1  15
ATOM     15  C   UNL     1       2.477   3.262  19.882  0.00  0.00    +0.000 C 
ATOM     16  C   UNL     1       1.355   3.924  20.758  0.00  0.00    +0.000 C 
ATOM     17  C   UNL     1       1.980   3.300  22.009  0.00  0.00    +0.000 C 
ATOM     18  C   UNL     1       2.772   2.345  21.110  0.00  0.00    +0.000 C 
BRANCH  15  20
ATOM     19  N   UNL     1       2.669   1.465  18.143  0.00  0.00    +0.000 N 
ATOM     20  C   UNL     1       1.928   2.539  18.565  0.00  0.00    +0.000 C 
ATOM     21  O   UNL     1       0.949   2.877  17.897  0.00  0.00    +0.000 OA
ATOM     22  H   UNL     1       2.377   0.983  17.305  0.00  0.00    +0.000 HD
ATOM     23  H   UNL     1       3.495   1.157  18.643  0.00  0.00    +0.000 HD
ENDBRANCH  15  20
ENDBRANCH   1  15
TORSDOF 3
ENDMDL
MODEL 7
REMARK VINA RESULT:      -7.0      3.188      6.368
REMARK  Name = 
REMARK  3 active torsions:
REMARK  status: ('A' for Active; 'I' for Inactive)
REMARK    1  A    between atoms: C_2  and  C_4
REMARK    2  A    between atoms: C_4  and  N_5
REMARK    3  A    between atoms: C_6  and  C_8
REMARK                            x       y       z     vdW  Elec       q    Type
REMARK                         _______ _______ _______ _____ _____    ______ ____
ROOT
ATOM      1  N   UNL     1       5.163   4.606  17.138  0.00  0.00    +0.000 N 
ATOM      2  C   UNL     1       5.517   4.344  18.452  0.00  0.00    +0.000 C 
ATOM      3  O   UNL     1       6.648   4.523  18.883  0.00  0.00    +0.000 OA
ATOM      4  H   UNL     1       4.175   4.693  16.932  0.00  0.00    +0.000 HD
ENDROOT
BRANCH   2   5
ATOM      5  C   UNL     1       4.421   3.881  19.350  0.00  0.00    +0.000 A 
ATOM      6  C   UNL     1       4.368   2.560  19.853  0.00  0.00    +0.000 A 
ATOM      7  C   UNL     1       3.340   2.152  20.711  0.00  0.00    +0.000 A 
ATOM      8  C   UNL     1       2.337   3.042  21.102  0.00  0.00    +0.000 A 
ATOM      9 CL   UNL     1       1.100   2.539  22.178  0.00  0.00    +0.000 Cl
ATOM     10  C   UNL     1       2.404   4.340  20.597  0.00  0.00    +0.000 A 
ATOM     11  O   UNL     1       1.522   5.349  20.859  0.00  0.00    +0.000 OA
ATOM     12  C   UNL     1       1.948   6.443  20.181  0.00  0.00    +0.000 A 
ATOM     13  C   UNL     1       3.092   6.154  19.476  0.00  0.00    +0.000 A 
ATOM     14  C   UNL     1       3.409   4.792  19.742  0.00  0.00    +0.000 A 
ENDBRANCH   2   5
BRANCH   1  15
ATOM     15  C   UNL     1       6.108   5.205  16.130  0.00  0.00    +0.000 C 
ATOM     16  C   UNL     1       5.445   5.226  14.708  0.00  0.00    +0.000 C 
ATOM     17  C   UNL     1       6.223   3.960  14.338  0.00  0.00    +0.000 C 
ATOM     18  C   UNL     1       7.150   4.209  15.532  0.00  0.00    +0.000 C 
BRANCH  15  20
ATOM     19  N   UNL     1       5.705   7.549  16.927  0.00  0.00    +0.000 N 
ATOM     20  C   UNL     1       6.667   6.626  16.605  0.00  0.00    +0.000 C 
ATOM     21  O   UNL     1       7.850   6.964  16.670  0.00  0.00    +0.000 OA
ATOM     22  H   UNL     1       6.003   8.470  17.217  0.00  0.00    +0.000 HD
ATOM     23  H   UNL     1       4.716   7.330  16.873  0.00  0.00    +0.000 HD
ENDBRANCH  15  20
ENDBRANCH   1  15
TORSDOF 3
ENDMDL
MODEL 8
REMARK VINA RESULT:      -7.0      3.266      6.639
REMARK  Name = 
REMARK  3 active torsions:
REMARK  status: ('A' for Active; 'I' for Inactive)
REMARK    1  A    between atoms: C_2  and  C_4
REMARK    2  A    between atoms: C_4  and  N_5
REMARK    3  A    between atoms: C_6  and  C_8
REMARK                            x       y       z     vdW  Elec       q    Type
REMARK                         _______ _______ _______ _____ _____    ______ ____
ROOT
ATOM      1  N   UNL     1       5.562   5.307  17.834  0.00  0.00    +0.000 N 
ATOM      2  C   UNL     1       4.329   5.829  18.195  0.00  0.00    +0.000 C 
ATOM      3  O   UNL     1       3.893   6.878  17.740  0.00  0.00    +0.000 OA
ATOM      4  H   UNL     1       5.728   4.329  18.035  0.00  0.00    +0.000 HD
ENDROOT
BRANCH   2   5
ATOM      5  C   UNL     1       3.517   5.007  19.137  0.00  0.00    +0.000 A 
ATOM      6  C   UNL     1       2.895   5.565  20.278  0.00  0.00    +0.000 A 
ATOM      7  C   UNL     1       2.121   4.779  21.138  0.00  0.00    +0.000 A 
ATOM      8  C   UNL     1       1.932   3.418  20.890  0.00  0.00    +0.000 A 
ATOM      9 CL   UNL     1       0.955   2.471  21.935  0.00  0.00    +0.000 Cl
ATOM     10  C   UNL     1       2.551   2.884  19.761  0.00  0.00    +0.000 A 
ATOM     11  O   UNL     1       2.489   1.583  19.352  0.00  0.00    +0.000 OA
ATOM     12  C   UNL     1       3.219   1.482  18.214  0.00  0.00    +0.000 A 
ATOM     13  C   UNL     1       3.761   2.701  17.884  0.00  0.00    +0.000 A 
ATOM     14  C   UNL     1       3.330   3.627  18.875  0.00  0.00    +0.000 A 
ENDBRANCH   2   5
BRANCH   1  15
ATOM     15  C   UNL     1       6.453   5.935  16.794  0.00  0.00    +0.000 C 
ATOM     16  C   UNL     1       5.605   6.395  15.557  0.00  0.00    +0.000 C 
ATOM     17  C   UNL     1       6.022   5.123  14.812  0.00  0.00    +0.000 C 
ATOM     18  C   UNL     1       7.150   4.925  15.829  0.00  0.00    +0.000 C 
BRANCH  15  20
ATOM     19  N   UNL     1       8.021   6.749  18.574  0.00  0.00    +0.000 N 
ATOM     20  C   UNL     1       7.375   7.086  17.412  0.00  0.00    +0.000 C 
ATOM     21  O   UNL     1       7.520   8.226  16.968  0.00  0.00    +0.000 OA
ATOM     22  H   UNL     1       8.603   7.446  19.017  0.00  0.00    +0.000 HD
ATOM     23  H   UNL     1       7.921   5.831  18.994  0.00  0.00    +0.000 HD
ENDBRANCH  15  20
ENDBRANCH   1  15
TORSDOF 3
ENDMDL
MODEL 9
REMARK VINA RESULT:      -7.0      4.426      6.636
REMARK  Name = 
REMARK  3 active torsions:
REMARK  status: ('A' for Active; 'I' for Inactive)
REMARK    1  A    between atoms: C_2  and  C_4
REMARK    2  A    between atoms: C_4  and  N_5
REMARK    3  A    between atoms: C_6  and  C_8
REMARK                            x       y       z     vdW  Elec       q    Type
REMARK                         _______ _______ _______ _____ _____    ______ ____
ROOT
ATOM      1  N   UNL     1       4.113   6.584  18.442  0.00  0.00    +0.000 N 
ATOM      2  C   UNL     1       2.939   6.144  19.034  0.00  0.00    +0.000 C 
ATOM      3  O   UNL     1       2.620   4.964  19.078  0.00  0.00    +0.000 OA
ATOM      4  H   UNL     1       4.432   7.515  18.680  0.00  0.00    +0.000 HD
ENDROOT
BRANCH   2   5
ATOM      5  C   UNL     1       2.095   7.189  19.680  0.00  0.00    +0.000 A 
ATOM      6  C   UNL     1       1.505   7.000  20.951  0.00  0.00    +0.000 A 
ATOM      7  C   UNL     1       0.732   8.003  21.546  0.00  0.00    +0.000 A 
ATOM      8  C   UNL     1       0.527   9.226  20.905  0.00  0.00    +0.000 A 
ATOM      9 CL   UNL     1      -0.397  10.459  21.659  0.00  0.00    +0.000 Cl
ATOM     10  C   UNL     1       1.115   9.396  19.653  0.00  0.00    +0.000 A 
ATOM     11  O   UNL     1       1.030  10.512  18.871  0.00  0.00    +0.000 OA
ATOM     12  C   UNL     1       1.744  10.271  17.744  0.00  0.00    +0.000 A 
ATOM     13  C   UNL     1       2.286   9.008  17.781  0.00  0.00    +0.000 A 
ATOM     14  C   UNL     1       1.894   8.427  19.021  0.00  0.00    +0.000 A 
ENDBRANCH   2   5
BRANCH   1  15
ATOM     15  C   UNL     1       5.146   5.654  17.862  0.00  0.00    +0.000 C 
ATOM     16  C   UNL     1       6.119   6.443  16.917  0.00  0.00    +0.000 C 
ATOM     17  C   UNL     1       5.328   5.946  15.704  0.00  0.00    +0.000 C 
ATOM     18  C   UNL     1       4.689   4.872  16.590  0.00  0.00    +0.000 C 
BRANCH  15  20
ATOM     19  N   UNL     1       5.465   3.506  19.117  0.00  0.00    +0.000 N 
ATOM     20  C   UNL     1       5.890   4.805  18.994  0.00  0.00    +0.000 C 
ATOM     21  O   UNL     1       6.758   5.215  19.766  0.00  0.00    +0.000 OA
ATOM     22  H   UNL     1       5.890   2.930  19.830  0.00  0.00    +0.000 HD
ATOM     23  H   UNL     1       4.740   3.123  18.521  0.00  0.00    +0.000 HD
ENDBRANCH  15  20
ENDBRANCH   1  15
TORSDOF 3
ENDMDL
