MODEL 1
REMARK VINA RESULT:      -6.5      0.000      0.000
REMARK  Name = 
REMARK  11 active torsions:
REMARK  status: ('A' for Active; 'I' for Inactive)
REMARK    1  A    between atoms: C_1  and  C_2
REMARK    2  A    between atoms: C_2  and  N_3
REMARK    3  A    between atoms: N_3  and  C_4
REMARK    4  A    between atoms: N_3  and  C_6
REMARK    5  A    between atoms: C_4  and  C_5
REMARK    6  A    between atoms: C_6  and  C_7
REMARK    7  A    between atoms: C_7  and  N_8
REMARK    8  A    between atoms: N_8  and  C_9
REMARK    9  A    between atoms: C_10  and  O_11
REMARK   10  A    between atoms: O_11  and  C_12
REMARK   11  A    between atoms: C_14  and  C_15
REMARK                            x       y       z     vdW  Elec       q    Type
REMARK                         _______ _______ _______ _____ _____    ______ ____
ROOT
ATOM      1  C   UNL     1       2.290   7.491  19.409  0.00  0.00    +0.000 A 
ATOM      2  C   UNL     1       1.435   7.148  20.495  0.00  0.00    +0.000 A 
ATOM      3  C   UNL     1       1.527   5.891  21.079  0.00  0.00    +0.000 A 
ATOM      4  C   UNL     1       2.355   4.900  20.543  0.00  0.00    +0.000 A 
ATOM      5  C   UNL     1       2.391   3.570  21.254  0.00  0.00    +0.000 C 
ATOM      6  C   UNL     1       3.090   5.161  19.357  0.00  0.00    +0.000 A 
ATOM      7  S   UNL     1       3.995   3.780  18.683  0.00  0.00    +0.000 S 
ATOM      8  C   UNL     1       4.688   4.386  17.189  0.00  0.00    +0.000 A 
ATOM      9  C   UNL     1       5.395   3.453  16.406  0.00  0.00    +0.000 A 
ATOM     10  C   UNL     1       6.016   3.830  15.218  0.00  0.00    +0.000 A 
ATOM     11  C   UNL     1       5.933   5.149  14.795  0.00  0.00    +0.000 A 
ATOM     12  C   UNL     1       5.228   6.081  15.567  0.00  0.00    +0.000 A 
ATOM     13  C   UNL     1       4.601   5.707  16.772  0.00  0.00    +0.000 A 
ATOM     14  C   UNL     1       3.895   6.752  17.564  0.00  0.00    +0.000 A 
ATOM     15  O   UNL     1       4.016   7.914  17.169  0.00  0.00    +0.000 OA
ATOM     16  C   UNL     1       3.072   6.452  18.794  0.00  0.00    +0.000 A 
ENDROOT
BRANCH   1  17
ATOM     17  N   UNL     1       2.307   8.807  18.884  0.00  0.00    +0.000 N 
ATOM     18  H   UNL     1       2.638   9.465  19.604  0.00  0.00    +0.000 HD
BRANCH  17  19
ATOM     19  C   UNL     1       1.187   9.363  18.112  0.00  0.00    +0.000 C 
BRANCH  19  20
ATOM     20  C   UNL     1       0.584  10.701  18.621  0.00  0.00    +0.000 C 
BRANCH  20  21
ATOM     21  N   UNL     1      -0.848  10.692  18.990  0.00  0.00    +0.000 NA
BRANCH  21  23
ATOM     22  C   UNL     1      -2.333  12.373  20.125  0.00  0.00    +0.000 C 
ATOM     23  C   UNL     1      -1.071  11.528  20.179  0.00  0.00    +0.000 C 
ENDBRANCH  21  23
BRANCH  21  24
ATOM     24  C   UNL     1      -1.706  11.005  17.840  0.00  0.00    +0.000 C 
ATOM     25  C   UNL     1      -2.528   9.850  17.269  0.00  0.00    +0.000 C 
ENDBRANCH  21  24
ENDBRANCH  20  21
ENDBRANCH  19  20
ENDBRANCH  17  19
ENDBRANCH   1  17
BRANCH   2  26
ATOM     26  O   UNL     1       0.555   8.106  20.931  0.00  0.00    +0.000 OA
ATOM     27  C   UNL     1       0.852   8.895  22.070  0.00  0.00    +0.000 C 
ENDBRANCH   2  26
TORSDOF 7
ENDMDL
MODEL 2
REMARK VINA RESULT:      -6.5      0.453      1.336
REMARK  Name = 
REMARK  11 active torsions:
REMARK  status: ('A' for Active; 'I' for Inactive)
REMARK    1  A    between atoms: C_1  and  C_2
REMARK    2  A    between atoms: C_2  and  N_3
REMARK    3  A    between atoms: N_3  and  C_4
REMARK    4  A    between atoms: N_3  and  C_6
REMARK    5  A    between atoms: C_4  and  C_5
REMARK    6  A    between atoms: C_6  and  C_7
REMARK    7  A    between atoms: C_7  and  N_8
REMARK    8  A    between atoms: N_8  and  C_9
REMARK    9  A    between atoms: C_10  and  O_11
REMARK   10  A    between atoms: O_11  and  C_12
REMARK   11  A    between atoms: C_14  and  C_15
REMARK                            x       y       z     vdW  Elec       q    Type
REMARK                         _______ _______ _______ _____ _____    ______ ____
ROOT
ATOM      1  C   UNL     1       2.366   7.395  19.375  0.00  0.00    +0.000 A 
ATOM      2  C   UNL     1       1.511   7.038  20.457  0.00  0.00    +0.000 A 
ATOM      3  C   UNL     1       1.596   5.771  21.019  0.00  0.00    +0.000 A 
ATOM      4  C   UNL     1       2.416   4.784  20.464  0.00  0.00    +0.000 A 
ATOM      5  C   UNL     1       2.445   3.441  21.153  0.00  0.00    +0.000 C 
ATOM      6  C   UNL     1       3.151   5.061  19.282  0.00  0.00    +0.000 A 
ATOM      7  S   UNL     1       4.045   3.686  18.583  0.00  0.00    +0.000 S 
ATOM      8  C   UNL     1       4.740   4.313  17.098  0.00  0.00    +0.000 A 
ATOM      9  C   UNL     1       5.439   3.388  16.298  0.00  0.00    +0.000 A 
ATOM     10  C   UNL     1       6.061   3.782  15.115  0.00  0.00    +0.000 A 
ATOM     11  C   UNL     1       5.986   5.108  14.716  0.00  0.00    +0.000 A 
ATOM     12  C   UNL     1       5.288   6.031  15.504  0.00  0.00    +0.000 A 
ATOM     13  C   UNL     1       4.661   5.640  16.704  0.00  0.00    +0.000 A 
ATOM     14  C   UNL     1       3.963   6.677  17.516  0.00  0.00    +0.000 A 
ATOM     15  O   UNL     1       4.092   7.845  17.140  0.00  0.00    +0.000 OA
ATOM     16  C   UNL     1       3.140   6.361  18.742  0.00  0.00    +0.000 A 
ENDROOT
BRANCH   1  17
ATOM     17  N   UNL     1       2.391   8.719  18.874  0.00  0.00    +0.000 N 
ATOM     18  H   UNL     1       2.742   9.361  19.599  0.00  0.00    +0.000 HD
BRANCH  17  19
ATOM     19  C   UNL     1       1.266   9.302  18.130  0.00  0.00    +0.000 C 
BRANCH  19  20
ATOM     20  C   UNL     1       0.783  10.708  18.582  0.00  0.00    +0.000 C 
BRANCH  20  21
ATOM     21  N   UNL     1      -0.663  10.992  18.452  0.00  0.00    +0.000 NA
BRANCH  21  23
ATOM     22  C   UNL     1      -2.816   9.964  17.661  0.00  0.00    +0.000 C 
ATOM     23  C   UNL     1      -1.298   9.999  17.575  0.00  0.00    +0.000 C 
ENDBRANCH  21  23
BRANCH  21  24
ATOM     24  C   UNL     1      -1.300  11.162  19.764  0.00  0.00    +0.000 C 
ATOM     25  C   UNL     1      -0.776  12.304  20.634  0.00  0.00    +0.000 C 
ENDBRANCH  21  24
ENDBRANCH  20  21
ENDBRANCH  19  20
ENDBRANCH  17  19
ENDBRANCH   1  17
BRANCH   2  26
ATOM     26  O   UNL     1       0.638   7.995  20.911  0.00  0.00    +0.000 OA
ATOM     27  C   UNL     1       1.003   8.861  21.972  0.00  0.00    +0.000 C 
ENDBRANCH   2  26
TORSDOF 7
ENDMDL
MODEL 3
REMARK VINA RESULT:      -6.4      4.323      9.711
REMARK  Name = 
REMARK  11 active torsions:
REMARK  status: ('A' for Active; 'I' for Inactive)
REMARK    1  A    between atoms: C_1  and  C_2
REMARK    2  A    between atoms: C_2  and  N_3
REMARK    3  A    between atoms: N_3  and  C_4
REMARK    4  A    between atoms: N_3  and  C_6
REMARK    5  A    between atoms: C_4  and  C_5
REMARK    6  A    between atoms: C_6  and  C_7
REMARK    7  A    between atoms: C_7  and  N_8
REMARK    8  A    between atoms: N_8  and  C_9
REMARK    9  A    between atoms: C_10  and  O_11
REMARK   10  A    between atoms: O_11  and  C_12
REMARK   11  A    between atoms: C_14  and  C_15
REMARK                            x       y       z     vdW  Elec       q    Type
REMARK                         _______ _______ _______ _____ _____    ______ ____
ROOT
ATOM      1  C   UNL     1      -2.517  11.562  17.934  0.00  0.00    +0.000 A 
ATOM      2  C   UNL     1      -3.224  11.164  16.764  0.00  0.00    +0.000 A 
ATOM      3  C   UNL     1      -4.590  11.399  16.665  0.00  0.00    +0.000 A 
ATOM      4  C   UNL     1      -5.319  11.905  17.746  0.00  0.00    +0.000 A 
ATOM      5  C   UNL     1      -6.797  12.133  17.537  0.00  0.00    +0.000 C 
ATOM      6  C   UNL     1      -4.668  12.151  18.982  0.00  0.00    +0.000 A 
ATOM      7  S   UNL     1      -5.723  12.654  20.330  0.00  0.00    +0.000 S 
ATOM      8  C   UNL     1      -4.654  12.764  21.717  0.00  0.00    +0.000 A 
ATOM      9  C   UNL     1      -5.263  13.068  22.950  0.00  0.00    +0.000 A 
ATOM     10  C   UNL     1      -4.508  13.214  24.112  0.00  0.00    +0.000 A 
ATOM     11  C   UNL     1      -3.131  13.052  24.054  0.00  0.00    +0.000 A 
ATOM     12  C   UNL     1      -2.520  12.744  22.832  0.00  0.00    +0.000 A 
ATOM     13  C   UNL     1      -3.278  12.600  21.652  0.00  0.00    +0.000 A 
ATOM     14  C   UNL     1      -2.565  12.306  20.377  0.00  0.00    +0.000 A 
ATOM     15  O   UNL     1      -1.333  12.334  20.419  0.00  0.00    +0.000 OA
ATOM     16  C   UNL     1      -3.272  11.994  19.080  0.00  0.00    +0.000 A 
ENDROOT
BRANCH   1  17
ATOM     17  N   UNL     1      -1.106  11.454  18.004  0.00  0.00    +0.000 N 
ATOM     18  H   UNL     1      -0.674  12.059  17.292  0.00  0.00    +0.000 HD
BRANCH  17  19
ATOM     19  C   UNL     1      -0.419  10.159  18.108  0.00  0.00    +0.000 C 
BRANCH  19  20
ATOM     20  C   UNL     1       0.837  10.107  19.020  0.00  0.00    +0.000 C 
BRANCH  20  21
ATOM     21  N   UNL     1       0.858   9.066  20.070  0.00  0.00    +0.000 NA
BRANCH  21  23
ATOM     22  C   UNL     1       2.390   8.089  18.332  0.00  0.00    +0.000 C 
ATOM     23  C   UNL     1       1.884   8.059  19.765  0.00  0.00    +0.000 C 
ENDBRANCH  21  23
BRANCH  21  24
ATOM     24  C   UNL     1       0.943   9.653  21.413  0.00  0.00    +0.000 C 
ATOM     25  C   UNL     1      -0.303   9.530  22.291  0.00  0.00    +0.000 C 
ENDBRANCH  21  24
ENDBRANCH  20  21
ENDBRANCH  19  20
ENDBRANCH  17  19
ENDBRANCH   1  17
BRANCH   2  26
ATOM     26  O   UNL     1      -2.500  10.570  15.762  0.00  0.00    +0.000 OA
ATOM     27  C   UNL     1      -3.132  10.140  14.569  0.00  0.00    +0.000 C 
ENDBRANCH   2  26
TORSDOF 7
ENDMDL
MODEL 4
REMARK VINA RESULT:      -6.2      0.798      1.037
REMARK  Name = 
REMARK  11 active torsions:
REMARK  status: ('A' for Active; 'I' for Inactive)
REMARK    1  A    between atoms: C_1  and  C_2
REMARK    2  A    between atoms: C_2  and  N_3
REMARK    3  A    between atoms: N_3  and  C_4
REMARK    4  A    between atoms: N_3  and  C_6
REMARK    5  A    between atoms: C_4  and  C_5
REMARK    6  A    between atoms: C_6  and  C_7
REMARK    7  A    between atoms: C_7  and  N_8
REMARK    8  A    between atoms: N_8  and  C_9
REMARK    9  A    between atoms: C_10  and  O_11
REMARK   10  A    between atoms: O_11  and  C_12
REMARK   11  A    between atoms: C_14  and  C_15
REMARK                            x       y       z     vdW  Elec       q    Type
REMARK                         _______ _______ _______ _____ _____    ______ ____
ROOT
ATOM      1  C   UNL     1       2.443   7.171  19.359  0.00  0.00    +0.000 A 
ATOM      2  C   UNL     1       1.607   6.767  20.440  0.00  0.00    +0.000 A 
ATOM      3  C   UNL     1       1.727   5.488  20.968  0.00  0.00    +0.000 A 
ATOM      4  C   UNL     1       2.563   4.534  20.379  0.00  0.00    +0.000 A 
ATOM      5  C   UNL     1       2.630   3.175  21.032  0.00  0.00    +0.000 C 
ATOM      6  C   UNL     1       3.279   4.858  19.197  0.00  0.00    +0.000 A 
ATOM      7  S   UNL     1       4.197   3.523  18.453  0.00  0.00    +0.000 S 
ATOM      8  C   UNL     1       4.862   4.204  16.979  0.00  0.00    +0.000 A 
ATOM      9  C   UNL     1       5.572   3.317  16.148  0.00  0.00    +0.000 A 
ATOM     10  C   UNL     1       6.173   3.755  14.969  0.00  0.00    +0.000 A 
ATOM     11  C   UNL     1       6.064   5.089  14.605  0.00  0.00    +0.000 A 
ATOM     12  C   UNL     1       5.353   5.975  15.425  0.00  0.00    +0.000 A 
ATOM     13  C   UNL     1       4.748   5.539  16.620  0.00  0.00    +0.000 A 
ATOM     14  C   UNL     1       4.036   6.538  17.465  0.00  0.00    +0.000 A 
ATOM     15  O   UNL     1       4.134   7.717  17.120  0.00  0.00    +0.000 OA
ATOM     16  C   UNL     1       3.233   6.172  18.691  0.00  0.00    +0.000 A 
ENDROOT
BRANCH   1  17
ATOM     17  N   UNL     1       2.432   8.508  18.892  0.00  0.00    +0.000 N 
ATOM     18  H   UNL     1       2.596   9.153  19.678  0.00  0.00    +0.000 HD
BRANCH  17  19
ATOM     19  C   UNL     1       1.401   9.015  17.976  0.00  0.00    +0.000 C 
BRANCH  19  20
ATOM     20  C   UNL     1       0.936  10.482  18.192  0.00  0.00    +0.000 C 
BRANCH  20  21
ATOM     21  N   UNL     1       0.326  10.805  19.500  0.00  0.00    +0.000 NA
BRANCH  21  23
ATOM     22  C   UNL     1       1.238  13.132  19.231  0.00  0.00    +0.000 C 
ATOM     23  C   UNL     1       1.041  11.923  20.131  0.00  0.00    +0.000 C 
ENDBRANCH  21  23
BRANCH  21  24
ATOM     24  C   UNL     1      -1.128  10.979  19.390  0.00  0.00    +0.000 C 
ATOM     25  C   UNL     1      -1.760  10.604  18.050  0.00  0.00    +0.000 C 
ENDBRANCH  21  24
ENDBRANCH  20  21
ENDBRANCH  19  20
ENDBRANCH  17  19
ENDBRANCH   1  17
BRANCH   2  26
ATOM     26  O   UNL     1       0.718   7.691  20.927  0.00  0.00    +0.000 OA
ATOM     27  C   UNL     1       1.088   8.565  21.980  0.00  0.00    +0.000 C 
ENDBRANCH   2  26
TORSDOF 7
ENDMDL
MODEL 5
REMARK VINA RESULT:      -6.2      4.156      9.714
REMARK  Name = 
REMARK  11 active torsions:
REMARK  status: ('A' for Active; 'I' for Inactive)
REMARK    1  A    between atoms: C_1  and  C_2
REMARK    2  A    between atoms: C_2  and  N_3
REMARK    3  A    between atoms: N_3  and  C_4
REMARK    4  A    between atoms: N_3  and  C_6
REMARK    5  A    between atoms: C_4  and  C_5
REMARK    6  A    between atoms: C_6  and  C_7
REMARK    7  A    between atoms: C_7  and  N_8
REMARK    8  A    between atoms: N_8  and  C_9
REMARK    9  A    between atoms: C_10  and  O_11
REMARK   10  A    between atoms: O_11  and  C_12
REMARK   11  A    between atoms: C_14  and  C_15
REMARK                            x       y       z     vdW  Elec       q    Type
REMARK                         _______ _______ _______ _____ _____    ______ ____
ROOT
ATOM      1  C   UNL     1      -2.590  11.652  17.968  0.00  0.00    +0.000 A 
ATOM      2  C   UNL     1      -3.310  11.198  16.826  0.00  0.00    +0.000 A 
ATOM      3  C   UNL     1      -4.688  11.360  16.766  0.00  0.00    +0.000 A 
ATOM      4  C   UNL     1      -5.410  11.845  17.862  0.00  0.00    +0.000 A 
ATOM      5  C   UNL     1      -6.903  11.991  17.695  0.00  0.00    +0.000 C 
ATOM      6  C   UNL     1      -4.736  12.143  19.074  0.00  0.00    +0.000 A 
ATOM      7  S   UNL     1      -5.775  12.612  20.446  0.00  0.00    +0.000 S 
ATOM      8  C   UNL     1      -4.672  12.800  21.798  0.00  0.00    +0.000 A 
ATOM      9  C   UNL     1      -5.258  13.091  23.045  0.00  0.00    +0.000 A 
ATOM     10  C   UNL     1      -4.477  13.295  24.180  0.00  0.00    +0.000 A 
ATOM     11  C   UNL     1      -3.097  13.204  24.082  0.00  0.00    +0.000 A 
ATOM     12  C   UNL     1      -2.507  12.910  22.846  0.00  0.00    +0.000 A 
ATOM     13  C   UNL     1      -3.292  12.707  21.693  0.00  0.00    +0.000 A 
ATOM     14  C   UNL     1      -2.603  12.431  20.401  0.00  0.00    +0.000 A 
ATOM     15  O   UNL     1      -1.374  12.524  20.404  0.00  0.00    +0.000 OA
ATOM     16  C   UNL     1      -3.331  12.061  19.130  0.00  0.00    +0.000 A 
ENDROOT
BRANCH   1  17
ATOM     17  N   UNL     1      -1.174  11.618  17.995  0.00  0.00    +0.000 N 
ATOM     18  H   UNL     1      -0.796  12.265  17.289  0.00  0.00    +0.000 HD
BRANCH  17  19
ATOM     19  C   UNL     1      -0.415  10.361  18.043  0.00  0.00    +0.000 C 
BRANCH  19  20
ATOM     20  C   UNL     1       0.089   9.903  19.440  0.00  0.00    +0.000 C 
BRANCH  20  21
ATOM     21  N   UNL     1       1.424   9.268  19.494  0.00  0.00    +0.000 NA
BRANCH  21  23
ATOM     22  C   UNL     1       1.160   8.827  21.955  0.00  0.00    +0.000 C 
ATOM     23  C   UNL     1       1.469   8.272  20.573  0.00  0.00    +0.000 C 
ENDBRANCH  21  23
BRANCH  21  24
ATOM     24  C   UNL     1       1.842   8.775  18.175  0.00  0.00    +0.000 C 
ATOM     25  C   UNL     1       2.526   7.409  18.144  0.00  0.00    +0.000 C 
ENDBRANCH  21  24
ENDBRANCH  20  21
ENDBRANCH  19  20
ENDBRANCH  17  19
ENDBRANCH   1  17
BRANCH   2  26
ATOM     26  O   UNL     1      -2.585  10.627  15.811  0.00  0.00    +0.000 OA
ATOM     27  C   UNL     1      -3.222  10.200  14.619  0.00  0.00    +0.000 C 
ENDBRANCH   2  26
TORSDOF 7
ENDMDL
MODEL 6
REMARK VINA RESULT:      -6.2      2.565      4.621
REMARK  Name = 
REMARK  11 active torsions:
REMARK  status: ('A' for Active; 'I' for Inactive)
REMARK    1  A    between atoms: C_1  and  C_2
REMARK    2  A    between atoms: C_2  and  N_3
REMARK    3  A    between atoms: N_3  and  C_4
REMARK    4  A    between atoms: N_3  and  C_6
REMARK    5  A    between atoms: C_4  and  C_5
REMARK    6  A    between atoms: C_6  and  C_7
REMARK    7  A    between atoms: C_7  and  N_8
REMARK    8  A    between atoms: N_8  and  C_9
REMARK    9  A    between atoms: C_10  and  O_11
REMARK   10  A    between atoms: O_11  and  C_12
REMARK   11  A    between atoms: C_14  and  C_15
REMARK                            x       y       z     vdW  Elec       q    Type
REMARK                         _______ _______ _______ _____ _____    ______ ____
ROOT
ATOM      1  C   UNL     1      -0.268  11.280  19.578  0.00  0.00    +0.000 A 
ATOM      2  C   UNL     1      -1.103  11.728  20.640  0.00  0.00    +0.000 A 
ATOM      3  C   UNL     1      -0.987  11.157  21.901  0.00  0.00    +0.000 A 
ATOM      4  C   UNL     1      -0.155  10.056  22.126  0.00  0.00    +0.000 A 
ATOM      5  C   UNL     1      -0.093   9.512  23.532  0.00  0.00    +0.000 C 
ATOM      6  C   UNL     1       0.560   9.480  21.044  0.00  0.00    +0.000 A 
ATOM      7  S   UNL     1       1.471   7.994  21.417  0.00  0.00    +0.000 S 
ATOM      8  C   UNL     1       2.137   7.478  19.878  0.00  0.00    +0.000 A 
ATOM      9  C   UNL     1       2.843   6.260  19.880  0.00  0.00    +0.000 A 
ATOM     10  C   UNL     1       3.443   5.770  18.722  0.00  0.00    +0.000 A 
ATOM     11  C   UNL     1       3.338   6.494  17.543  0.00  0.00    +0.000 A 
ATOM     12  C   UNL     1       2.633   7.704  17.533  0.00  0.00    +0.000 A 
ATOM     13  C   UNL     1       2.028   8.207  18.702  0.00  0.00    +0.000 A 
ATOM     14  C   UNL     1       1.321   9.516  18.633  0.00  0.00    +0.000 A 
ATOM     15  O   UNL     1       1.422  10.139  17.573  0.00  0.00    +0.000 OA
ATOM     16  C   UNL     1       0.518  10.091  19.775  0.00  0.00    +0.000 A 
ENDROOT
BRANCH   1  17
ATOM     17  N   UNL     1      -0.274  11.935  18.321  0.00  0.00    +0.000 N 
ATOM     18  H   UNL     1       0.158  12.865  18.411  0.00  0.00    +0.000 HD
BRANCH  17  19
ATOM     19  C   UNL     1      -1.459  11.966  17.454  0.00  0.00    +0.000 C 
BRANCH  19  20
ATOM     20  C   UNL     1      -2.129  10.601  17.137  0.00  0.00    +0.000 C 
BRANCH  20  21
ATOM     21  N   UNL     1      -3.568  10.625  16.796  0.00  0.00    +0.000 NA
BRANCH  21  23
ATOM     22  C   UNL     1      -5.470  11.031  18.390  0.00  0.00    +0.000 C 
ATOM     23  C   UNL     1      -4.274  11.598  17.642  0.00  0.00    +0.000 C 
ENDBRANCH  21  23
BRANCH  21  24
ATOM     24  C   UNL     1      -3.779  10.787  15.352  0.00  0.00    +0.000 C 
ATOM     25  C   UNL     1      -2.885   9.953  14.435  0.00  0.00    +0.000 C 
ENDBRANCH  21  24
ENDBRANCH  20  21
ENDBRANCH  19  20
ENDBRANCH  17  19
ENDBRANCH   1  17
BRANCH   2  26
ATOM     26  O   UNL     1      -1.988  12.739  20.362  0.00  0.00    +0.000 OA
ATOM     27  C   UNL     1      -2.822  13.270  21.377  0.00  0.00    +0.000 C 
ENDBRANCH   2  26
TORSDOF 7
ENDMDL
MODEL 7
REMARK VINA RESULT:      -6.0      2.624      4.803
REMARK  Name = 
REMARK  11 active torsions:
REMARK  status: ('A' for Active; 'I' for Inactive)
REMARK    1  A    between atoms: C_1  and  C_2
REMARK    2  A    between atoms: C_2  and  N_3
REMARK    3  A    between atoms: N_3  and  C_4
REMARK    4  A    between atoms: N_3  and  C_6
REMARK    5  A    between atoms: C_4  and  C_5
REMARK    6  A    between atoms: C_6  and  C_7
REMARK    7  A    between atoms: C_7  and  N_8
REMARK    8  A    between atoms: N_8  and  C_9
REMARK    9  A    between atoms: C_10  and  O_11
REMARK   10  A    between atoms: O_11  and  C_12
REMARK   11  A    between atoms: C_14  and  C_15
REMARK                            x       y       z     vdW  Elec       q    Type
REMARK                         _______ _______ _______ _____ _____    ______ ____
ROOT
ATOM      1  C   UNL     1      -0.063  11.535  19.766  0.00  0.00    +0.000 A 
ATOM      2  C   UNL     1      -0.903  11.967  20.831  0.00  0.00    +0.000 A 
ATOM      3  C   UNL     1      -0.872  11.304  22.051  0.00  0.00    +0.000 A 
ATOM      4  C   UNL     1      -0.125  10.135  22.223  0.00  0.00    +0.000 A 
ATOM      5  C   UNL     1      -0.150   9.493  23.589  0.00  0.00    +0.000 C 
ATOM      6  C   UNL     1       0.588   9.586  21.126  0.00  0.00    +0.000 A 
ATOM      7  S   UNL     1       1.383   8.018  21.422  0.00  0.00    +0.000 S 
ATOM      8  C   UNL     1       2.067   7.563  19.871  0.00  0.00    +0.000 A 
ATOM      9  C   UNL     1       2.689   6.302  19.809  0.00  0.00    +0.000 A 
ATOM     10  C   UNL     1       3.296   5.851  18.638  0.00  0.00    +0.000 A 
ATOM     11  C   UNL     1       3.283   6.660  17.511  0.00  0.00    +0.000 A 
ATOM     12  C   UNL     1       2.661   7.914  17.564  0.00  0.00    +0.000 A 
ATOM     13  C   UNL     1       2.050   8.376  18.746  0.00  0.00    +0.000 A 
ATOM     14  C   UNL     1       1.435   9.734  18.748  0.00  0.00    +0.000 A 
ATOM     15  O   UNL     1       1.617  10.419  17.739  0.00  0.00    +0.000 OA
ATOM     16  C   UNL     1       0.633  10.284  19.903  0.00  0.00    +0.000 A 
ENDROOT
BRANCH   1  17
ATOM     17  N   UNL     1       0.020  12.273  18.559  0.00  0.00    +0.000 N 
ATOM     18  H   UNL     1       0.507  13.164  18.729  0.00  0.00    +0.000 HD
BRANCH  17  19
ATOM     19  C   UNL     1      -1.128  12.443  17.658  0.00  0.00    +0.000 C 
BRANCH  19  20
ATOM     20  C   UNL     1      -2.010  11.188  17.407  0.00  0.00    +0.000 C 
BRANCH  20  21
ATOM     21  N   UNL     1      -3.366  11.422  16.867  0.00  0.00    +0.000 NA
BRANCH  21  23
ATOM     22  C   UNL     1      -2.964  10.214  14.699  0.00  0.00    +0.000 C 
ATOM     23  C   UNL     1      -3.761  10.311  15.990  0.00  0.00    +0.000 C 
ENDBRANCH  21  23
BRANCH  21  24
ATOM     24  C   UNL     1      -4.325  11.744  17.932  0.00  0.00    +0.000 C 
ATOM     25  C   UNL     1      -5.644  10.974  17.917  0.00  0.00    +0.000 C 
ENDBRANCH  21  24
ENDBRANCH  20  21
ENDBRANCH  19  20
ENDBRANCH  17  19
ENDBRANCH   1  17
BRANCH   2  26
ATOM     26  O   UNL     1      -1.708  13.054  20.597  0.00  0.00    +0.000 OA
ATOM     27  C   UNL     1      -3.048  13.074  21.057  0.00  0.00    +0.000 C 
ENDBRANCH   2  26
TORSDOF 7
ENDMDL
MODEL 8
REMARK VINA RESULT:      -6.0      3.353      5.348
REMARK  Name = 
REMARK  11 active torsions:
REMARK  status: ('A' for Active; 'I' for Inactive)
REMARK    1  A    between atoms: C_1  and  C_2
REMARK    2  A    between atoms: C_2  and  N_3
REMARK    3  A    between atoms: N_3  and  C_4
REMARK    4  A    between atoms: N_3  and  C_6
REMARK    5  A    between atoms: C_4  and  C_5
REMARK    6  A    between atoms: C_6  and  C_7
REMARK    7  A    between atoms: C_7  and  N_8
REMARK    8  A    between atoms: N_8  and  C_9
REMARK    9  A    between atoms: C_10  and  O_11
REMARK   10  A    between atoms: O_11  and  C_12
REMARK   11  A    between atoms: C_14  and  C_15
REMARK                            x       y       z     vdW  Elec       q    Type
REMARK                         _______ _______ _______ _____ _____    ______ ____
ROOT
ATOM      1  C   UNL     1       0.214  11.538  19.388  0.00  0.00    +0.000 A 
ATOM      2  C   UNL     1      -0.721  12.050  20.333  0.00  0.00    +0.000 A 
ATOM      3  C   UNL     1      -0.880  11.422  21.561  0.00  0.00    +0.000 A 
ATOM      4  C   UNL     1      -0.236  10.214  21.848  0.00  0.00    +0.000 A 
ATOM      5  C   UNL     1      -0.468   9.613  23.213  0.00  0.00    +0.000 C 
ATOM      6  C   UNL     1       0.568   9.592  20.858  0.00  0.00    +0.000 A 
ATOM      7  S   UNL     1       1.220   7.987  21.282  0.00  0.00    +0.000 S 
ATOM      8  C   UNL     1       2.057   7.448  19.836  0.00  0.00    +0.000 A 
ATOM      9  C   UNL     1       2.600   6.150  19.878  0.00  0.00    +0.000 A 
ATOM     10  C   UNL     1       3.315   5.631  18.800  0.00  0.00    +0.000 A 
ATOM     11  C   UNL     1       3.490   6.406  17.664  0.00  0.00    +0.000 A 
ATOM     12  C   UNL     1       2.948   7.697  17.614  0.00  0.00    +0.000 A 
ATOM     13  C   UNL     1       2.228   8.229  18.702  0.00  0.00    +0.000 A 
ATOM     14  C   UNL     1       1.707   9.621  18.600  0.00  0.00    +0.000 A 
ATOM     15  O   UNL     1       2.053  10.264  17.608  0.00  0.00    +0.000 OA
ATOM     16  C   UNL     1       0.807  10.251  19.636  0.00  0.00    +0.000 A 
ENDROOT
BRANCH   1  17
ATOM     17  N   UNL     1       0.490  12.235  18.187  0.00  0.00    +0.000 N 
ATOM     18  H   UNL     1       0.779  11.570  17.456  0.00  0.00    +0.000 HD
BRANCH  17  19
ATOM     19  C   UNL     1       1.297  13.463  18.155  0.00  0.00    +0.000 C 
BRANCH  19  20
ATOM     20  C   UNL     1       2.543  13.504  19.082  0.00  0.00    +0.000 C 
BRANCH  20  21
ATOM     21  N   UNL     1       3.233  14.804  19.218  0.00  0.00    +0.000 NA
BRANCH  21  23
ATOM     22  C   UNL     1       3.650  14.587  21.688  0.00  0.00    +0.000 C 
ATOM     23  C   UNL     1       4.234  14.738  20.292  0.00  0.00    +0.000 C 
ENDBRANCH  21  23
BRANCH  21  24
ATOM     24  C   UNL     1       3.739  15.285  17.926  0.00  0.00    +0.000 C 
ATOM     25  C   UNL     1       3.124  16.578  17.391  0.00  0.00    +0.000 C 
ENDBRANCH  21  24
ENDBRANCH  20  21
ENDBRANCH  19  20
ENDBRANCH  17  19
ENDBRANCH   1  17
BRANCH   2  26
ATOM     26  O   UNL     1      -1.419  13.177  19.980  0.00  0.00    +0.000 OA
ATOM     27  C   UNL     1      -2.696  13.441  20.537  0.00  0.00    +0.000 C 
ENDBRANCH   2  26
TORSDOF 7
ENDMDL
MODEL 9
REMARK VINA RESULT:      -6.0      3.506      5.521
REMARK  Name = 
REMARK  11 active torsions:
REMARK  status: ('A' for Active; 'I' for Inactive)
REMARK    1  A    between atoms: C_1  and  C_2
REMARK    2  A    between atoms: C_2  and  N_3
REMARK    3  A    between atoms: N_3  and  C_4
REMARK    4  A    between atoms: N_3  and  C_6
REMARK    5  A    between atoms: C_4  and  C_5
REMARK    6  A    between atoms: C_6  and  C_7
REMARK    7  A    between atoms: C_7  and  N_8
REMARK    8  A    between atoms: N_8  and  C_9
REMARK    9  A    between atoms: C_10  and  O_11
REMARK   10  A    between atoms: O_11  and  C_12
REMARK   11  A    between atoms: C_14  and  C_15
REMARK                            x       y       z     vdW  Elec       q    Type
REMARK                         _______ _______ _______ _____ _____    ______ ____
ROOT
ATOM      1  C   UNL     1       0.289  11.569  19.405  0.00  0.00    +0.000 A 
ATOM      2  C   UNL     1      -0.645  12.096  20.341  0.00  0.00    +0.000 A 
ATOM      3  C   UNL     1      -0.834  11.463  21.563  0.00  0.00    +0.000 A 
ATOM      4  C   UNL     1      -0.221  10.239  21.849  0.00  0.00    +0.000 A 
ATOM      5  C   UNL     1      -0.484   9.635  23.207  0.00  0.00    +0.000 C 
ATOM      6  C   UNL     1       0.581   9.605  20.865  0.00  0.00    +0.000 A 
ATOM      7  S   UNL     1       1.190   7.983  21.285  0.00  0.00    +0.000 S 
ATOM      8  C   UNL     1       2.032   7.435  19.846  0.00  0.00    +0.000 A 
ATOM      9  C   UNL     1       2.544   6.124  19.884  0.00  0.00    +0.000 A 
ATOM     10  C   UNL     1       3.260   5.595  18.812  0.00  0.00    +0.000 A 
ATOM     11  C   UNL     1       3.467   6.374  17.683  0.00  0.00    +0.000 A 
ATOM     12  C   UNL     1       2.955   7.677  17.636  0.00  0.00    +0.000 A 
ATOM     13  C   UNL     1       2.235   8.218  18.719  0.00  0.00    +0.000 A 
ATOM     14  C   UNL     1       1.747   9.623  18.621  0.00  0.00    +0.000 A 
ATOM     15  O   UNL     1       2.120  10.265  17.637  0.00  0.00    +0.000 OA
ATOM     16  C   UNL     1       0.849  10.267  19.650  0.00  0.00    +0.000 A 
ENDROOT
BRANCH   1  17
ATOM     17  N   UNL     1       0.596  12.268  18.211  0.00  0.00    +0.000 N 
ATOM     18  H   UNL     1       1.028  11.626  17.532  0.00  0.00    +0.000 HD
BRANCH  17  19
ATOM     19  C   UNL     1       1.255  13.581  18.214  0.00  0.00    +0.000 C 
BRANCH  19  20
ATOM     20  C   UNL     1       2.804  13.585  18.322  0.00  0.00    +0.000 C 
BRANCH  20  21
ATOM     21  N   UNL     1       3.505  14.800  17.853  0.00  0.00    +0.000 NA
BRANCH  21  23
ATOM     22  C   UNL     1       2.812  17.085  17.066  0.00  0.00    +0.000 C 
ATOM     23  C   UNL     1       2.684  15.991  18.114  0.00  0.00    +0.000 C 
ENDBRANCH  21  23
BRANCH  21  24
ATOM     24  C   UNL     1       4.878  14.866  18.368  0.00  0.00    +0.000 C 
ATOM     25  C   UNL     1       5.040  15.304  19.824  0.00  0.00    +0.000 C 
ENDBRANCH  21  24
ENDBRANCH  20  21
ENDBRANCH  19  20
ENDBRANCH  17  19
ENDBRANCH   1  17
BRANCH   2  26
ATOM     26  O   UNL     1      -1.313  13.241  19.988  0.00  0.00    +0.000 OA
ATOM     27  C   UNL     1      -1.998  14.009  20.962  0.00  0.00    +0.000 C 
ENDBRANCH   2  26
TORSDOF 7
ENDMDL
