MODEL 1
REMARK VINA RESULT:      -9.2      0.000      0.000
REMARK  Name = 
REMARK  6 active torsions:
REMARK  status: ('A' for Active; 'I' for Inactive)
REMARK    1  A    between atoms: C_1  and  O_2
REMARK    2  A    between atoms: O_2  and  C_3
REMARK    3  A    between atoms: C_5  and  C_6
REMARK    4  A    between atoms: C_8  and  C_9
REMARK    5  A    between atoms: C_22  and  O_23
REMARK    6  A    between atoms: O_23  and  C_24
REMARK                            x       y       z     vdW  Elec       q    Type
REMARK                         _______ _______ _______ _____ _____    ______ ____
ROOT
ATOM      1  C   UNL     1       3.084   5.722  18.118  0.00  0.00    +0.000 A 
ATOM      2  N   UNL     1       4.084   5.715  17.171  0.00  0.00    +0.000 NA
ATOM      3  C   UNL     1       4.477   4.462  17.080  0.00  0.00    +0.000 A 
ATOM      4  N   UNL     1       3.716   3.649  17.891  0.00  0.00    +0.000 N 
ATOM      5  N   UNL     1       3.821   2.317  18.040  0.00  0.00    +0.000 NA
ATOM      6  C   UNL     1       2.960   1.817  18.869  0.00  0.00    +0.000 A 
ATOM      7  N   UNL     1       1.990   2.499  19.561  0.00  0.00    +0.000 NA
ATOM      8  C   UNL     1       1.888   3.786  19.413  0.00  0.00    +0.000 A 
ATOM      9  N   UNL     1       0.887   4.394  20.110  0.00  0.00    +0.000 N 
ATOM     10  C   UNL     1       2.807   4.436  18.538  0.00  0.00    +0.000 A 
ATOM     11  H   UNL     1       0.222   3.746  20.516  0.00  0.00    +0.000 HD
ATOM     12  H   UNL     1       0.452   5.204  19.683  0.00  0.00    +0.000 HD
ENDROOT
BRANCH   1  15
ATOM     13  C   UNL     1       1.531   8.461  20.215  0.00  0.00    +0.000 A 
ATOM     14  C   UNL     1       2.100   7.235  19.843  0.00  0.00    +0.000 A 
ATOM     15  C   UNL     1       2.463   6.970  18.521  0.00  0.00    +0.000 A 
ATOM     16  C   UNL     1       2.270   7.961  17.558  0.00  0.00    +0.000 A 
ATOM     17  C   UNL     1       1.718   9.187  17.915  0.00  0.00    +0.000 A 
ATOM     18  C   UNL     1       1.395   9.467  19.254  0.00  0.00    +0.000 A 
BRANCH  13  20
ATOM     19  C   UNL     1      -0.271   8.392  21.778  0.00  0.00    +0.000 C 
ATOM     20  O   UNL     1       1.120   8.468  21.520  0.00  0.00    +0.000 OA
ENDBRANCH  13  20
BRANCH  18  21
ATOM     21  O   UNL     1       0.911  10.709  19.599  0.00  0.00    +0.000 OA
BRANCH  21  22
ATOM     22  C   UNL     1      -0.399  11.013  19.278  0.00  0.00    +0.000 A 
ATOM     23  C   UNL     1      -0.979  12.061  19.991  0.00  0.00    +0.000 A 
ATOM     24  C   UNL     1      -2.308  12.417  19.751  0.00  0.00    +0.000 A 
ATOM     25  C   UNL     1      -3.057  11.727  18.796  0.00  0.00    +0.000 A 
ATOM     26  C   UNL     1      -2.473  10.697  18.065  0.00  0.00    +0.000 A 
ATOM     27  C   UNL     1      -1.137  10.356  18.285  0.00  0.00    +0.000 A 
ENDBRANCH  21  22
ENDBRANCH  18  21
ENDBRANCH   1  15
BRANCH   3  28
ATOM     28  C   UNL     1       5.646   3.999  16.225  0.00  0.00    +0.000 C 
ATOM     29  C   UNL     1       5.567   4.452  14.735  0.00  0.00    +0.000 C 
ATOM     30  C   UNL     1       7.082   4.724  14.800  0.00  0.00    +0.000 C 
ATOM     31  C   UNL     1       6.890   4.938  16.309  0.00  0.00    +0.000 C 
ENDBRANCH   3  28
TORSDOF 5
ENDMDL
MODEL 2
REMARK VINA RESULT:      -9.1      0.979      1.015
REMARK  Name = 
REMARK  6 active torsions:
REMARK  status: ('A' for Active; 'I' for Inactive)
REMARK    1  A    between atoms: C_1  and  O_2
REMARK    2  A    between atoms: O_2  and  C_3
REMARK    3  A    between atoms: C_5  and  C_6
REMARK    4  A    between atoms: C_8  and  C_9
REMARK    5  A    between atoms: C_22  and  O_23
REMARK    6  A    between atoms: O_23  and  C_24
REMARK                            x       y       z     vdW  Elec       q    Type
REMARK                         _______ _______ _______ _____ _____    ______ ____
ROOT
ATOM      1  C   UNL     1       3.482   6.090  18.610  0.00  0.00    +0.000 A 
ATOM      2  N   UNL     1       4.464   6.067  17.643  0.00  0.00    +0.000 NA
ATOM      3  C   UNL     1       5.079   4.913  17.791  0.00  0.00    +0.000 A 
ATOM      4  N   UNL     1       4.483   4.162  18.780  0.00  0.00    +0.000 N 
ATOM      5  N   UNL     1       4.831   2.930  19.191  0.00  0.00    +0.000 NA
ATOM      6  C   UNL     1       4.079   2.467  20.139  0.00  0.00    +0.000 A 
ATOM      7  N   UNL     1       3.003   3.091  20.718  0.00  0.00    +0.000 NA
ATOM      8  C   UNL     1       2.666   4.281  20.317  0.00  0.00    +0.000 A 
ATOM      9  N   UNL     1       1.573   4.831  20.918  0.00  0.00    +0.000 N 
ATOM     10  C   UNL     1       3.447   4.891  19.292  0.00  0.00    +0.000 A 
ATOM     11  H   UNL     1       1.040   4.173  21.473  0.00  0.00    +0.000 HD
ATOM     12  H   UNL     1       0.996   5.445  20.354  0.00  0.00    +0.000 HD
ENDROOT
BRANCH   1  15
ATOM     13  C   UNL     1       1.192   8.696  20.119  0.00  0.00    +0.000 A 
ATOM     14  C   UNL     1       1.970   7.540  19.968  0.00  0.00    +0.000 A 
ATOM     15  C   UNL     1       2.644   7.263  18.777  0.00  0.00    +0.000 A 
ATOM     16  C   UNL     1       2.553   8.174  17.724  0.00  0.00    +0.000 A 
ATOM     17  C   UNL     1       1.794   9.332  17.864  0.00  0.00    +0.000 A 
ATOM     18  C   UNL     1       1.153   9.629  19.079  0.00  0.00    +0.000 A 
BRANCH  13  20
ATOM     19  C   UNL     1       1.154   9.254  22.439  0.00  0.00    +0.000 C 
ATOM     20  O   UNL     1       0.505   8.710  21.303  0.00  0.00    +0.000 OA
ENDBRANCH  13  20
BRANCH  18  21
ATOM     21  O   UNL     1       0.462  10.812  19.220  0.00  0.00    +0.000 OA
BRANCH  21  22
ATOM     22  C   UNL     1      -0.838  10.869  18.753  0.00  0.00    +0.000 A 
ATOM     23  C   UNL     1      -1.671  11.803  19.366  0.00  0.00    +0.000 A 
ATOM     24  C   UNL     1      -3.008  11.909  18.976  0.00  0.00    +0.000 A 
ATOM     25  C   UNL     1      -3.512  11.082  17.971  0.00  0.00    +0.000 A 
ATOM     26  C   UNL     1      -2.678  10.164  17.341  0.00  0.00    +0.000 A 
ATOM     27  C   UNL     1      -1.334  10.075  17.711  0.00  0.00    +0.000 A 
ENDBRANCH  21  22
ENDBRANCH  18  21
ENDBRANCH   1  15
BRANCH   3  28
ATOM     28  C   UNL     1       6.310   4.499  17.000  0.00  0.00    +0.000 C 
ATOM     29  C   UNL     1       6.004   4.012  15.550  0.00  0.00    +0.000 C 
ATOM     30  C   UNL     1       7.259   4.780  15.092  0.00  0.00    +0.000 C 
ATOM     31  C   UNL     1       7.035   5.695  16.306  0.00  0.00    +0.000 C 
ENDBRANCH   3  28
TORSDOF 5
ENDMDL
MODEL 3
REMARK VINA RESULT:      -8.8      1.618      2.145
REMARK  Name = 
REMARK  6 active torsions:
REMARK  status: ('A' for Active; 'I' for Inactive)
REMARK    1  A    between atoms: C_1  and  O_2
REMARK    2  A    between atoms: O_2  and  C_3
REMARK    3  A    between atoms: C_5  and  C_6
REMARK    4  A    between atoms: C_8  and  C_9
REMARK    5  A    between atoms: C_22  and  O_23
REMARK    6  A    between atoms: O_23  and  C_24
REMARK                            x       y       z     vdW  Elec       q    Type
REMARK                         _______ _______ _______ _____ _____    ______ ____
ROOT
ATOM      1  C   UNL     1       3.106   5.952  18.330  0.00  0.00    +0.000 A 
ATOM      2  N   UNL     1       4.171   5.976  17.456  0.00  0.00    +0.000 NA
ATOM      3  C   UNL     1       4.634   4.743  17.429  0.00  0.00    +0.000 A 
ATOM      4  N   UNL     1       3.860   3.911  18.207  0.00  0.00    +0.000 N 
ATOM      5  N   UNL     1       4.024   2.590  18.401  0.00  0.00    +0.000 NA
ATOM      6  C   UNL     1       3.133   2.066  19.181  0.00  0.00    +0.000 A 
ATOM      7  N   UNL     1       2.081   2.710  19.783  0.00  0.00    +0.000 NA
ATOM      8  C   UNL     1       1.923   3.986  19.592  0.00  0.00    +0.000 A 
ATOM      9  N   UNL     1       0.845   4.556  20.200  0.00  0.00    +0.000 N 
ATOM     10  C   UNL     1       2.868   4.664  18.765  0.00  0.00    +0.000 A 
ATOM     11  H   UNL     1       0.187   3.883  20.576  0.00  0.00    +0.000 HD
ATOM     12  H   UNL     1       0.400   5.331  19.720  0.00  0.00    +0.000 HD
ENDROOT
BRANCH   1  15
ATOM     13  C   UNL     1       1.426   8.741  20.255  0.00  0.00    +0.000 A 
ATOM     14  C   UNL     1       2.087   7.540  19.964  0.00  0.00    +0.000 A 
ATOM     15  C   UNL     1       2.394   7.173  18.652  0.00  0.00    +0.000 A 
ATOM     16  C   UNL     1       2.049   8.039  17.614  0.00  0.00    +0.000 A 
ATOM     17  C   UNL     1       1.405   9.242  17.888  0.00  0.00    +0.000 A 
ATOM     18  C   UNL     1       1.137   9.627  19.213  0.00  0.00    +0.000 A 
BRANCH  13  20
ATOM     19  C   UNL     1      -0.267   8.691  21.936  0.00  0.00    +0.000 C 
ATOM     20  O   UNL     1       1.095   8.845  21.579  0.00  0.00    +0.000 OA
ENDBRANCH  13  20
BRANCH  18  21
ATOM     21  O   UNL     1       0.558  10.850  19.470  0.00  0.00    +0.000 OA
BRANCH  21  22
ATOM     22  C   UNL     1       1.374  11.966  19.495  0.00  0.00    +0.000 A 
ATOM     23  C   UNL     1       1.511  12.600  20.729  0.00  0.00    +0.000 A 
ATOM     24  C   UNL     1       2.292  13.751  20.841  0.00  0.00    +0.000 A 
ATOM     25  C   UNL     1       2.940  14.270  19.718  0.00  0.00    +0.000 A 
ATOM     26  C   UNL     1       2.825  13.627  18.489  0.00  0.00    +0.000 A 
ATOM     27  C   UNL     1       2.064  12.460  18.381  0.00  0.00    +0.000 A 
ENDBRANCH  21  22
ENDBRANCH  18  21
ENDBRANCH   1  15
BRANCH   3  28
ATOM     28  C   UNL     1       5.884   4.323  16.671  0.00  0.00    +0.000 C 
ATOM     29  C   UNL     1       5.667   4.126  15.139  0.00  0.00    +0.000 C 
ATOM     30  C   UNL     1       7.034   4.803  14.919  0.00  0.00    +0.000 C 
ATOM     31  C   UNL     1       6.794   5.522  16.256  0.00  0.00    +0.000 C 
ENDBRANCH   3  28
TORSDOF 5
ENDMDL
MODEL 4
REMARK VINA RESULT:      -8.6      3.274      8.157
REMARK  Name = 
REMARK  6 active torsions:
REMARK  status: ('A' for Active; 'I' for Inactive)
REMARK    1  A    between atoms: C_1  and  O_2
REMARK    2  A    between atoms: O_2  and  C_3
REMARK    3  A    between atoms: C_5  and  C_6
REMARK    4  A    between atoms: C_8  and  C_9
REMARK    5  A    between atoms: C_22  and  O_23
REMARK    6  A    between atoms: O_23  and  C_24
REMARK                            x       y       z     vdW  Elec       q    Type
REMARK                         _______ _______ _______ _____ _____    ______ ____
ROOT
ATOM      1  C   UNL     1       0.948   8.963  19.385  0.00  0.00    +0.000 A 
ATOM      2  N   UNL     1       0.318   9.460  18.265  0.00  0.00    +0.000 NA
ATOM      3  C   UNL     1      -0.452  10.436  18.696  0.00  0.00    +0.000 A 
ATOM      4  N   UNL     1      -0.290  10.629  20.050  0.00  0.00    +0.000 N 
ATOM      5  N   UNL     1      -0.900  11.545  20.823  0.00  0.00    +0.000 NA
ATOM      6  C   UNL     1      -0.542  11.496  22.067  0.00  0.00    +0.000 A 
ATOM      7  N   UNL     1       0.372  10.640  22.630  0.00  0.00    +0.000 NA
ATOM      8  C   UNL     1       0.962   9.757  21.880  0.00  0.00    +0.000 A 
ATOM      9  N   UNL     1       1.876   8.957  22.500  0.00  0.00    +0.000 N 
ATOM     10  C   UNL     1       0.619   9.713  20.497  0.00  0.00    +0.000 A 
ATOM     11  H   UNL     1       2.124   9.269  23.431  0.00  0.00    +0.000 HD
ATOM     12  H   UNL     1       2.671   8.653  21.950  0.00  0.00    +0.000 HD
ENDROOT
BRANCH   1  15
ATOM     13  C   UNL     1       2.607   5.624  20.026  0.00  0.00    +0.000 A 
ATOM     14  C   UNL     1       1.765   6.736  20.163  0.00  0.00    +0.000 A 
ATOM     15  C   UNL     1       1.833   7.818  19.283  0.00  0.00    +0.000 A 
ATOM     16  C   UNL     1       2.750   7.775  18.233  0.00  0.00    +0.000 A 
ATOM     17  C   UNL     1       3.585   6.672  18.077  0.00  0.00    +0.000 A 
ATOM     18  C   UNL     1       3.483   5.567  18.938  0.00  0.00    +0.000 A 
BRANCH  13  20
ATOM     19  C   UNL     1       1.500   3.726  20.955  0.00  0.00    +0.000 C 
ATOM     20  O   UNL     1       2.480   4.743  21.065  0.00  0.00    +0.000 OA
ENDBRANCH  13  20
BRANCH  18  21
ATOM     21  O   UNL     1       4.272   4.457  18.727  0.00  0.00    +0.000 OA
BRANCH  21  22
ATOM     22  C   UNL     1       5.117   4.454  17.633  0.00  0.00    +0.000 A 
ATOM     23  C   UNL     1       6.459   4.730  17.892  0.00  0.00    +0.000 A 
ATOM     24  C   UNL     1       7.378   4.775  16.842  0.00  0.00    +0.000 A 
ATOM     25  C   UNL     1       6.956   4.543  15.532  0.00  0.00    +0.000 A 
ATOM     26  C   UNL     1       5.622   4.244  15.272  0.00  0.00    +0.000 A 
ATOM     27  C   UNL     1       4.707   4.172  16.324  0.00  0.00    +0.000 A 
ENDBRANCH  21  22
ENDBRANCH  18  21
ENDBRANCH   1  15
BRANCH   3  28
ATOM     28  C   UNL     1      -1.420  11.207  17.811  0.00  0.00    +0.000 C 
ATOM     29  C   UNL     1      -2.082  10.349  16.690  0.00  0.00    +0.000 C 
ATOM     30  C   UNL     1      -3.399  11.093  16.981  0.00  0.00    +0.000 C 
ATOM     31  C   UNL     1      -2.861  11.308  18.404  0.00  0.00    +0.000 C 
ENDBRANCH   3  28
TORSDOF 5
ENDMDL
MODEL 5
REMARK VINA RESULT:      -8.5      0.696      1.640
REMARK  Name = 
REMARK  6 active torsions:
REMARK  status: ('A' for Active; 'I' for Inactive)
REMARK    1  A    between atoms: C_1  and  O_2
REMARK    2  A    between atoms: O_2  and  C_3
REMARK    3  A    between atoms: C_5  and  C_6
REMARK    4  A    between atoms: C_8  and  C_9
REMARK    5  A    between atoms: C_22  and  O_23
REMARK    6  A    between atoms: O_23  and  C_24
REMARK                            x       y       z     vdW  Elec       q    Type
REMARK                         _______ _______ _______ _____ _____    ______ ____
ROOT
ATOM      1  C   UNL     1       3.129   5.741  18.231  0.00  0.00    +0.000 A 
ATOM      2  N   UNL     1       4.138   5.773  17.294  0.00  0.00    +0.000 NA
ATOM      3  C   UNL     1       4.500   4.519  17.120  0.00  0.00    +0.000 A 
ATOM      4  N   UNL     1       3.710   3.672  17.867  0.00  0.00    +0.000 N 
ATOM      5  N   UNL     1       3.780   2.331  17.925  0.00  0.00    +0.000 NA
ATOM      6  C   UNL     1       2.898   1.798  18.711  0.00  0.00    +0.000 A 
ATOM      7  N   UNL     1       1.939   2.456  19.440  0.00  0.00    +0.000 NA
ATOM      8  C   UNL     1       1.871   3.753  19.380  0.00  0.00    +0.000 A 
ATOM      9  N   UNL     1       0.879   4.337  20.110  0.00  0.00    +0.000 N 
ATOM     10  C   UNL     1       2.816   4.437  18.559  0.00  0.00    +0.000 A 
ATOM     11  H   UNL     1       0.195   3.681  20.464  0.00  0.00    +0.000 HD
ATOM     12  H   UNL     1       0.470   5.186  19.736  0.00  0.00    +0.000 HD
ENDROOT
BRANCH   1  15
ATOM     13  C   UNL     1       1.794   9.277  18.384  0.00  0.00    +0.000 A 
ATOM     14  C   UNL     1       2.400   8.107  17.908  0.00  0.00    +0.000 A 
ATOM     15  C   UNL     1       2.536   6.974  18.713  0.00  0.00    +0.000 A 
ATOM     16  C   UNL     1       2.036   7.010  20.015  0.00  0.00    +0.000 A 
ATOM     17  C   UNL     1       1.421   8.161  20.498  0.00  0.00    +0.000 A 
ATOM     18  C   UNL     1       1.246   9.283  19.671  0.00  0.00    +0.000 A 
BRANCH  13  20
ATOM     19  C   UNL     1       2.540  11.495  17.915  0.00  0.00    +0.000 C 
ATOM     20  O   UNL     1       1.886  10.311  17.493  0.00  0.00    +0.000 OA
ENDBRANCH  13  20
BRANCH  18  21
ATOM     21  O   UNL     1       0.576  10.389  20.145  0.00  0.00    +0.000 OA
BRANCH  21  22
ATOM     22  C   UNL     1      -0.632  10.721  19.560  0.00  0.00    +0.000 A 
ATOM     23  C   UNL     1      -1.239  11.888  20.024  0.00  0.00    +0.000 A 
ATOM     24  C   UNL     1      -2.475  12.284  19.509  0.00  0.00    +0.000 A 
ATOM     25  C   UNL     1      -3.105  11.515  18.529  0.00  0.00    +0.000 A 
ATOM     26  C   UNL     1      -2.491  10.363  18.046  0.00  0.00    +0.000 A 
ATOM     27  C   UNL     1      -1.243   9.980  18.541  0.00  0.00    +0.000 A 
ENDBRANCH  21  22
ENDBRANCH  18  21
ENDBRANCH   1  15
BRANCH   3  28
ATOM     28  C   UNL     1       5.665   4.085  16.245  0.00  0.00    +0.000 C 
ATOM     29  C   UNL     1       5.493   4.432  14.734  0.00  0.00    +0.000 C 
ATOM     30  C   UNL     1       6.985   4.815  14.714  0.00  0.00    +0.000 C 
ATOM     31  C   UNL     1       6.839   5.114  16.214  0.00  0.00    +0.000 C 
ENDBRANCH   3  28
TORSDOF 5
ENDMDL
MODEL 6
REMARK VINA RESULT:      -8.5      3.599      8.339
REMARK  Name = 
REMARK  6 active torsions:
REMARK  status: ('A' for Active; 'I' for Inactive)
REMARK    1  A    between atoms: C_1  and  O_2
REMARK    2  A    between atoms: O_2  and  C_3
REMARK    3  A    between atoms: C_5  and  C_6
REMARK    4  A    between atoms: C_8  and  C_9
REMARK    5  A    between atoms: C_22  and  O_23
REMARK    6  A    between atoms: O_23  and  C_24
REMARK                            x       y       z     vdW  Elec       q    Type
REMARK                         _______ _______ _______ _____ _____    ______ ____
ROOT
ATOM      1  C   UNL     1       0.355   9.702  19.416  0.00  0.00    +0.000 A 
ATOM      2  N   UNL     1      -0.396  10.280  18.416  0.00  0.00    +0.000 NA
ATOM      3  C   UNL     1      -1.244  11.080  19.028  0.00  0.00    +0.000 A 
ATOM      4  N   UNL     1      -1.020  11.087  20.387  0.00  0.00    +0.000 N 
ATOM      5  N   UNL     1      -1.680  11.795  21.320  0.00  0.00    +0.000 NA
ATOM      6  C   UNL     1      -1.241  11.605  22.524  0.00  0.00    +0.000 A 
ATOM      7  N   UNL     1      -0.203  10.792  22.904  0.00  0.00    +0.000 NA
ATOM      8  C   UNL     1       0.436  10.110  22.001  0.00  0.00    +0.000 A 
ATOM      9  N   UNL     1       1.472   9.344  22.447  0.00  0.00    +0.000 N 
ATOM     10  C   UNL     1       0.014  10.232  20.644  0.00  0.00    +0.000 A 
ATOM     11  H   UNL     1       1.741   9.541  23.403  0.00  0.00    +0.000 HD
ATOM     12  H   UNL     1       2.260   9.225  21.821  0.00  0.00    +0.000 HD
ENDROOT
BRANCH   1  15
ATOM     13  C   UNL     1       2.489   6.581  19.520  0.00  0.00    +0.000 A 
ATOM     14  C   UNL     1       1.538   7.550  19.866  0.00  0.00    +0.000 A 
ATOM     15  C   UNL     1       1.356   8.702  19.097  0.00  0.00    +0.000 A 
ATOM     16  C   UNL     1       2.129   8.874  17.948  0.00  0.00    +0.000 A 
ATOM     17  C   UNL     1       3.068   7.913  17.585  0.00  0.00    +0.000 A 
ATOM     18  C   UNL     1       3.218   6.735  18.337  0.00  0.00    +0.000 A 
BRANCH  13  20
ATOM     19  C   UNL     1       1.754   4.479  20.379  0.00  0.00    +0.000 C 
ATOM     20  O   UNL     1       2.608   5.606  20.473  0.00  0.00    +0.000 OA
ENDBRANCH  13  20
BRANCH  18  21
ATOM     21  O   UNL     1       4.106   5.766  17.926  0.00  0.00    +0.000 OA
BRANCH  21  22
ATOM     22  C   UNL     1       5.455   5.988  18.128  0.00  0.00    +0.000 A 
ATOM     23  C   UNL     1       6.027   5.343  19.224  0.00  0.00    +0.000 A 
ATOM     24  C   UNL     1       7.379   5.534  19.519  0.00  0.00    +0.000 A 
ATOM     25  C   UNL     1       8.160   6.368  18.718  0.00  0.00    +0.000 A 
ATOM     26  C   UNL     1       7.598   6.995  17.610  0.00  0.00    +0.000 A 
ATOM     27  C   UNL     1       6.254   6.785  17.298  0.00  0.00    +0.000 A 
ENDBRANCH  21  22
ENDBRANCH  18  21
ENDBRANCH   1  15
BRANCH   3  28
ATOM     28  C   UNL     1      -2.347  11.851  18.319  0.00  0.00    +0.000 C 
ATOM     29  C   UNL     1      -2.601  11.395  16.849  0.00  0.00    +0.000 C 
ATOM     30  C   UNL     1      -4.109  11.554  17.124  0.00  0.00    +0.000 C 
ATOM     31  C   UNL     1      -3.778  11.293  18.601  0.00  0.00    +0.000 C 
ENDBRANCH   3  28
TORSDOF 5
ENDMDL
MODEL 7
REMARK VINA RESULT:      -8.4      3.193      7.920
REMARK  Name = 
REMARK  6 active torsions:
REMARK  status: ('A' for Active; 'I' for Inactive)
REMARK    1  A    between atoms: C_1  and  O_2
REMARK    2  A    between atoms: O_2  and  C_3
REMARK    3  A    between atoms: C_5  and  C_6
REMARK    4  A    between atoms: C_8  and  C_9
REMARK    5  A    between atoms: C_22  and  O_23
REMARK    6  A    between atoms: O_23  and  C_24
REMARK                            x       y       z     vdW  Elec       q    Type
REMARK                         _______ _______ _______ _____ _____    ______ ____
ROOT
ATOM      1  C   UNL     1       3.427   5.775  19.007  0.00  0.00    +0.000 A 
ATOM      2  N   UNL     1       2.922   6.962  19.490  0.00  0.00    +0.000 NA
ATOM      3  C   UNL     1       1.886   6.631  20.231  0.00  0.00    +0.000 A 
ATOM      4  N   UNL     1       1.745   5.262  20.294  0.00  0.00    +0.000 N 
ATOM      5  N   UNL     1       0.812   4.568  20.970  0.00  0.00    +0.000 NA
ATOM      6  C   UNL     1       0.933   3.284  20.852  0.00  0.00    +0.000 A 
ATOM      7  N   UNL     1       1.894   2.608  20.143  0.00  0.00    +0.000 NA
ATOM      8  C   UNL     1       2.797   3.280  19.493  0.00  0.00    +0.000 A 
ATOM      9  N   UNL     1       3.735   2.544  18.832  0.00  0.00    +0.000 N 
ATOM     10  C   UNL     1       2.737   4.704  19.540  0.00  0.00    +0.000 A 
ATOM     11  H   UNL     1       3.729   1.562  19.078  0.00  0.00    +0.000 HD
ATOM     12  H   UNL     1       4.666   2.938  18.763  0.00  0.00    +0.000 HD
ENDROOT
BRANCH   1  15
ATOM     13  C   UNL     1       6.866   5.249  17.522  0.00  0.00    +0.000 A 
ATOM     14  C   UNL     1       5.804   5.270  18.436  0.00  0.00    +0.000 A 
ATOM     15  C   UNL     1       4.549   5.774  18.088  0.00  0.00    +0.000 A 
ATOM     16  C   UNL     1       4.350   6.247  16.790  0.00  0.00    +0.000 A 
ATOM     17  C   UNL     1       5.391   6.220  15.867  0.00  0.00    +0.000 A 
ATOM     18  C   UNL     1       6.640   5.672  16.208  0.00  0.00    +0.000 A 
BRANCH  13  20
ATOM     19  C   UNL     1       8.324   5.306  19.409  0.00  0.00    +0.000 C 
ATOM     20  O   UNL     1       8.041   4.850  18.098  0.00  0.00    +0.000 OA
ENDBRANCH  13  20
BRANCH  18  21
ATOM     21  O   UNL     1       7.638   5.594  15.262  0.00  0.00    +0.000 OA
BRANCH  21  22
ATOM     22  C   UNL     1       7.341   5.008  14.046  0.00  0.00    +0.000 A 
ATOM     23  C   UNL     1       6.401   3.979  14.073  0.00  0.00    +0.000 A 
ATOM     24  C   UNL     1       6.062   3.311  12.895  0.00  0.00    +0.000 A 
ATOM     25  C   UNL     1       6.661   3.673  11.687  0.00  0.00    +0.000 A 
ATOM     26  C   UNL     1       7.582   4.716  11.652  0.00  0.00    +0.000 A 
ATOM     27  C   UNL     1       7.903   5.402  12.825  0.00  0.00    +0.000 A 
ENDBRANCH  21  22
ENDBRANCH  18  21
ENDBRANCH   1  15
BRANCH   3  28
ATOM     28  C   UNL     1       0.951   7.638  20.883  0.00  0.00    +0.000 C 
ATOM     29  C   UNL     1       1.638   8.550  21.946  0.00  0.00    +0.000 C 
ATOM     30  C   UNL     1       0.809   9.723  21.387  0.00  0.00    +0.000 C 
ATOM     31  C   UNL     1       0.778   8.952  20.058  0.00  0.00    +0.000 C 
ENDBRANCH   3  28
TORSDOF 5
ENDMDL
MODEL 8
REMARK VINA RESULT:      -8.4      3.564      8.177
REMARK  Name = 
REMARK  6 active torsions:
REMARK  status: ('A' for Active; 'I' for Inactive)
REMARK    1  A    between atoms: C_1  and  O_2
REMARK    2  A    between atoms: O_2  and  C_3
REMARK    3  A    between atoms: C_5  and  C_6
REMARK    4  A    between atoms: C_8  and  C_9
REMARK    5  A    between atoms: C_22  and  O_23
REMARK    6  A    between atoms: O_23  and  C_24
REMARK                            x       y       z     vdW  Elec       q    Type
REMARK                         _______ _______ _______ _____ _____    ______ ____
ROOT
ATOM      1  C   UNL     1       0.665   9.517  19.330  0.00  0.00    +0.000 A 
ATOM      2  N   UNL     1      -0.044  10.100  18.303  0.00  0.00    +0.000 NA
ATOM      3  C   UNL     1      -0.896  10.919  18.881  0.00  0.00    +0.000 A 
ATOM      4  N   UNL     1      -0.715  10.933  20.247  0.00  0.00    +0.000 N 
ATOM      5  N   UNL     1      -1.391  11.661  21.153  0.00  0.00    +0.000 NA
ATOM      6  C   UNL     1      -0.993  11.473  22.372  0.00  0.00    +0.000 A 
ATOM      7  N   UNL     1       0.019  10.646  22.791  0.00  0.00    +0.000 NA
ATOM      8  C   UNL     1       0.673   9.945  21.913  0.00  0.00    +0.000 A 
ATOM      9  N   UNL     1       1.681   9.165  22.397  0.00  0.00    +0.000 N 
ATOM     10  C   UNL     1       0.295  10.063  20.543  0.00  0.00    +0.000 A 
ATOM     11  H   UNL     1       1.924   9.365  23.360  0.00  0.00    +0.000 HD
ATOM     12  H   UNL     1       2.486   9.026  21.797  0.00  0.00    +0.000 HD
ENDROOT
BRANCH   1  15
ATOM     13  C   UNL     1       2.765   6.378  19.549  0.00  0.00    +0.000 A 
ATOM     14  C   UNL     1       1.822   7.368  19.856  0.00  0.00    +0.000 A 
ATOM     15  C   UNL     1       1.658   8.497  19.050  0.00  0.00    +0.000 A 
ATOM     16  C   UNL     1       2.441   8.624  17.903  0.00  0.00    +0.000 A 
ATOM     17  C   UNL     1       3.374   7.643  17.578  0.00  0.00    +0.000 A 
ATOM     18  C   UNL     1       3.504   6.488  18.367  0.00  0.00    +0.000 A 
BRANCH  13  20
ATOM     19  C   UNL     1       1.700   4.702  20.873  0.00  0.00    +0.000 C 
ATOM     20  O   UNL     1       2.866   5.432  20.532  0.00  0.00    +0.000 OA
ENDBRANCH  13  20
BRANCH  18  21
ATOM     21  O   UNL     1       4.385   5.497  17.994  0.00  0.00    +0.000 OA
BRANCH  21  22
ATOM     22  C   UNL     1       4.004   4.180  18.177  0.00  0.00    +0.000 A 
ATOM     23  C   UNL     1       2.930   3.738  17.406  0.00  0.00    +0.000 A 
ATOM     24  C   UNL     1       2.459   2.432  17.547  0.00  0.00    +0.000 A 
ATOM     25  C   UNL     1       3.064   1.564  18.459  0.00  0.00    +0.000 A 
ATOM     26  C   UNL     1       4.151   1.994  19.213  0.00  0.00    +0.000 A 
ATOM     27  C   UNL     1       4.639   3.293  19.054  0.00  0.00    +0.000 A 
ENDBRANCH  21  22
ENDBRANCH  18  21
ENDBRANCH   1  15
BRANCH   3  28
ATOM     28  C   UNL     1      -1.963  11.703  18.132  0.00  0.00    +0.000 C 
ATOM     29  C   UNL     1      -2.304  11.129  16.723  0.00  0.00    +0.000 C 
ATOM     30  C   UNL     1      -3.785  11.433  17.024  0.00  0.00    +0.000 C 
ATOM     31  C   UNL     1      -3.420  11.290  18.510  0.00  0.00    +0.000 C 
ENDBRANCH   3  28
TORSDOF 5
ENDMDL
MODEL 9
REMARK VINA RESULT:      -8.3      1.690      2.226
REMARK  Name = 
REMARK  6 active torsions:
REMARK  status: ('A' for Active; 'I' for Inactive)
REMARK    1  A    between atoms: C_1  and  O_2
REMARK    2  A    between atoms: O_2  and  C_3
REMARK    3  A    between atoms: C_5  and  C_6
REMARK    4  A    between atoms: C_8  and  C_9
REMARK    5  A    between atoms: C_22  and  O_23
REMARK    6  A    between atoms: O_23  and  C_24
REMARK                            x       y       z     vdW  Elec       q    Type
REMARK                         _______ _______ _______ _____ _____    ______ ____
ROOT
ATOM      1  C   UNL     1       3.175   6.428  18.484  0.00  0.00    +0.000 A 
ATOM      2  N   UNL     1       4.077   6.497  17.445  0.00  0.00    +0.000 NA
ATOM      3  C   UNL     1       4.746   5.364  17.482  0.00  0.00    +0.000 A 
ATOM      4  N   UNL     1       4.260   4.538  18.471  0.00  0.00    +0.000 N 
ATOM      5  N   UNL     1       4.687   3.303  18.786  0.00  0.00    +0.000 NA
ATOM      6  C   UNL     1       4.031   2.760  19.763  0.00  0.00    +0.000 A 
ATOM      7  N   UNL     1       2.981   3.307  20.457  0.00  0.00    +0.000 NA
ATOM      8  C   UNL     1       2.568   4.501  20.149  0.00  0.00    +0.000 A 
ATOM      9  N   UNL     1       1.506   4.971  20.862  0.00  0.00    +0.000 N 
ATOM     10  C   UNL     1       3.241   5.195  19.100  0.00  0.00    +0.000 A 
ATOM     11  H   UNL     1       1.045   4.263  21.420  0.00  0.00    +0.000 HD
ATOM     12  H   UNL     1       0.863   5.588  20.378  0.00  0.00    +0.000 HD
ENDROOT
BRANCH   1  15
ATOM     13  C   UNL     1       0.987   8.903  20.327  0.00  0.00    +0.000 A 
ATOM     14  C   UNL     1       1.796   7.791  20.057  0.00  0.00    +0.000 A 
ATOM     15  C   UNL     1       2.309   7.554  18.780  0.00  0.00    +0.000 A 
ATOM     16  C   UNL     1       2.022   8.461  17.760  0.00  0.00    +0.000 A 
ATOM     17  C   UNL     1       1.231   9.577  18.016  0.00  0.00    +0.000 A 
ATOM     18  C   UNL     1       0.753   9.836  19.313  0.00  0.00    +0.000 A 
BRANCH  13  20
ATOM     19  C   UNL     1       1.293   9.351  22.651  0.00  0.00    +0.000 C 
ATOM     20  O   UNL     1       0.475   8.877  21.596  0.00  0.00    +0.000 OA
ENDBRANCH  13  20
BRANCH  18  21
ATOM     21  O   UNL     1       0.027  10.979  19.562  0.00  0.00    +0.000 OA
BRANCH  21  22
ATOM     22  C   UNL     1       0.705  12.182  19.629  0.00  0.00    +0.000 A 
ATOM     23  C   UNL     1       0.276  13.180  18.755  0.00  0.00    +0.000 A 
ATOM     24  C   UNL     1       0.923  14.417  18.735  0.00  0.00    +0.000 A 
ATOM     25  C   UNL     1       1.999  14.659  19.591  0.00  0.00    +0.000 A 
ATOM     26  C   UNL     1       2.415  13.674  20.481  0.00  0.00    +0.000 A 
ATOM     27  C   UNL     1       1.753  12.445  20.521  0.00  0.00    +0.000 A 
ENDBRANCH  21  22
ENDBRANCH  18  21
ENDBRANCH   1  15
BRANCH   3  28
ATOM     28  C   UNL     1       5.926   5.045  16.576  0.00  0.00    +0.000 C 
ATOM     29  C   UNL     1       5.772   3.718  15.771  0.00  0.00    +0.000 C 
ATOM     30  C   UNL     1       6.392   4.449  14.564  0.00  0.00    +0.000 C 
ATOM     31  C   UNL     1       5.850   5.746  15.183  0.00  0.00    +0.000 C 
ENDBRANCH   3  28
TORSDOF 5
ENDMDL
