MODEL 1
REMARK VINA RESULT:      -8.7      0.000      0.000
REMARK  Name = 
REMARK  5 active torsions:
REMARK  status: ('A' for Active; 'I' for Inactive)
REMARK    1  A    between atoms: C_2  and  C_3
REMARK    2  A    between atoms: N_10  and  C_11
REMARK    3  A    between atoms: C_11  and  C_12
REMARK    4  A    between atoms: N_17  and  C_18
REMARK    5  A    between atoms: C_22  and  C_23
REMARK                            x       y       z     vdW  Elec       q    Type
REMARK                         _______ _______ _______ _____ _____    ______ ____
ROOT
ATOM      1  C   UNL     1       0.833   8.975  20.060  0.00  0.00    +0.000 C 
ATOM      2  O   UNL     1       0.018   8.919  20.989  0.00  0.00    +0.000 OA
ATOM      3  N   UNL     1       1.855   8.041  19.948  0.00  0.00    +0.000 N 
ATOM      4  C   UNL     1       1.876   6.962  20.934  0.00  0.00    +0.000 C 
ATOM      5  C   UNL     1       1.172   5.718  20.374  0.00  0.00    +0.000 C 
ATOM      6  N   UNL     1       1.811   5.313  19.102  0.00  0.00    +0.000 N 
ATOM      7  C   UNL     1       1.899   6.376  18.086  0.00  0.00    +0.000 C 
ATOM      8  C   UNL     1       2.525   7.656  18.695  0.00  0.00    +0.000 C 
ENDROOT
BRANCH   6   9
ATOM      9  C   UNL     1       2.261   4.025  18.916  0.00  0.00    +0.000 A 
ATOM     10  S   UNL     1       1.231   2.640  19.104  0.00  0.00    +0.000 S 
ATOM     11  C   UNL     1       2.425   1.639  18.405  0.00  0.00    +0.000 A 
ATOM     12  N   UNL     1       3.548   2.221  18.058  0.00  0.00    +0.000 NA
ATOM     13  C   UNL     1       3.500   3.548  18.464  0.00  0.00    +0.000 A 
BRANCH  13  14
ATOM     14  C   UNL     1       4.730   4.392  18.349  0.00  0.00    +0.000 A 
ATOM     15  N   UNL     1       5.731   4.406  19.204  0.00  0.00    +0.000 NA
ATOM     16  C   UNL     1       6.557   5.416  18.792  0.00  0.00    +0.000 A 
ATOM     17  C   UNL     1       7.753   5.869  19.361  0.00  0.00    +0.000 A 
ATOM     18  C   UNL     1       8.380   6.981  18.792  0.00  0.00    +0.000 A 
ATOM     19  C   UNL     1       7.818   7.631  17.690  0.00  0.00    +0.000 A 
ATOM     20  C   UNL     1       6.631   7.179  17.097  0.00  0.00    +0.000 A 
ATOM     21  C   UNL     1       6.040   6.049  17.667  0.00  0.00    +0.000 A 
ATOM     22  N   UNL     1       4.924   5.314  17.351  0.00  0.00    +0.000 N 
ATOM     23  H   UNL     1       4.270   5.492  16.603  0.00  0.00    +0.000 HD
ENDBRANCH  13  14
ENDBRANCH   6   9
BRANCH   1  24
ATOM     24  C   UNL     1       0.743  10.124  19.068  0.00  0.00    +0.000 C 
BRANCH  24  32
ATOM     25  C   UNL     1      -1.617  12.137  20.255  0.00  0.00    +0.000 A 
ATOM     26  C   UNL     1      -2.819  12.799  20.565  0.00  0.00    +0.000 A 
ATOM     27  C   UNL     1      -3.969  12.588  19.819  0.00  0.00    +0.000 A 
ATOM     28  C   UNL     1      -3.941  11.716  18.734  0.00  0.00    +0.000 A 
ATOM     29  C   UNL     1      -2.755  11.025  18.407  0.00  0.00    +0.000 A 
ATOM     30  C   UNL     1      -2.451  10.114  17.366  0.00  0.00    +0.000 A 
ATOM     31  C   UNL     1      -1.140   9.749  17.513  0.00  0.00    +0.000 A 
ATOM     32  N   UNL     1      -0.629  10.369  18.635  0.00  0.00    +0.000 N 
ATOM     33  C   UNL     1      -1.591  11.214  19.180  0.00  0.00    +0.000 A 
BRANCH  25  35
ATOM     34  N   UNL     1       0.487  12.689  21.655  0.00  0.00    +0.000 NA
ATOM     35  C   UNL     1      -0.453  12.444  21.022  0.00  0.00    +0.000 C 
ENDBRANCH  25  35
ENDBRANCH  24  32
ENDBRANCH   1  24
TORSDOF 5
ENDMDL
MODEL 2
REMARK VINA RESULT:      -8.1      2.932      9.764
REMARK  Name = 
REMARK  5 active torsions:
REMARK  status: ('A' for Active; 'I' for Inactive)
REMARK    1  A    between atoms: C_2  and  C_3
REMARK    2  A    between atoms: N_10  and  C_11
REMARK    3  A    between atoms: C_11  and  C_12
REMARK    4  A    between atoms: N_17  and  C_18
REMARK    5  A    between atoms: C_22  and  C_23
REMARK                            x       y       z     vdW  Elec       q    Type
REMARK                         _______ _______ _______ _____ _____    ______ ____
ROOT
ATOM      1  C   UNL     1       1.718   7.991  20.263  0.00  0.00    +0.000 C 
ATOM      2  O   UNL     1       1.805   7.818  21.485  0.00  0.00    +0.000 OA
ATOM      3  N   UNL     1       0.885   8.970  19.737  0.00  0.00    +0.000 N 
ATOM      4  C   UNL     1       0.176   9.819  20.693  0.00  0.00    +0.000 C 
ATOM      5  C   UNL     1       0.955  11.121  20.924  0.00  0.00    +0.000 C 
ATOM      6  N   UNL     1       1.171  11.811  19.633  0.00  0.00    +0.000 N 
ATOM      7  C   UNL     1       1.808  10.988  18.590  0.00  0.00    +0.000 C 
ATOM      8  C   UNL     1       1.066   9.636  18.437  0.00  0.00    +0.000 C 
ENDROOT
BRANCH   6   9
ATOM      9  C   UNL     1       0.803  13.126  19.462  0.00  0.00    +0.000 A 
ATOM     10  S   UNL     1       1.946  14.432  19.547  0.00  0.00    +0.000 S 
ATOM     11  C   UNL     1       0.776  15.513  18.929  0.00  0.00    +0.000 A 
ATOM     12  N   UNL     1      -0.411  15.014  18.681  0.00  0.00    +0.000 NA
ATOM     13  C   UNL     1      -0.429  13.691  19.103  0.00  0.00    +0.000 A 
BRANCH  13  14
ATOM     14  C   UNL     1      -1.724  12.941  19.099  0.00  0.00    +0.000 A 
ATOM     15  N   UNL     1      -2.063  12.007  18.236  0.00  0.00    +0.000 NA
ATOM     16  C   UNL     1      -3.369  11.705  18.512  0.00  0.00    +0.000 A 
ATOM     17  C   UNL     1      -4.219  10.792  17.877  0.00  0.00    +0.000 A 
ATOM     18  C   UNL     1      -5.550  10.719  18.298  0.00  0.00    +0.000 A 
ATOM     19  C   UNL     1      -6.021  11.547  19.321  0.00  0.00    +0.000 A 
ATOM     20  C   UNL     1      -5.178  12.453  19.979  0.00  0.00    +0.000 A 
ATOM     21  C   UNL     1      -3.847  12.486  19.558  0.00  0.00    +0.000 A 
ATOM     22  N   UNL     1      -2.749  13.196  19.975  0.00  0.00    +0.000 N 
ATOM     23  H   UNL     1      -2.716  13.894  20.704  0.00  0.00    +0.000 HD
ENDBRANCH  13  14
ENDBRANCH   6   9
BRANCH   1  24
ATOM     24  C   UNL     1       2.491   7.072  19.330  0.00  0.00    +0.000 C 
BRANCH  24  32
ATOM     25  C   UNL     1       3.542   4.301  17.830  0.00  0.00    +0.000 A 
ATOM     26  C   UNL     1       3.724   2.990  17.354  0.00  0.00    +0.000 A 
ATOM     27  C   UNL     1       3.050   1.920  17.922  0.00  0.00    +0.000 A 
ATOM     28  C   UNL     1       2.184   2.135  18.992  0.00  0.00    +0.000 A 
ATOM     29  C   UNL     1       1.969   3.440  19.482  0.00  0.00    +0.000 A 
ATOM     30  C   UNL     1       1.175   3.928  20.547  0.00  0.00    +0.000 A 
ATOM     31  C   UNL     1       1.338   5.286  20.590  0.00  0.00    +0.000 A 
ATOM     32  N   UNL     1       2.174   5.666  19.560  0.00  0.00    +0.000 N 
ATOM     33  C   UNL     1       2.630   4.535  18.888  0.00  0.00    +0.000 A 
BRANCH  25  35
ATOM     34  N   UNL     1       4.947   6.199  16.772  0.00  0.00    +0.000 NA
ATOM     35  C   UNL     1       4.312   5.352  17.244  0.00  0.00    +0.000 C 
ENDBRANCH  25  35
ENDBRANCH  24  32
ENDBRANCH   1  24
TORSDOF 5
ENDMDL
MODEL 3
REMARK VINA RESULT:      -7.7      4.168      8.639
REMARK  Name = 
REMARK  5 active torsions:
REMARK  status: ('A' for Active; 'I' for Inactive)
REMARK    1  A    between atoms: C_2  and  C_3
REMARK    2  A    between atoms: N_10  and  C_11
REMARK    3  A    between atoms: C_11  and  C_12
REMARK    4  A    between atoms: N_17  and  C_18
REMARK    5  A    between atoms: C_22  and  C_23
REMARK                            x       y       z     vdW  Elec       q    Type
REMARK                         _______ _______ _______ _____ _____    ______ ____
ROOT
ATOM      1  C   UNL     1       1.748   8.264  20.107  0.00  0.00    +0.000 C 
ATOM      2  O   UNL     1       1.727   8.153  21.338  0.00  0.00    +0.000 OA
ATOM      3  N   UNL     1       0.981   9.226  19.461  0.00  0.00    +0.000 N 
ATOM      4  C   UNL     1       0.208  10.133  20.309  0.00  0.00    +0.000 C 
ATOM      5  C   UNL     1       0.987  11.434  20.541  0.00  0.00    +0.000 C 
ATOM      6  N   UNL     1       1.325  12.054  19.241  0.00  0.00    +0.000 N 
ATOM      7  C   UNL     1       2.036  11.170  18.300  0.00  0.00    +0.000 C 
ATOM      8  C   UNL     1       1.285   9.823  18.151  0.00  0.00    +0.000 C 
ENDROOT
BRANCH   6   9
ATOM      9  C   UNL     1       0.997  13.364  18.973  0.00  0.00    +0.000 A 
ATOM     10  S   UNL     1      -0.634  13.872  18.664  0.00  0.00    +0.000 S 
ATOM     11  C   UNL     1      -0.162  15.509  18.785  0.00  0.00    +0.000 A 
ATOM     12  N   UNL     1       1.110  15.737  19.010  0.00  0.00    +0.000 NA
ATOM     13  C   UNL     1       1.785  14.524  18.991  0.00  0.00    +0.000 A 
BRANCH  13  14
ATOM     14  C   UNL     1       3.280  14.519  19.043  0.00  0.00    +0.000 A 
ATOM     15  N   UNL     1       4.009  14.836  20.092  0.00  0.00    +0.000 NA
ATOM     16  C   UNL     1       5.306  14.837  19.656  0.00  0.00    +0.000 A 
ATOM     17  C   UNL     1       6.478  15.130  20.364  0.00  0.00    +0.000 A 
ATOM     18  C   UNL     1       7.690  15.139  19.668  0.00  0.00    +0.000 A 
ATOM     19  C   UNL     1       7.728  14.874  18.296  0.00  0.00    +0.000 A 
ATOM     20  C   UNL     1       6.566  14.562  17.577  0.00  0.00    +0.000 A 
ATOM     21  C   UNL     1       5.372  14.532  18.301  0.00  0.00    +0.000 A 
ATOM     22  N   UNL     1       4.075  14.240  17.959  0.00  0.00    +0.000 N 
ATOM     23  H   UNL     1       3.726  13.999  17.043  0.00  0.00    +0.000 HD
ENDBRANCH  13  14
ENDBRANCH   6   9
BRANCH   1  24
ATOM     24  C   UNL     1       2.582   7.288  19.291  0.00  0.00    +0.000 C 
BRANCH  24  32
ATOM     25  C   UNL     1       3.415   4.470  17.744  0.00  0.00    +0.000 A 
ATOM     26  C   UNL     1       3.500   3.154  17.255  0.00  0.00    +0.000 A 
ATOM     27  C   UNL     1       2.777   2.123  17.836  0.00  0.00    +0.000 A 
ATOM     28  C   UNL     1       1.957   2.383  18.931  0.00  0.00    +0.000 A 
ATOM     29  C   UNL     1       1.839   3.695  19.436  0.00  0.00    +0.000 A 
ATOM     30  C   UNL     1       1.108   4.223  20.527  0.00  0.00    +0.000 A 
ATOM     31  C   UNL     1       1.357   5.568  20.573  0.00  0.00    +0.000 A 
ATOM     32  N   UNL     1       2.185   5.903  19.522  0.00  0.00    +0.000 N 
ATOM     33  C   UNL     1       2.550   4.752  18.830  0.00  0.00    +0.000 A 
BRANCH  25  35
ATOM     34  N   UNL     1       4.903   6.282  16.652  0.00  0.00    +0.000 NA
ATOM     35  C   UNL     1       4.231   5.475  17.142  0.00  0.00    +0.000 C 
ENDBRANCH  25  35
ENDBRANCH  24  32
ENDBRANCH   1  24
TORSDOF 5
ENDMDL
MODEL 4
REMARK VINA RESULT:      -7.7      1.666      2.411
REMARK  Name = 
REMARK  5 active torsions:
REMARK  status: ('A' for Active; 'I' for Inactive)
REMARK    1  A    between atoms: C_2  and  C_3
REMARK    2  A    between atoms: N_10  and  C_11
REMARK    3  A    between atoms: C_11  and  C_12
REMARK    4  A    between atoms: N_17  and  C_18
REMARK    5  A    between atoms: C_22  and  C_23
REMARK                            x       y       z     vdW  Elec       q    Type
REMARK                         _______ _______ _______ _____ _____    ______ ____
ROOT
ATOM      1  C   UNL     1       0.863   9.298  19.567  0.00  0.00    +0.000 C 
ATOM      2  O   UNL     1       0.326   9.449  20.671  0.00  0.00    +0.000 OA
ATOM      3  N   UNL     1       1.869   8.358  19.383  0.00  0.00    +0.000 N 
ATOM      4  C   UNL     1       2.210   7.519  20.532  0.00  0.00    +0.000 C 
ATOM      5  C   UNL     1       1.452   6.187  20.457  0.00  0.00    +0.000 C 
ATOM      6  N   UNL     1       1.754   5.511  19.176  0.00  0.00    +0.000 N 
ATOM      7  C   UNL     1       1.513   6.327  17.973  0.00  0.00    +0.000 C 
ATOM      8  C   UNL     1       2.205   7.706  18.106  0.00  0.00    +0.000 C 
ENDROOT
BRANCH   6   9
ATOM      9  C   UNL     1       2.209   4.212  19.151  0.00  0.00    +0.000 A 
ATOM     10  S   UNL     1       1.183   2.857  19.509  0.00  0.00    +0.000 S 
ATOM     11  C   UNL     1       2.382   1.782  18.940  0.00  0.00    +0.000 A 
ATOM     12  N   UNL     1       3.503   2.320  18.524  0.00  0.00    +0.000 NA
ATOM     13  C   UNL     1       3.450   3.687  18.763  0.00  0.00    +0.000 A 
BRANCH  13  14
ATOM     14  C   UNL     1       4.678   4.515  18.544  0.00  0.00    +0.000 A 
ATOM     15  N   UNL     1       5.731   4.543  19.333  0.00  0.00    +0.000 NA
ATOM     16  C   UNL     1       6.537   5.532  18.839  0.00  0.00    +0.000 A 
ATOM     17  C   UNL     1       7.771   5.990  19.317  0.00  0.00    +0.000 A 
ATOM     18  C   UNL     1       8.369   7.078  18.677  0.00  0.00    +0.000 A 
ATOM     19  C   UNL     1       7.744   7.702  17.594  0.00  0.00    +0.000 A 
ATOM     20  C   UNL     1       6.517   7.245  17.092  0.00  0.00    +0.000 A 
ATOM     21  C   UNL     1       5.955   6.139  17.732  0.00  0.00    +0.000 A 
ATOM     22  N   UNL     1       4.814   5.406  17.509  0.00  0.00    +0.000 N 
ATOM     23  H   UNL     1       4.115   5.569  16.800  0.00  0.00    +0.000 HD
ENDBRANCH  13  14
ENDBRANCH   6   9
BRANCH   1  24
ATOM     24  C   UNL     1       0.452  10.204  18.416  0.00  0.00    +0.000 C 
BRANCH  24  32
ATOM     25  C   UNL     1      -0.546  13.265  19.231  0.00  0.00    +0.000 A 
ATOM     26  C   UNL     1      -0.683  14.652  19.421  0.00  0.00    +0.000 A 
ATOM     27  C   UNL     1       0.379  15.516  19.200  0.00  0.00    +0.000 A 
ATOM     28  C   UNL     1       1.612  15.010  18.795  0.00  0.00    +0.000 A 
ATOM     29  C   UNL     1       1.777  13.625  18.582  0.00  0.00    +0.000 A 
ATOM     30  C   UNL     1       2.903  12.859  18.196  0.00  0.00    +0.000 A 
ATOM     31  C   UNL     1       2.507  11.549  18.145  0.00  0.00    +0.000 A 
ATOM     32  N   UNL     1       1.162  11.479  18.443  0.00  0.00    +0.000 N 
ATOM     33  C   UNL     1       0.691  12.746  18.776  0.00  0.00    +0.000 A 
BRANCH  25  35
ATOM     34  N   UNL     1      -2.562  11.735  19.768  0.00  0.00    +0.000 NA
ATOM     35  C   UNL     1      -1.659  12.422  19.534  0.00  0.00    +0.000 C 
ENDBRANCH  25  35
ENDBRANCH  24  32
ENDBRANCH   1  24
TORSDOF 5
ENDMDL
MODEL 5
REMARK VINA RESULT:      -7.7      2.948      9.526
REMARK  Name = 
REMARK  5 active torsions:
REMARK  status: ('A' for Active; 'I' for Inactive)
REMARK    1  A    between atoms: C_2  and  C_3
REMARK    2  A    between atoms: N_10  and  C_11
REMARK    3  A    between atoms: C_11  and  C_12
REMARK    4  A    between atoms: N_17  and  C_18
REMARK    5  A    between atoms: C_22  and  C_23
REMARK                            x       y       z     vdW  Elec       q    Type
REMARK                         _______ _______ _______ _____ _____    ______ ____
ROOT
ATOM      1  C   UNL     1       1.708   7.939  20.242  0.00  0.00    +0.000 C 
ATOM      2  O   UNL     1       1.729   7.717  21.458  0.00  0.00    +0.000 OA
ATOM      3  N   UNL     1       0.945   8.975  19.717  0.00  0.00    +0.000 N 
ATOM      4  C   UNL     1       0.231   9.820  20.672  0.00  0.00    +0.000 C 
ATOM      5  C   UNL     1       1.056  11.075  20.989  0.00  0.00    +0.000 C 
ATOM      6  N   UNL     1       1.363  11.801  19.737  0.00  0.00    +0.000 N 
ATOM      7  C   UNL     1       2.012  10.989  18.693  0.00  0.00    +0.000 C 
ATOM      8  C   UNL     1       1.218   9.680  18.453  0.00  0.00    +0.000 C 
ENDROOT
BRANCH   6   9
ATOM      9  C   UNL     1       1.064  13.138  19.602  0.00  0.00    +0.000 A 
ATOM     10  S   UNL     1       2.167  14.393  20.076  0.00  0.00    +0.000 S 
ATOM     11  C   UNL     1       1.196  15.561  19.294  0.00  0.00    +0.000 A 
ATOM     12  N   UNL     1       0.099  15.124  18.724  0.00  0.00    +0.000 NA
ATOM     13  C   UNL     1      -0.037  13.772  19.009  0.00  0.00    +0.000 A 
BRANCH  13  14
ATOM     14  C   UNL     1      -1.301  13.068  18.625  0.00  0.00    +0.000 A 
ATOM     15  N   UNL     1      -2.389  12.995  19.362  0.00  0.00    +0.000 NA
ATOM     16  C   UNL     1      -3.230  12.144  18.698  0.00  0.00    +0.000 A 
ATOM     17  C   UNL     1      -4.509  11.705  19.058  0.00  0.00    +0.000 A 
ATOM     18  C   UNL     1      -5.143  10.764  18.241  0.00  0.00    +0.000 A 
ATOM     19  C   UNL     1      -4.508  10.265  17.101  0.00  0.00    +0.000 A 
ATOM     20  C   UNL     1      -3.234  10.708  16.717  0.00  0.00    +0.000 A 
ATOM     21  C   UNL     1      -2.636  11.670  17.534  0.00  0.00    +0.000 A 
ATOM     22  N   UNL     1      -1.444  12.349  17.465  0.00  0.00    +0.000 N 
ATOM     23  H   UNL     1      -0.725  12.246  16.765  0.00  0.00    +0.000 HD
ENDBRANCH  13  14
ENDBRANCH   6   9
BRANCH   1  24
ATOM     24  C   UNL     1       2.482   7.020  19.309  0.00  0.00    +0.000 C 
BRANCH  24  32
ATOM     25  C   UNL     1       3.581   4.246  17.851  0.00  0.00    +0.000 A 
ATOM     26  C   UNL     1       3.783   2.932  17.392  0.00  0.00    +0.000 A 
ATOM     27  C   UNL     1       3.116   1.860  17.966  0.00  0.00    +0.000 A 
ATOM     28  C   UNL     1       2.238   2.076  19.025  0.00  0.00    +0.000 A 
ATOM     29  C   UNL     1       2.002   3.384  19.498  0.00  0.00    +0.000 A 
ATOM     30  C   UNL     1       1.192   3.874  20.550  0.00  0.00    +0.000 A 
ATOM     31  C   UNL     1       1.339   5.234  20.579  0.00  0.00    +0.000 A 
ATOM     32  N   UNL     1       2.180   5.613  19.553  0.00  0.00    +0.000 N 
ATOM     33  C   UNL     1       2.656   4.481  18.898  0.00  0.00    +0.000 A 
BRANCH  25  35
ATOM     34  N   UNL     1       4.972   6.146  16.780  0.00  0.00    +0.000 NA
ATOM     35  C   UNL     1       4.343   5.299  17.260  0.00  0.00    +0.000 C 
ENDBRANCH  25  35
ENDBRANCH  24  32
ENDBRANCH   1  24
TORSDOF 5
ENDMDL
MODEL 6
REMARK VINA RESULT:      -7.7      0.743      2.011
REMARK  Name = 
REMARK  5 active torsions:
REMARK  status: ('A' for Active; 'I' for Inactive)
REMARK    1  A    between atoms: C_2  and  C_3
REMARK    2  A    between atoms: N_10  and  C_11
REMARK    3  A    between atoms: C_11  and  C_12
REMARK    4  A    between atoms: N_17  and  C_18
REMARK    5  A    between atoms: C_22  and  C_23
REMARK                            x       y       z     vdW  Elec       q    Type
REMARK                         _______ _______ _______ _____ _____    ______ ____
ROOT
ATOM      1  C   UNL     1       0.905   8.625  20.575  0.00  0.00    +0.000 C 
ATOM      2  O   UNL     1       0.217   8.421  21.583  0.00  0.00    +0.000 OA
ATOM      3  N   UNL     1       1.946   7.771  20.235  0.00  0.00    +0.000 N 
ATOM      4  C   UNL     1       2.141   6.595  21.082  0.00  0.00    +0.000 C 
ATOM      5  C   UNL     1       1.429   5.380  20.474  0.00  0.00    +0.000 C 
ATOM      6  N   UNL     1       1.920   5.151  19.096  0.00  0.00    +0.000 N 
ATOM      7  C   UNL     1       1.831   6.320  18.205  0.00  0.00    +0.000 C 
ATOM      8  C   UNL     1       2.469   7.563  18.875  0.00  0.00    +0.000 C 
ENDROOT
BRANCH   6   9
ATOM      9  C   UNL     1       2.401   3.920  18.712  0.00  0.00    +0.000 A 
ATOM     10  S   UNL     1       1.423   2.485  18.742  0.00  0.00    +0.000 S 
ATOM     11  C   UNL     1       2.616   1.637  17.862  0.00  0.00    +0.000 A 
ATOM     12  N   UNL     1       3.704   2.302  17.557  0.00  0.00    +0.000 NA
ATOM     13  C   UNL     1       3.633   3.557  18.149  0.00  0.00    +0.000 A 
BRANCH  13  14
ATOM     14  C   UNL     1       4.831   4.454  18.107  0.00  0.00    +0.000 A 
ATOM     15  N   UNL     1       5.819   4.450  18.975  0.00  0.00    +0.000 NA
ATOM     16  C   UNL     1       6.610   5.516  18.642  0.00  0.00    +0.000 A 
ATOM     17  C   UNL     1       7.780   5.977  19.256  0.00  0.00    +0.000 A 
ATOM     18  C   UNL     1       8.369   7.147  18.770  0.00  0.00    +0.000 A 
ATOM     19  C   UNL     1       7.796   7.845  17.704  0.00  0.00    +0.000 A 
ATOM     20  C   UNL     1       6.635   7.387  17.065  0.00  0.00    +0.000 A 
ATOM     21  C   UNL     1       6.082   6.201  17.553  0.00  0.00    +0.000 A 
ATOM     22  N   UNL     1       5.000   5.445  17.173  0.00  0.00    +0.000 N 
ATOM     23  H   UNL     1       4.348   5.647  16.429  0.00  0.00    +0.000 HD
ENDBRANCH  13  14
ENDBRANCH   6   9
BRANCH   1  24
ATOM     24  C   UNL     1       0.639   9.867  19.738  0.00  0.00    +0.000 C 
BRANCH  24  32
ATOM     25  C   UNL     1      -2.262  11.290  18.968  0.00  0.00    +0.000 A 
ATOM     26  C   UNL     1      -3.405  12.105  18.889  0.00  0.00    +0.000 A 
ATOM     27  C   UNL     1      -3.707  13.018  19.889  0.00  0.00    +0.000 A 
ATOM     28  C   UNL     1      -2.877  13.127  21.001  0.00  0.00    +0.000 A 
ATOM     29  C   UNL     1      -1.715  12.334  21.103  0.00  0.00    +0.000 A 
ATOM     30  C   UNL     1      -0.729  12.231  22.113  0.00  0.00    +0.000 A 
ATOM     31  C   UNL     1       0.181  11.296  21.702  0.00  0.00    +0.000 A 
ATOM     32  N   UNL     1      -0.181  10.842  20.450  0.00  0.00    +0.000 N 
ATOM     33  C   UNL     1      -1.388  11.425  20.075  0.00  0.00    +0.000 A 
BRANCH  25  35
ATOM     34  N   UNL     1      -1.849   9.542  17.106  0.00  0.00    +0.000 NA
ATOM     35  C   UNL     1      -2.040  10.327  17.937  0.00  0.00    +0.000 C 
ENDBRANCH  25  35
ENDBRANCH  24  32
ENDBRANCH   1  24
TORSDOF 5
ENDMDL
MODEL 7
REMARK VINA RESULT:      -7.6      1.686      2.431
REMARK  Name = 
REMARK  5 active torsions:
REMARK  status: ('A' for Active; 'I' for Inactive)
REMARK    1  A    between atoms: C_2  and  C_3
REMARK    2  A    between atoms: N_10  and  C_11
REMARK    3  A    between atoms: C_11  and  C_12
REMARK    4  A    between atoms: N_17  and  C_18
REMARK    5  A    between atoms: C_22  and  C_23
REMARK                            x       y       z     vdW  Elec       q    Type
REMARK                         _______ _______ _______ _____ _____    ______ ____
ROOT
ATOM      1  C   UNL     1       0.926   8.754  20.221  0.00  0.00    +0.000 C 
ATOM      2  O   UNL     1       0.561   8.714  21.402  0.00  0.00    +0.000 OA
ATOM      3  N   UNL     1       1.936   7.923  19.755  0.00  0.00    +0.000 N 
ATOM      4  C   UNL     1       2.493   6.961  20.706  0.00  0.00    +0.000 C 
ATOM      5  C   UNL     1       1.800   5.600  20.551  0.00  0.00    +0.000 C 
ATOM      6  N   UNL     1       1.932   5.129  19.154  0.00  0.00    +0.000 N 
ATOM      7  C   UNL     1       1.466   6.083  18.132  0.00  0.00    +0.000 C 
ATOM      8  C   UNL     1       2.101   7.477  18.362  0.00  0.00    +0.000 C 
ENDROOT
BRANCH   6   9
ATOM      9  C   UNL     1       2.441   3.882  18.872  0.00  0.00    +0.000 A 
ATOM     10  S   UNL     1       1.495   2.433  19.020  0.00  0.00    +0.000 S 
ATOM     11  C   UNL     1       2.709   1.542  18.214  0.00  0.00    +0.000 A 
ATOM     12  N   UNL     1       3.783   2.205  17.856  0.00  0.00    +0.000 NA
ATOM     13  C   UNL     1       3.682   3.501  18.342  0.00  0.00    +0.000 A 
BRANCH  13  14
ATOM     14  C   UNL     1       4.860   4.419  18.227  0.00  0.00    +0.000 A 
ATOM     15  N   UNL     1       5.888   4.449  19.047  0.00  0.00    +0.000 NA
ATOM     16  C   UNL     1       6.642   5.522  18.657  0.00  0.00    +0.000 A 
ATOM     17  C   UNL     1       7.831   6.015  19.207  0.00  0.00    +0.000 A 
ATOM     18  C   UNL     1       8.376   7.186  18.672  0.00  0.00    +0.000 A 
ATOM     19  C   UNL     1       7.739   7.854  17.623  0.00  0.00    +0.000 A 
ATOM     20  C   UNL     1       6.558   7.364  17.049  0.00  0.00    +0.000 A 
ATOM     21  C   UNL     1       6.051   6.177  17.583  0.00  0.00    +0.000 A 
ATOM     22  N   UNL     1       4.966   5.396  17.269  0.00  0.00    +0.000 N 
ATOM     23  H   UNL     1       4.276   5.571  16.554  0.00  0.00    +0.000 HD
ENDBRANCH  13  14
ENDBRANCH   6   9
BRANCH   1  24
ATOM     24  C   UNL     1       0.296   9.777  19.288  0.00  0.00    +0.000 C 
BRANCH  24  32
ATOM     25  C   UNL     1       0.525  12.647  20.944  0.00  0.00    +0.000 A 
ATOM     26  C   UNL     1       0.793  13.960  21.372  0.00  0.00    +0.000 A 
ATOM     27  C   UNL     1       1.728  14.751  20.720  0.00  0.00    +0.000 A 
ATOM     28  C   UNL     1       2.427  14.241  19.629  0.00  0.00    +0.000 A 
ATOM     29  C   UNL     1       2.170  12.934  19.167  0.00  0.00    +0.000 A 
ATOM     30  C   UNL     1       2.739  12.177  18.115  0.00  0.00    +0.000 A 
ATOM     31  C   UNL     1       2.120  10.956  18.108  0.00  0.00    +0.000 A 
ATOM     32  N   UNL     1       1.154  10.942  19.094  0.00  0.00    +0.000 N 
ATOM     33  C   UNL     1       1.199  12.136  19.808  0.00  0.00    +0.000 A 
BRANCH  25  35
ATOM     34  N   UNL     1      -1.157  11.218  22.294  0.00  0.00    +0.000 NA
ATOM     35  C   UNL     1      -0.403  11.863  21.694  0.00  0.00    +0.000 C 
ENDBRANCH  25  35
ENDBRANCH  24  32
ENDBRANCH   1  24
TORSDOF 5
ENDMDL
MODEL 8
REMARK VINA RESULT:      -7.5      6.259     10.176
REMARK  Name = 
REMARK  5 active torsions:
REMARK  status: ('A' for Active; 'I' for Inactive)
REMARK    1  A    between atoms: C_2  and  C_3
REMARK    2  A    between atoms: N_10  and  C_11
REMARK    3  A    between atoms: C_11  and  C_12
REMARK    4  A    between atoms: N_17  and  C_18
REMARK    5  A    between atoms: C_22  and  C_23
REMARK                            x       y       z     vdW  Elec       q    Type
REMARK                         _______ _______ _______ _____ _____    ______ ____
ROOT
ATOM      1  C   UNL     1       5.768  14.850  18.568  0.00  0.00    +0.000 C 
ATOM      2  O   UNL     1       5.912  14.398  17.425  0.00  0.00    +0.000 OA
ATOM      3  N   UNL     1       4.543  15.349  18.990  0.00  0.00    +0.000 N 
ATOM      4  C   UNL     1       3.428  15.253  18.049  0.00  0.00    +0.000 C 
ATOM      5  C   UNL     1       2.601  13.992  18.334  0.00  0.00    +0.000 C 
ATOM      6  N   UNL     1       2.133  14.009  19.738  0.00  0.00    +0.000 N 
ATOM      7  C   UNL     1       3.195  14.187  20.743  0.00  0.00    +0.000 C 
ATOM      8  C   UNL     1       4.080  15.408  20.387  0.00  0.00    +0.000 C 
ENDROOT
BRANCH   6   9
ATOM      9  C   UNL     1       0.800  13.853  20.042  0.00  0.00    +0.000 A 
ATOM     10  S   UNL     1      -0.198  15.173  20.570  0.00  0.00    +0.000 S 
ATOM     11  C   UNL     1      -1.596  14.211  20.379  0.00  0.00    +0.000 A 
ATOM     12  N   UNL     1      -1.408  12.975  19.981  0.00  0.00    +0.000 NA
ATOM     13  C   UNL     1      -0.042  12.738  19.913  0.00  0.00    +0.000 A 
BRANCH  13  14
ATOM     14  C   UNL     1       0.447  11.347  19.656  0.00  0.00    +0.000 A 
ATOM     15  N   UNL     1       0.614  10.414  20.569  0.00  0.00    +0.000 NA
ATOM     16  C   UNL     1       1.208   9.365  19.924  0.00  0.00    +0.000 A 
ATOM     17  C   UNL     1       1.621   8.130  20.437  0.00  0.00    +0.000 A 
ATOM     18  C   UNL     1       2.282   7.243  19.582  0.00  0.00    +0.000 A 
ATOM     19  C   UNL     1       2.534   7.587  18.252  0.00  0.00    +0.000 A 
ATOM     20  C   UNL     1       2.110   8.813  17.718  0.00  0.00    +0.000 A 
ATOM     21  C   UNL     1       1.428   9.668  18.585  0.00  0.00    +0.000 A 
ATOM     22  N   UNL     1       0.846  10.902  18.421  0.00  0.00    +0.000 N 
ATOM     23  H   UNL     1       0.831  11.460  17.580  0.00  0.00    +0.000 HD
ENDBRANCH  13  14
ENDBRANCH   6   9
BRANCH   1  24
ATOM     24  C   UNL     1       6.972  14.912  19.494  0.00  0.00    +0.000 C 
BRANCH  24  32
ATOM     25  C   UNL     1       9.821  14.513  17.834  0.00  0.00    +0.000 A 
ATOM     26  C   UNL     1      11.084  14.660  17.233  0.00  0.00    +0.000 A 
ATOM     27  C   UNL     1      11.682  15.905  17.114  0.00  0.00    +0.000 A 
ATOM     28  C   UNL     1      11.023  17.039  17.582  0.00  0.00    +0.000 A 
ATOM     29  C   UNL     1       9.762  16.922  18.203  0.00  0.00    +0.000 A 
ATOM     30  C   UNL     1       8.882  17.893  18.740  0.00  0.00    +0.000 A 
ATOM     31  C   UNL     1       7.784  17.230  19.216  0.00  0.00    +0.000 A 
ATOM     32  N   UNL     1       7.968  15.875  19.033  0.00  0.00    +0.000 N 
ATOM     33  C   UNL     1       9.162  15.654  18.353  0.00  0.00    +0.000 A 
BRANCH  25  35
ATOM     34  N   UNL     1       8.743  12.162  17.905  0.00  0.00    +0.000 NA
ATOM     35  C   UNL     1       9.232  13.212  17.871  0.00  0.00    +0.000 C 
ENDBRANCH  25  35
ENDBRANCH  24  32
ENDBRANCH   1  24
TORSDOF 5
ENDMDL
MODEL 9
REMARK VINA RESULT:      -7.5      3.894      9.786
REMARK  Name = 
REMARK  5 active torsions:
REMARK  status: ('A' for Active; 'I' for Inactive)
REMARK    1  A    between atoms: C_2  and  C_3
REMARK    2  A    between atoms: N_10  and  C_11
REMARK    3  A    between atoms: C_11  and  C_12
REMARK    4  A    between atoms: N_17  and  C_18
REMARK    5  A    between atoms: C_22  and  C_23
REMARK                            x       y       z     vdW  Elec       q    Type
REMARK                         _______ _______ _______ _____ _____    ______ ____
ROOT
ATOM      1  C   UNL     1       0.792  10.064  18.209  0.00  0.00    +0.000 C 
ATOM      2  O   UNL     1      -0.170   9.539  17.635  0.00  0.00    +0.000 OA
ATOM      3  N   UNL     1       0.750  11.394  18.604  0.00  0.00    +0.000 N 
ATOM      4  C   UNL     1      -0.501  12.115  18.370  0.00  0.00    +0.000 C 
ATOM      5  C   UNL     1      -1.371  12.091  19.634  0.00  0.00    +0.000 C 
ATOM      6  N   UNL     1      -0.615  12.659  20.772  0.00  0.00    +0.000 N 
ATOM      7  C   UNL     1       0.696  12.035  21.018  0.00  0.00    +0.000 C 
ATOM      8  C   UNL     1       1.525  11.981  19.710  0.00  0.00    +0.000 C 
ENDROOT
BRANCH   6   9
ATOM      9  C   UNL     1      -1.139  13.683  21.529  0.00  0.00    +0.000 A 
ATOM     10  S   UNL     1      -2.002  13.400  23.010  0.00  0.00    +0.000 S 
ATOM     11  C   UNL     1      -1.955  15.069  23.371  0.00  0.00    +0.000 A 
ATOM     12  N   UNL     1      -1.379  15.845  22.485  0.00  0.00    +0.000 NA
ATOM     13  C   UNL     1      -1.030  15.073  21.385  0.00  0.00    +0.000 A 
BRANCH  13  14
ATOM     14  C   UNL     1      -0.516  15.749  20.152  0.00  0.00    +0.000 A 
ATOM     15  N   UNL     1       0.745  15.810  19.783  0.00  0.00    +0.000 NA
ATOM     16  C   UNL     1       0.774  16.636  18.694  0.00  0.00    +0.000 A 
ATOM     17  C   UNL     1       1.868  17.056  17.929  0.00  0.00    +0.000 A 
ATOM     18  C   UNL     1       1.647  17.975  16.899  0.00  0.00    +0.000 A 
ATOM     19  C   UNL     1       0.365  18.472  16.650  0.00  0.00    +0.000 A 
ATOM     20  C   UNL     1      -0.745  18.049  17.394  0.00  0.00    +0.000 A 
ATOM     21  C   UNL     1      -0.500  17.109  18.398  0.00  0.00    +0.000 A 
ATOM     22  N   UNL     1      -1.316  16.451  19.285  0.00  0.00    +0.000 N 
ATOM     23  H   UNL     1      -2.314  16.560  19.390  0.00  0.00    +0.000 HD
ENDBRANCH  13  14
ENDBRANCH   6   9
BRANCH   1  24
ATOM     24  C   UNL     1       2.058   9.249  18.424  0.00  0.00    +0.000 C 
BRANCH  24  32
ATOM     25  C   UNL     1       3.263   6.161  18.632  0.00  0.00    +0.000 A 
ATOM     26  C   UNL     1       3.530   4.817  18.951  0.00  0.00    +0.000 A 
ATOM     27  C   UNL     1       2.977   4.222  20.075  0.00  0.00    +0.000 A 
ATOM     28  C   UNL     1       2.150   4.963  20.916  0.00  0.00    +0.000 A 
ATOM     29  C   UNL     1       1.851   6.308  20.614  0.00  0.00    +0.000 A 
ATOM     30  C   UNL     1       1.072   7.276  21.293  0.00  0.00    +0.000 A 
ATOM     31  C   UNL     1       1.123   8.430  20.560  0.00  0.00    +0.000 A 
ATOM     32  N   UNL     1       1.872   8.202  19.424  0.00  0.00    +0.000 N 
ATOM     33  C   UNL     1       2.387   6.909  19.457  0.00  0.00    +0.000 A 
BRANCH  25  35
ATOM     34  N   UNL     1       4.436   7.187  16.567  0.00  0.00    +0.000 NA
ATOM     35  C   UNL     1       3.911   6.733  17.495  0.00  0.00    +0.000 C 
ENDBRANCH  25  35
ENDBRANCH  24  32
ENDBRANCH   1  24
TORSDOF 5
ENDMDL
