MODEL 1
REMARK VINA RESULT:      -8.3      0.000      0.000
REMARK  Name = 
REMARK  13 active torsions:
REMARK  status: ('A' for Active; 'I' for Inactive)
REMARK    1  A    between atoms: C_1  and  C_2
REMARK    2  A    between atoms: C_2  and  C_3
REMARK    3  A    between atoms: C_3  and  N_4
REMARK    4  A    between atoms: C_3  and  C_12
REMARK    5  A    between atoms: N_4  and  C_5
REMARK    6  A    between atoms: C_5  and  C_6
REMARK    7  A    between atoms: C_5  and  C_7
REMARK    8  A    between atoms: C_5  and  C_8
REMARK    9  A    between atoms: C_8  and  C_9
REMARK   10  A    between atoms: C_15  and  O_16
REMARK   11  A    between atoms: O_16  and  C_17
REMARK   12  A    between atoms: C_18  and  C_19
REMARK   13  A    between atoms: C_19  and  C_21
REMARK                            x       y       z     vdW  Elec       q    Type
REMARK                         _______ _______ _______ _____ _____    ______ ____
ROOT
ATOM      1  C   UNL     1       2.122   7.735  19.275  0.00  0.00    +0.000 A 
ATOM      2  C   UNL     1       1.891   7.500  20.640  0.00  0.00    +0.000 A 
ATOM      3  C   UNL     1       1.093   8.339  21.412  0.00  0.00    +0.000 A 
ATOM      4  C   UNL     1       0.499   9.476  20.866  0.00  0.00    +0.000 A 
ATOM      5  C   UNL     1       0.685   9.746  19.497  0.00  0.00    +0.000 A 
ATOM      6  C   UNL     1       1.464   8.847  18.720  0.00  0.00    +0.000 A 
ATOM      7  F   UNL     1       1.591   9.056  17.399  0.00  0.00    +0.000 F 
ENDROOT
BRANCH   4   8
ATOM      8  O   UNL     1      -0.328  10.271  21.619  0.00  0.00    +0.000 OA
ATOM      9  C   UNL     1      -0.540   9.859  22.974  0.00  0.00    +0.000 C 
ENDBRANCH   4   8
BRANCH   5  10
ATOM     10  C   UNL     1       0.026  10.876  18.775  0.00  0.00    +0.000 C 
ATOM     11  O   UNL     1       0.665  11.916  18.606  0.00  0.00    +0.000 OA
BRANCH  10  12
ATOM     12  C   UNL     1      -1.351  10.853  18.217  0.00  0.00    +0.000 A 
ATOM     13  C   UNL     1      -1.799  10.024  17.194  0.00  0.00    +0.000 A 
ATOM     14  C   UNL     1      -3.116  10.135  16.749  0.00  0.00    +0.000 A 
ATOM     15  C   UNL     1      -3.969  11.035  17.372  0.00  0.00    +0.000 A 
ATOM     16  N   UNL     1      -5.278  11.209  16.926  0.00  0.00    +0.000 N 
ATOM     17  N   UNL     1      -3.584  11.809  18.395  0.00  0.00    +0.000 NA
ATOM     18  C   UNL     1      -2.294  11.700  18.798  0.00  0.00    +0.000 A 
ATOM     19  H   UNL     1      -5.785  10.333  16.898  0.00  0.00    +0.000 HD
ATOM     20  H   UNL     1      -5.714  11.876  17.559  0.00  0.00    +0.000 HD
ENDBRANCH  10  12
ENDBRANCH   5  10
BRANCH   1  21
ATOM     21  C   UNL     1       2.912   6.723  18.426  0.00  0.00    +0.000 C 
BRANCH  21  23
ATOM     22  C   UNL     1       5.023   6.616  16.841  0.00  0.00    +0.000 C 
ATOM     23  C   UNL     1       3.874   7.423  17.417  0.00  0.00    +0.000 C 
ENDBRANCH  21  23
BRANCH  21  24
ATOM     24  N   UNL     1       2.215   5.525  17.924  0.00  0.00    +0.000 NA
ATOM     25  H   UNL     1       1.212   5.693  18.019  0.00  0.00    +0.000 HD
BRANCH  24  26
ATOM     26  C   UNL     1       2.488   4.113  18.284  0.00  0.00    +0.000 C 
ATOM     27  C   UNL     1       1.228   3.330  18.689  0.00  0.00    +0.000 C 
ATOM     28  C   UNL     1       3.216   3.374  17.152  0.00  0.00    +0.000 C 
BRANCH  26  29
ATOM     29  C   UNL     1       3.417   4.200  19.538  0.00  0.00    +0.000 C 
BRANCH  29  30
ATOM     30  C   UNL     1       4.771   3.509  19.409  0.00  0.00    +0.000 C 
ATOM     31  N   UNL     1       4.802   2.194  19.771  0.00  0.00    +0.000 N 
ATOM     32  O   UNL     1       5.791   4.072  19.037  0.00  0.00    +0.000 OA
ATOM     33  H   UNL     1       4.013   1.705  20.170  0.00  0.00    +0.000 HD
ATOM     34  H   UNL     1       5.693   1.719  19.733  0.00  0.00    +0.000 HD
ENDBRANCH  29  30
ENDBRANCH  26  29
ENDBRANCH  24  26
ENDBRANCH  21  24
ENDBRANCH   1  21
TORSDOF 9
ENDMDL
MODEL 2
REMARK VINA RESULT:      -8.0      0.842      1.289
REMARK  Name = 
REMARK  13 active torsions:
REMARK  status: ('A' for Active; 'I' for Inactive)
REMARK    1  A    between atoms: C_1  and  C_2
REMARK    2  A    between atoms: C_2  and  C_3
REMARK    3  A    between atoms: C_3  and  N_4
REMARK    4  A    between atoms: C_3  and  C_12
REMARK    5  A    between atoms: N_4  and  C_5
REMARK    6  A    between atoms: C_5  and  C_6
REMARK    7  A    between atoms: C_5  and  C_7
REMARK    8  A    between atoms: C_5  and  C_8
REMARK    9  A    between atoms: C_8  and  C_9
REMARK   10  A    between atoms: C_15  and  O_16
REMARK   11  A    between atoms: O_16  and  C_17
REMARK   12  A    between atoms: C_18  and  C_19
REMARK   13  A    between atoms: C_19  and  C_21
REMARK                            x       y       z     vdW  Elec       q    Type
REMARK                         _______ _______ _______ _____ _____    ______ ____
ROOT
ATOM      1  C   UNL     1       2.048   7.714  19.556  0.00  0.00    +0.000 A 
ATOM      2  C   UNL     1       1.804   7.594  20.932  0.00  0.00    +0.000 A 
ATOM      3  C   UNL     1       1.028   8.514  21.631  0.00  0.00    +0.000 A 
ATOM      4  C   UNL     1       0.473   9.623  20.995  0.00  0.00    +0.000 A 
ATOM      5  C   UNL     1       0.673   9.779  19.610  0.00  0.00    +0.000 A 
ATOM      6  C   UNL     1       1.427   8.799  18.911  0.00  0.00    +0.000 A 
ATOM      7  F   UNL     1       1.566   8.901  17.578  0.00  0.00    +0.000 F 
ENDROOT
BRANCH   4   8
ATOM      8  O   UNL     1      -0.332  10.499  21.678  0.00  0.00    +0.000 OA
ATOM      9  C   UNL     1      -0.700  10.115  23.008  0.00  0.00    +0.000 C 
ENDBRANCH   4   8
BRANCH   5  10
ATOM     10  C   UNL     1       0.053  10.869  18.798  0.00  0.00    +0.000 C 
ATOM     11  O   UNL     1       0.718  11.882  18.571  0.00  0.00    +0.000 OA
BRANCH  10  12
ATOM     12  C   UNL     1      -1.313  10.836  18.214  0.00  0.00    +0.000 A 
ATOM     13  C   UNL     1      -1.745   9.980  17.207  0.00  0.00    +0.000 A 
ATOM     14  C   UNL     1      -3.053  10.083  16.734  0.00  0.00    +0.000 A 
ATOM     15  C   UNL     1      -3.914  11.003  17.316  0.00  0.00    +0.000 A 
ATOM     16  N   UNL     1      -5.213  11.169  16.840  0.00  0.00    +0.000 N 
ATOM     17  N   UNL     1      -3.545  11.804  18.323  0.00  0.00    +0.000 NA
ATOM     18  C   UNL     1      -2.263  11.702  18.754  0.00  0.00    +0.000 A 
ATOM     19  H   UNL     1      -5.723  10.295  16.826  0.00  0.00    +0.000 HD
ATOM     20  H   UNL     1      -5.658  11.856  17.445  0.00  0.00    +0.000 HD
ENDBRANCH  10  12
ENDBRANCH   5  10
BRANCH   1  21
ATOM     21  C   UNL     1       2.810   6.615  18.793  0.00  0.00    +0.000 C 
BRANCH  21  23
ATOM     22  C   UNL     1       5.044   6.570  17.383  0.00  0.00    +0.000 C 
ATOM     23  C   UNL     1       3.685   7.195  17.640  0.00  0.00    +0.000 C 
ENDBRANCH  21  23
BRANCH  21  24
ATOM     24  N   UNL     1       2.116   5.348  18.498  0.00  0.00    +0.000 NA
ATOM     25  H   UNL     1       1.158   5.580  18.230  0.00  0.00    +0.000 HD
BRANCH  24  26
ATOM     26  C   UNL     1       2.083   4.128  19.338  0.00  0.00    +0.000 C 
ATOM     27  C   UNL     1       3.337   3.950  20.210  0.00  0.00    +0.000 C 
ATOM     28  C   UNL     1       0.827   4.087  20.222  0.00  0.00    +0.000 C 
BRANCH  26  29
ATOM     29  C   UNL     1       2.045   2.947  18.315  0.00  0.00    +0.000 C 
BRANCH  29  30
ATOM     30  C   UNL     1       3.398   2.494  17.774  0.00  0.00    +0.000 C 
ATOM     31  N   UNL     1       3.770   1.222  18.098  0.00  0.00    +0.000 N 
ATOM     32  O   UNL     1       4.142   3.206  17.114  0.00  0.00    +0.000 OA
ATOM     33  H   UNL     1       3.237   0.624  18.714  0.00  0.00    +0.000 HD
ATOM     34  H   UNL     1       4.678   0.907  17.787  0.00  0.00    +0.000 HD
ENDBRANCH  29  30
ENDBRANCH  26  29
ENDBRANCH  24  26
ENDBRANCH  21  24
ENDBRANCH   1  21
TORSDOF 9
ENDMDL
MODEL 3
REMARK VINA RESULT:      -8.0      1.273      1.609
REMARK  Name = 
REMARK  13 active torsions:
REMARK  status: ('A' for Active; 'I' for Inactive)
REMARK    1  A    between atoms: C_1  and  C_2
REMARK    2  A    between atoms: C_2  and  C_3
REMARK    3  A    between atoms: C_3  and  N_4
REMARK    4  A    between atoms: C_3  and  C_12
REMARK    5  A    between atoms: N_4  and  C_5
REMARK    6  A    between atoms: C_5  and  C_6
REMARK    7  A    between atoms: C_5  and  C_7
REMARK    8  A    between atoms: C_5  and  C_8
REMARK    9  A    between atoms: C_8  and  C_9
REMARK   10  A    between atoms: C_15  and  O_16
REMARK   11  A    between atoms: O_16  and  C_17
REMARK   12  A    between atoms: C_18  and  C_19
REMARK   13  A    between atoms: C_19  and  C_21
REMARK                            x       y       z     vdW  Elec       q    Type
REMARK                         _______ _______ _______ _____ _____    ______ ____
ROOT
ATOM      1  C   UNL     1       2.112   7.713  19.402  0.00  0.00    +0.000 A 
ATOM      2  C   UNL     1       1.836   7.502  20.761  0.00  0.00    +0.000 A 
ATOM      3  C   UNL     1       1.012   8.353  21.492  0.00  0.00    +0.000 A 
ATOM      4  C   UNL     1       0.436   9.480  20.907  0.00  0.00    +0.000 A 
ATOM      5  C   UNL     1       0.668   9.726  19.540  0.00  0.00    +0.000 A 
ATOM      6  C   UNL     1       1.472   8.815  18.805  0.00  0.00    +0.000 A 
ATOM      7  F   UNL     1       1.643   9.001  17.486  0.00  0.00    +0.000 F 
ENDROOT
BRANCH   4   8
ATOM      8  O   UNL     1      -0.416  10.287  21.618  0.00  0.00    +0.000 OA
ATOM      9  C   UNL     1      -0.506  10.029  23.024  0.00  0.00    +0.000 C 
ENDBRANCH   4   8
BRANCH   5  10
ATOM     10  C   UNL     1       0.033  10.843  18.778  0.00  0.00    +0.000 C 
ATOM     11  O   UNL     1       0.685  11.873  18.595  0.00  0.00    +0.000 OA
BRANCH  10  12
ATOM     12  C   UNL     1      -1.333  10.818  18.193  0.00  0.00    +0.000 A 
ATOM     13  C   UNL     1      -1.766   9.973  17.177  0.00  0.00    +0.000 A 
ATOM     14  C   UNL     1      -3.074  10.083  16.705  0.00  0.00    +0.000 A 
ATOM     15  C   UNL     1      -3.933  10.999  17.295  0.00  0.00    +0.000 A 
ATOM     16  N   UNL     1      -5.232  11.171  16.821  0.00  0.00    +0.000 N 
ATOM     17  N   UNL     1      -3.563  11.789  18.311  0.00  0.00    +0.000 NA
ATOM     18  C   UNL     1      -2.282  11.681  18.741  0.00  0.00    +0.000 A 
ATOM     19  H   UNL     1      -5.743  10.298  16.799  0.00  0.00    +0.000 HD
ATOM     20  H   UNL     1      -5.676  11.853  17.433  0.00  0.00    +0.000 HD
ENDBRANCH  10  12
ENDBRANCH   5  10
BRANCH   1  21
ATOM     21  C   UNL     1       2.931   6.687  18.597  0.00  0.00    +0.000 C 
BRANCH  21  23
ATOM     22  C   UNL     1       5.151   6.837  17.172  0.00  0.00    +0.000 C 
ATOM     23  C   UNL     1       3.751   7.355  17.452  0.00  0.00    +0.000 C 
ENDBRANCH  21  23
BRANCH  21  24
ATOM     24  N   UNL     1       2.313   5.388  18.272  0.00  0.00    +0.000 NA
ATOM     25  H   UNL     1       1.409   5.353  18.747  0.00  0.00    +0.000 HD
BRANCH  24  26
ATOM     26  C   UNL     1       2.941   4.049  18.364  0.00  0.00    +0.000 C 
ATOM     27  C   UNL     1       3.437   3.510  17.012  0.00  0.00    +0.000 C 
ATOM     28  C   UNL     1       4.093   4.036  19.380  0.00  0.00    +0.000 C 
BRANCH  26  29
ATOM     29  C   UNL     1       1.793   3.110  18.858  0.00  0.00    +0.000 C 
BRANCH  29  30
ATOM     30  C   UNL     1       1.223   3.429  20.237  0.00  0.00    +0.000 C 
ATOM     31  N   UNL     1       1.463   2.500  21.206  0.00  0.00    +0.000 N 
ATOM     32  O   UNL     1       0.563   4.428  20.488  0.00  0.00    +0.000 OA
ATOM     33  H   UNL     1       1.922   1.616  21.032  0.00  0.00    +0.000 HD
ATOM     34  H   UNL     1       1.066   2.664  22.121  0.00  0.00    +0.000 HD
ENDBRANCH  29  30
ENDBRANCH  26  29
ENDBRANCH  24  26
ENDBRANCH  21  24
ENDBRANCH   1  21
TORSDOF 9
ENDMDL
MODEL 4
REMARK VINA RESULT:      -8.0      1.672      2.714
REMARK  Name = 
REMARK  13 active torsions:
REMARK  status: ('A' for Active; 'I' for Inactive)
REMARK    1  A    between atoms: C_1  and  C_2
REMARK    2  A    between atoms: C_2  and  C_3
REMARK    3  A    between atoms: C_3  and  N_4
REMARK    4  A    between atoms: C_3  and  C_12
REMARK    5  A    between atoms: N_4  and  C_5
REMARK    6  A    between atoms: C_5  and  C_6
REMARK    7  A    between atoms: C_5  and  C_7
REMARK    8  A    between atoms: C_5  and  C_8
REMARK    9  A    between atoms: C_8  and  C_9
REMARK   10  A    between atoms: C_15  and  O_16
REMARK   11  A    between atoms: O_16  and  C_17
REMARK   12  A    between atoms: C_18  and  C_19
REMARK   13  A    between atoms: C_19  and  C_21
REMARK                            x       y       z     vdW  Elec       q    Type
REMARK                         _______ _______ _______ _____ _____    ______ ____
ROOT
ATOM      1  C   UNL     1       2.611   6.659  18.741  0.00  0.00    +0.000 A 
ATOM      2  C   UNL     1       2.230   6.306  20.045  0.00  0.00    +0.000 A 
ATOM      3  C   UNL     1       1.565   7.191  20.889  0.00  0.00    +0.000 A 
ATOM      4  C   UNL     1       1.264   8.490  20.482  0.00  0.00    +0.000 A 
ATOM      5  C   UNL     1       1.608   8.887  19.175  0.00  0.00    +0.000 A 
ATOM      6  C   UNL     1       2.242   7.949  18.318  0.00  0.00    +0.000 A 
ATOM      7  F   UNL     1       2.512   8.293  17.047  0.00  0.00    +0.000 F 
ENDROOT
BRANCH   4   8
ATOM      8  O   UNL     1       0.564   9.341  21.298  0.00  0.00    +0.000 OA
ATOM      9  C   UNL     1       0.876   9.279  22.695  0.00  0.00    +0.000 C 
ENDBRANCH   4   8
BRANCH   5  10
ATOM     10  C   UNL     1       1.257  10.215  18.590  0.00  0.00    +0.000 C 
ATOM     11  O   UNL     1       2.165  10.919  18.143  0.00  0.00    +0.000 OA
BRANCH  10  12
ATOM     12  C   UNL     1      -0.117  10.770  18.481  0.00  0.00    +0.000 A 
ATOM     13  C   UNL     1      -0.562  11.956  19.056  0.00  0.00    +0.000 A 
ATOM     14  C   UNL     1      -1.893  12.340  18.894  0.00  0.00    +0.000 A 
ATOM     15  C   UNL     1      -2.735  11.557  18.117  0.00  0.00    +0.000 A 
ATOM     16  N   UNL     1      -4.082  11.881  17.969  0.00  0.00    +0.000 N 
ATOM     17  N   UNL     1      -2.324  10.438  17.505  0.00  0.00    +0.000 NA
ATOM     18  C   UNL     1      -1.032  10.072  17.693  0.00  0.00    +0.000 A 
ATOM     19  H   UNL     1      -4.206  12.826  17.631  0.00  0.00    +0.000 HD
ATOM     20  H   UNL     1      -4.477  11.196  17.328  0.00  0.00    +0.000 HD
ENDBRANCH  10  12
ENDBRANCH   5  10
BRANCH   1  21
ATOM     21  C   UNL     1       3.238   5.617  17.797  0.00  0.00    +0.000 C 
BRANCH  21  23
ATOM     22  C   UNL     1       3.216   3.009  18.218  0.00  0.00    +0.000 C 
ATOM     23  C   UNL     1       2.463   4.264  17.813  0.00  0.00    +0.000 C 
ENDBRANCH  21  23
BRANCH  21  24
ATOM     24  N   UNL     1       4.707   5.516  17.731  0.00  0.00    +0.000 NA
ATOM     25  H   UNL     1       5.089   6.150  18.436  0.00  0.00    +0.000 HD
BRANCH  24  26
ATOM     26  C   UNL     1       5.558   5.598  16.521  0.00  0.00    +0.000 C 
ATOM     27  C   UNL     1       5.672   4.266  15.760  0.00  0.00    +0.000 C 
ATOM     28  C   UNL     1       5.075   6.700  15.566  0.00  0.00    +0.000 C 
BRANCH  26  29
ATOM     29  C   UNL     1       6.980   5.957  17.063  0.00  0.00    +0.000 C 
BRANCH  29  30
ATOM     30  C   UNL     1       7.573   4.975  18.069  0.00  0.00    +0.000 C 
ATOM     31  N   UNL     1       7.184   5.146  19.365  0.00  0.00    +0.000 N 
ATOM     32  O   UNL     1       8.371   4.095  17.774  0.00  0.00    +0.000 OA
ATOM     33  H   UNL     1       6.601   5.911  19.677  0.00  0.00    +0.000 HD
ATOM     34  H   UNL     1       7.590   4.535  20.060  0.00  0.00    +0.000 HD
ENDBRANCH  29  30
ENDBRANCH  26  29
ENDBRANCH  24  26
ENDBRANCH  21  24
ENDBRANCH   1  21
TORSDOF 9
ENDMDL
MODEL 5
REMARK VINA RESULT:      -8.0      1.641      2.616
REMARK  Name = 
REMARK  13 active torsions:
REMARK  status: ('A' for Active; 'I' for Inactive)
REMARK    1  A    between atoms: C_1  and  C_2
REMARK    2  A    between atoms: C_2  and  C_3
REMARK    3  A    between atoms: C_3  and  N_4
REMARK    4  A    between atoms: C_3  and  C_12
REMARK    5  A    between atoms: N_4  and  C_5
REMARK    6  A    between atoms: C_5  and  C_6
REMARK    7  A    between atoms: C_5  and  C_7
REMARK    8  A    between atoms: C_5  and  C_8
REMARK    9  A    between atoms: C_8  and  C_9
REMARK   10  A    between atoms: C_15  and  O_16
REMARK   11  A    between atoms: O_16  and  C_17
REMARK   12  A    between atoms: C_18  and  C_19
REMARK   13  A    between atoms: C_19  and  C_21
REMARK                            x       y       z     vdW  Elec       q    Type
REMARK                         _______ _______ _______ _____ _____    ______ ____
ROOT
ATOM      1  C   UNL     1       2.733   6.621  18.895  0.00  0.00    +0.000 A 
ATOM      2  C   UNL     1       2.352   6.303  20.208  0.00  0.00    +0.000 A 
ATOM      3  C   UNL     1       1.612   7.177  20.998  0.00  0.00    +0.000 A 
ATOM      4  C   UNL     1       1.231   8.433  20.527  0.00  0.00    +0.000 A 
ATOM      5  C   UNL     1       1.572   8.792  19.208  0.00  0.00    +0.000 A 
ATOM      6  C   UNL     1       2.285   7.862  18.406  0.00  0.00    +0.000 A 
ATOM      7  F   UNL     1       2.555   8.166  17.125  0.00  0.00    +0.000 F 
ENDROOT
BRANCH   4   8
ATOM      8  O   UNL     1       0.459   9.270  21.291  0.00  0.00    +0.000 OA
ATOM      9  C   UNL     1       0.807   9.362  22.677  0.00  0.00    +0.000 C 
ENDBRANCH   4   8
BRANCH   5  10
ATOM     10  C   UNL     1       1.142  10.065  18.556  0.00  0.00    +0.000 C 
ATOM     11  O   UNL     1       2.010  10.860  18.191  0.00  0.00    +0.000 OA
BRANCH  10  12
ATOM     12  C   UNL     1      -0.265  10.462  18.288  0.00  0.00    +0.000 A 
ATOM     13  C   UNL     1      -1.153   9.788  17.457  0.00  0.00    +0.000 A 
ATOM     14  C   UNL     1      -2.440  10.295  17.275  0.00  0.00    +0.000 A 
ATOM     15  C   UNL     1      -2.825  11.433  17.970  0.00  0.00    +0.000 A 
ATOM     16  N   UNL     1      -4.085  11.997  17.779  0.00  0.00    +0.000 N 
ATOM     17  N   UNL     1      -2.012  12.073  18.819  0.00  0.00    +0.000 NA
ATOM     18  C   UNL     1      -0.758  11.576  18.965  0.00  0.00    +0.000 A 
ATOM     19  H   UNL     1      -4.825  11.324  17.934  0.00  0.00    +0.000 HD
ATOM     20  H   UNL     1      -4.151  12.784  18.422  0.00  0.00    +0.000 HD
ENDBRANCH  10  12
ENDBRANCH   5  10
BRANCH   1  21
ATOM     21  C   UNL     1       3.447   5.584  18.010  0.00  0.00    +0.000 C 
BRANCH  21  23
ATOM     22  C   UNL     1       2.451   3.266  17.225  0.00  0.00    +0.000 C 
ATOM     23  C   UNL     1       3.013   4.124  18.344  0.00  0.00    +0.000 C 
ENDBRANCH  21  23
BRANCH  21  24
ATOM     24  N   UNL     1       4.878   5.776  17.710  0.00  0.00    +0.000 NA
ATOM     25  H   UNL     1       5.190   6.602  18.225  0.00  0.00    +0.000 HD
BRANCH  24  26
ATOM     26  C   UNL     1       5.520   5.789  16.374  0.00  0.00    +0.000 C 
ATOM     27  C   UNL     1       5.420   4.445  15.633  0.00  0.00    +0.000 C 
ATOM     28  C   UNL     1       4.956   6.912  15.490  0.00  0.00    +0.000 C 
BRANCH  26  29
ATOM     29  C   UNL     1       7.031   6.058  16.667  0.00  0.00    +0.000 C 
BRANCH  29  30
ATOM     30  C   UNL     1       7.526   5.631  18.046  0.00  0.00    +0.000 C 
ATOM     31  N   UNL     1       7.712   4.290  18.219  0.00  0.00    +0.000 N 
ATOM     32  O   UNL     1       7.727   6.407  18.969  0.00  0.00    +0.000 OA
ATOM     33  H   UNL     1       7.475   3.598  17.521  0.00  0.00    +0.000 HD
ATOM     34  H   UNL     1       8.002   3.972  19.133  0.00  0.00    +0.000 HD
ENDBRANCH  29  30
ENDBRANCH  26  29
ENDBRANCH  24  26
ENDBRANCH  21  24
ENDBRANCH   1  21
TORSDOF 9
ENDMDL
MODEL 6
REMARK VINA RESULT:      -7.9      1.707      2.585
REMARK  Name = 
REMARK  13 active torsions:
REMARK  status: ('A' for Active; 'I' for Inactive)
REMARK    1  A    between atoms: C_1  and  C_2
REMARK    2  A    between atoms: C_2  and  C_3
REMARK    3  A    between atoms: C_3  and  N_4
REMARK    4  A    between atoms: C_3  and  C_12
REMARK    5  A    between atoms: N_4  and  C_5
REMARK    6  A    between atoms: C_5  and  C_6
REMARK    7  A    between atoms: C_5  and  C_7
REMARK    8  A    between atoms: C_5  and  C_8
REMARK    9  A    between atoms: C_8  and  C_9
REMARK   10  A    between atoms: C_15  and  O_16
REMARK   11  A    between atoms: O_16  and  C_17
REMARK   12  A    between atoms: C_18  and  C_19
REMARK   13  A    between atoms: C_19  and  C_21
REMARK                            x       y       z     vdW  Elec       q    Type
REMARK                         _______ _______ _______ _____ _____    ______ ____
ROOT
ATOM      1  C   UNL     1       2.208   7.309  19.355  0.00  0.00    +0.000 A 
ATOM      2  C   UNL     1       1.866   7.059  20.693  0.00  0.00    +0.000 A 
ATOM      3  C   UNL     1       1.076   7.934  21.432  0.00  0.00    +0.000 A 
ATOM      4  C   UNL     1       0.602   9.123  20.880  0.00  0.00    +0.000 A 
ATOM      5  C   UNL     1       0.902   9.410  19.534  0.00  0.00    +0.000 A 
ATOM      6  C   UNL     1       1.669   8.477  18.787  0.00  0.00    +0.000 A 
ATOM      7  F   UNL     1       1.902   8.707  17.484  0.00  0.00    +0.000 F 
ENDROOT
BRANCH   4   8
ATOM      8  O   UNL     1      -0.219   9.957  21.596  0.00  0.00    +0.000 OA
ATOM      9  C   UNL     1      -0.240   9.758  23.015  0.00  0.00    +0.000 C 
ENDBRANCH   4   8
BRANCH   5  10
ATOM     10  C   UNL     1       0.375  10.601  18.802  0.00  0.00    +0.000 C 
ATOM     11  O   UNL     1       1.128  11.561  18.624  0.00  0.00    +0.000 OA
BRANCH  10  12
ATOM     12  C   UNL     1      -0.995  10.730  18.242  0.00  0.00    +0.000 A 
ATOM     13  C   UNL     1      -1.524   9.968  17.205  0.00  0.00    +0.000 A 
ATOM     14  C   UNL     1      -2.821  10.221  16.762  0.00  0.00    +0.000 A 
ATOM     15  C   UNL     1      -3.579  11.193  17.399  0.00  0.00    +0.000 A 
ATOM     16  N   UNL     1      -4.862  11.508  16.955  0.00  0.00    +0.000 N 
ATOM     17  N   UNL     1      -3.119  11.906  18.435  0.00  0.00    +0.000 NA
ATOM     18  C   UNL     1      -1.847  11.659  18.838  0.00  0.00    +0.000 A 
ATOM     19  H   UNL     1      -5.456  10.690  16.912  0.00  0.00    +0.000 HD
ATOM     20  H   UNL     1      -5.228  12.207  17.599  0.00  0.00    +0.000 HD
ENDBRANCH  10  12
ENDBRANCH   5  10
BRANCH   1  21
ATOM     21  C   UNL     1       2.984   6.263  18.533  0.00  0.00    +0.000 C 
BRANCH  21  23
ATOM     22  C   UNL     1       1.737   3.934  18.493  0.00  0.00    +0.000 C 
ATOM     23  C   UNL     1       2.035   5.258  17.812  0.00  0.00    +0.000 C 
ENDBRANCH  21  23
BRANCH  21  24
ATOM     24  N   UNL     1       4.216   5.687  19.104  0.00  0.00    +0.000 NA
ATOM     25  H   UNL     1       4.408   6.181  19.978  0.00  0.00    +0.000 HD
BRANCH  24  26
ATOM     26  C   UNL     1       5.503   5.456  18.407  0.00  0.00    +0.000 C 
ATOM     27  C   UNL     1       6.722   5.486  19.344  0.00  0.00    +0.000 C 
ATOM     28  C   UNL     1       5.488   4.138  17.619  0.00  0.00    +0.000 C 
BRANCH  26  29
ATOM     29  C   UNL     1       5.636   6.659  17.417  0.00  0.00    +0.000 C 
BRANCH  29  30
ATOM     30  C   UNL     1       7.033   6.906  16.857  0.00  0.00    +0.000 C 
ATOM     31  N   UNL     1       7.630   8.070  17.246  0.00  0.00    +0.000 N 
ATOM     32  O   UNL     1       7.603   6.147  16.086  0.00  0.00    +0.000 OA
ATOM     33  H   UNL     1       7.170   8.774  17.807  0.00  0.00    +0.000 HD
ATOM     34  H   UNL     1       8.540   8.280  16.861  0.00  0.00    +0.000 HD
ENDBRANCH  29  30
ENDBRANCH  26  29
ENDBRANCH  24  26
ENDBRANCH  21  24
ENDBRANCH   1  21
TORSDOF 9
ENDMDL
MODEL 7
REMARK VINA RESULT:      -7.9      1.963      2.906
REMARK  Name = 
REMARK  13 active torsions:
REMARK  status: ('A' for Active; 'I' for Inactive)
REMARK    1  A    between atoms: C_1  and  C_2
REMARK    2  A    between atoms: C_2  and  C_3
REMARK    3  A    between atoms: C_3  and  N_4
REMARK    4  A    between atoms: C_3  and  C_12
REMARK    5  A    between atoms: N_4  and  C_5
REMARK    6  A    between atoms: C_5  and  C_6
REMARK    7  A    between atoms: C_5  and  C_7
REMARK    8  A    between atoms: C_5  and  C_8
REMARK    9  A    between atoms: C_8  and  C_9
REMARK   10  A    between atoms: C_15  and  O_16
REMARK   11  A    between atoms: O_16  and  C_17
REMARK   12  A    between atoms: C_18  and  C_19
REMARK   13  A    between atoms: C_19  and  C_21
REMARK                            x       y       z     vdW  Elec       q    Type
REMARK                         _______ _______ _______ _____ _____    ______ ____
ROOT
ATOM      1  C   UNL     1       2.645   6.864  19.047  0.00  0.00    +0.000 A 
ATOM      2  C   UNL     1       2.231   6.571  20.355  0.00  0.00    +0.000 A 
ATOM      3  C   UNL     1       1.452   7.450  21.101  0.00  0.00    +0.000 A 
ATOM      4  C   UNL     1       1.064   8.687  20.588  0.00  0.00    +0.000 A 
ATOM      5  C   UNL     1       1.438   9.020  19.272  0.00  0.00    +0.000 A 
ATOM      6  C   UNL     1       2.191   8.084  18.514  0.00  0.00    +0.000 A 
ATOM      7  F   UNL     1       2.494   8.362  17.235  0.00  0.00    +0.000 F 
ENDROOT
BRANCH   4   8
ATOM      8  O   UNL     1       0.254   9.528  21.307  0.00  0.00    +0.000 OA
ATOM      9  C   UNL     1      -0.401   8.955  22.445  0.00  0.00    +0.000 C 
ENDBRANCH   4   8
BRANCH   5  10
ATOM     10  C   UNL     1       1.005  10.269  18.576  0.00  0.00    +0.000 C 
ATOM     11  O   UNL     1       1.860  11.113  18.298  0.00  0.00    +0.000 OA
BRANCH  10  12
ATOM     12  C   UNL     1      -0.387  10.586  18.164  0.00  0.00    +0.000 A 
ATOM     13  C   UNL     1      -1.224   9.757  17.425  0.00  0.00    +0.000 A 
ATOM     14  C   UNL     1      -2.502  10.200  17.085  0.00  0.00    +0.000 A 
ATOM     15  C   UNL     1      -2.932  11.440  17.536  0.00  0.00    +0.000 A 
ATOM     16  N   UNL     1      -4.183  11.938  17.178  0.00  0.00    +0.000 N 
ATOM     17  N   UNL     1      -2.171  12.239  18.295  0.00  0.00    +0.000 NA
ATOM     18  C   UNL     1      -0.925  11.798  18.597  0.00  0.00    +0.000 A 
ATOM     19  H   UNL     1      -4.927  11.293  17.415  0.00  0.00    +0.000 HD
ATOM     20  H   UNL     1      -4.290  12.829  17.660  0.00  0.00    +0.000 HD
ENDBRANCH  10  12
ENDBRANCH   5  10
BRANCH   1  21
ATOM     21  C   UNL     1       3.404   5.819  18.210  0.00  0.00    +0.000 C 
BRANCH  21  23
ATOM     22  C   UNL     1       1.466   4.129  17.605  0.00  0.00    +0.000 C 
ATOM     23  C   UNL     1       2.774   4.398  18.327  0.00  0.00    +0.000 C 
ENDBRANCH  21  23
BRANCH  21  24
ATOM     24  N   UNL     1       4.878   5.868  18.184  0.00  0.00    +0.000 NA
ATOM     25  H   UNL     1       5.178   6.454  18.966  0.00  0.00    +0.000 HD
BRANCH  24  26
ATOM     26  C   UNL     1       5.745   6.165  17.019  0.00  0.00    +0.000 C 
ATOM     27  C   UNL     1       4.969   6.666  15.790  0.00  0.00    +0.000 C 
ATOM     28  C   UNL     1       6.849   7.170  17.381  0.00  0.00    +0.000 C 
BRANCH  26  29
ATOM     29  C   UNL     1       6.387   4.790  16.647  0.00  0.00    +0.000 C 
BRANCH  29  30
ATOM     30  C   UNL     1       6.675   4.572  15.164  0.00  0.00    +0.000 C 
ATOM     31  N   UNL     1       7.716   5.289  14.651  0.00  0.00    +0.000 N 
ATOM     32  O   UNL     1       6.019   3.833  14.443  0.00  0.00    +0.000 OA
ATOM     33  H   UNL     1       8.232   5.980  15.178  0.00  0.00    +0.000 HD
ATOM     34  H   UNL     1       7.907   5.195  13.663  0.00  0.00    +0.000 HD
ENDBRANCH  29  30
ENDBRANCH  26  29
ENDBRANCH  24  26
ENDBRANCH  21  24
ENDBRANCH   1  21
TORSDOF 9
ENDMDL
MODEL 8
REMARK VINA RESULT:      -7.9      1.369      2.099
REMARK  Name = 
REMARK  13 active torsions:
REMARK  status: ('A' for Active; 'I' for Inactive)
REMARK    1  A    between atoms: C_1  and  C_2
REMARK    2  A    between atoms: C_2  and  C_3
REMARK    3  A    between atoms: C_3  and  N_4
REMARK    4  A    between atoms: C_3  and  C_12
REMARK    5  A    between atoms: N_4  and  C_5
REMARK    6  A    between atoms: C_5  and  C_6
REMARK    7  A    between atoms: C_5  and  C_7
REMARK    8  A    between atoms: C_5  and  C_8
REMARK    9  A    between atoms: C_8  and  C_9
REMARK   10  A    between atoms: C_15  and  O_16
REMARK   11  A    between atoms: O_16  and  C_17
REMARK   12  A    between atoms: C_18  and  C_19
REMARK   13  A    between atoms: C_19  and  C_21
REMARK                            x       y       z     vdW  Elec       q    Type
REMARK                         _______ _______ _______ _____ _____    ______ ____
ROOT
ATOM      1  C   UNL     1       1.692   7.772  20.373  0.00  0.00    +0.000 A 
ATOM      2  C   UNL     1       1.430   7.988  21.735  0.00  0.00    +0.000 A 
ATOM      3  C   UNL     1       0.766   9.122  22.192  0.00  0.00    +0.000 A 
ATOM      4  C   UNL     1       0.347  10.119  21.311  0.00  0.00    +0.000 A 
ATOM      5  C   UNL     1       0.569   9.940  19.932  0.00  0.00    +0.000 A 
ATOM      6  C   UNL     1       1.204   8.751  19.488  0.00  0.00    +0.000 A 
ATOM      7  F   UNL     1       1.359   8.538  18.170  0.00  0.00    +0.000 F 
ENDROOT
BRANCH   4   8
ATOM      8  O   UNL     1      -0.352  11.210  21.761  0.00  0.00    +0.000 OA
ATOM      9  C   UNL     1      -1.100  11.028  22.969  0.00  0.00    +0.000 C 
ENDBRANCH   4   8
BRANCH   5  10
ATOM     10  C   UNL     1       0.084  10.887  18.883  0.00  0.00    +0.000 C 
ATOM     11  O   UNL     1       0.851  11.767  18.487  0.00  0.00    +0.000 OA
BRANCH  10  12
ATOM     12  C   UNL     1      -1.259  10.854  18.249  0.00  0.00    +0.000 A 
ATOM     13  C   UNL     1      -1.659   9.984  17.240  0.00  0.00    +0.000 A 
ATOM     14  C   UNL     1      -2.948  10.088  16.717  0.00  0.00    +0.000 A 
ATOM     15  C   UNL     1      -3.823  11.023  17.250  0.00  0.00    +0.000 A 
ATOM     16  N   UNL     1      -5.102  11.190  16.723  0.00  0.00    +0.000 N 
ATOM     17  N   UNL     1      -3.487  11.838  18.258  0.00  0.00    +0.000 NA
ATOM     18  C   UNL     1      -2.223  11.735  18.738  0.00  0.00    +0.000 A 
ATOM     19  H   UNL     1      -5.618  10.319  16.704  0.00  0.00    +0.000 HD
ATOM     20  H   UNL     1      -5.565  11.890  17.299  0.00  0.00    +0.000 HD
ENDBRANCH  10  12
ENDBRANCH   5  10
BRANCH   1  21
ATOM     21  C   UNL     1       2.322   6.452  19.893  0.00  0.00    +0.000 C 
BRANCH  21  23
ATOM     22  C   UNL     1       0.933   4.237  20.274  0.00  0.00    +0.000 C 
ATOM     23  C   UNL     1       1.934   5.248  20.804  0.00  0.00    +0.000 C 
ENDBRANCH  21  23
BRANCH  21  24
ATOM     24  N   UNL     1       3.714   6.468  19.407  0.00  0.00    +0.000 NA
ATOM     25  H   UNL     1       3.978   7.446  19.271  0.00  0.00    +0.000 HD
BRANCH  24  26
ATOM     26  C   UNL     1       4.284   5.671  18.295  0.00  0.00    +0.000 C 
ATOM     27  C   UNL     1       3.222   4.936  17.460  0.00  0.00    +0.000 C 
ATOM     28  C   UNL     1       5.160   6.535  17.375  0.00  0.00    +0.000 C 
BRANCH  26  29
ATOM     29  C   UNL     1       5.167   4.590  18.999  0.00  0.00    +0.000 C 
BRANCH  29  30
ATOM     30  C   UNL     1       6.662   4.892  19.059  0.00  0.00    +0.000 C 
ATOM     31  N   UNL     1       7.419   4.335  18.071  0.00  0.00    +0.000 N 
ATOM     32  O   UNL     1       7.187   5.562  19.938  0.00  0.00    +0.000 OA
ATOM     33  H   UNL     1       7.051   3.701  17.375  0.00  0.00    +0.000 HD
ATOM     34  H   UNL     1       8.418   4.485  18.106  0.00  0.00    +0.000 HD
ENDBRANCH  29  30
ENDBRANCH  26  29
ENDBRANCH  24  26
ENDBRANCH  21  24
ENDBRANCH   1  21
TORSDOF 9
ENDMDL
MODEL 9
REMARK VINA RESULT:      -7.8      2.075      3.124
REMARK  Name = 
REMARK  13 active torsions:
REMARK  status: ('A' for Active; 'I' for Inactive)
REMARK    1  A    between atoms: C_1  and  C_2
REMARK    2  A    between atoms: C_2  and  C_3
REMARK    3  A    between atoms: C_3  and  N_4
REMARK    4  A    between atoms: C_3  and  C_12
REMARK    5  A    between atoms: N_4  and  C_5
REMARK    6  A    between atoms: C_5  and  C_6
REMARK    7  A    between atoms: C_5  and  C_7
REMARK    8  A    between atoms: C_5  and  C_8
REMARK    9  A    between atoms: C_8  and  C_9
REMARK   10  A    between atoms: C_15  and  O_16
REMARK   11  A    between atoms: O_16  and  C_17
REMARK   12  A    between atoms: C_18  and  C_19
REMARK   13  A    between atoms: C_19  and  C_21
REMARK                            x       y       z     vdW  Elec       q    Type
REMARK                         _______ _______ _______ _____ _____    ______ ____
ROOT
ATOM      1  C   UNL     1       3.051   6.228  18.637  0.00  0.00    +0.000 A 
ATOM      2  C   UNL     1       2.607   5.845  19.912  0.00  0.00    +0.000 A 
ATOM      3  C   UNL     1       1.833   6.682  20.710  0.00  0.00    +0.000 A 
ATOM      4  C   UNL     1       1.479   7.962  20.285  0.00  0.00    +0.000 A 
ATOM      5  C   UNL     1       1.883   8.386  19.005  0.00  0.00    +0.000 A 
ATOM      6  C   UNL     1       2.631   7.494  18.191  0.00  0.00    +0.000 A 
ATOM      7  F   UNL     1       2.963   7.861  16.942  0.00  0.00    +0.000 F 
ENDROOT
BRANCH   4   8
ATOM      8  O   UNL     1       0.673   8.764  21.054  0.00  0.00    +0.000 OA
ATOM      9  C   UNL     1       1.224   9.206  22.300  0.00  0.00    +0.000 C 
ENDBRANCH   4   8
BRANCH   5  10
ATOM     10  C   UNL     1       1.489   9.693  18.399  0.00  0.00    +0.000 C 
ATOM     11  O   UNL     1       2.377  10.439  17.981  0.00  0.00    +0.000 OA
BRANCH  10  12
ATOM     12  C   UNL     1       0.094  10.179  18.235  0.00  0.00    +0.000 A 
ATOM     13  C   UNL     1      -0.918   9.524  17.542  0.00  0.00    +0.000 A 
ATOM     14  C   UNL     1      -2.177  10.116  17.445  0.00  0.00    +0.000 A 
ATOM     15  C   UNL     1      -2.410  11.324  18.088  0.00  0.00    +0.000 A 
ATOM     16  N   UNL     1      -3.639  11.970  17.976  0.00  0.00    +0.000 N 
ATOM     17  N   UNL     1      -1.473  11.953  18.809  0.00  0.00    +0.000 NA
ATOM     18  C   UNL     1      -0.250  11.371  18.873  0.00  0.00    +0.000 A 
ATOM     19  H   UNL     1      -4.406  11.368  18.248  0.00  0.00    +0.000 HD
ATOM     20  H   UNL     1      -3.585  12.800  18.563  0.00  0.00    +0.000 HD
ENDBRANCH  10  12
ENDBRANCH   5  10
BRANCH   1  21
ATOM     21  C   UNL     1       3.803   5.233  17.735  0.00  0.00    +0.000 C 
BRANCH  21  23
ATOM     22  C   UNL     1       2.117   3.233  18.106  0.00  0.00    +0.000 C 
ATOM     23  C   UNL     1       2.859   4.142  17.143  0.00  0.00    +0.000 C 
ENDBRANCH  21  23
BRANCH  21  24
ATOM     24  N   UNL     1       5.138   4.768  18.155  0.00  0.00    +0.000 NA
ATOM     25  H   UNL     1       5.061   4.454  19.125  0.00  0.00    +0.000 HD
BRANCH  24  26
ATOM     26  C   UNL     1       6.427   5.483  17.998  0.00  0.00    +0.000 C 
ATOM     27  C   UNL     1       6.290   6.848  17.304  0.00  0.00    +0.000 C 
ATOM     28  C   UNL     1       7.144   5.656  19.345  0.00  0.00    +0.000 C 
BRANCH  26  29
ATOM     29  C   UNL     1       7.277   4.560  17.065  0.00  0.00    +0.000 C 
BRANCH  29  30
ATOM     30  C   UNL     1       6.968   4.660  15.574  0.00  0.00    +0.000 C 
ATOM     31  N   UNL     1       5.887   3.947  15.144  0.00  0.00    +0.000 N 
ATOM     32  O   UNL     1       7.639   5.304  14.780  0.00  0.00    +0.000 OA
ATOM     33  H   UNL     1       5.354   3.327  15.738  0.00  0.00    +0.000 HD
ATOM     34  H   UNL     1       5.680   3.963  14.155  0.00  0.00    +0.000 HD
ENDBRANCH  29  30
ENDBRANCH  26  29
ENDBRANCH  24  26
ENDBRANCH  21  24
ENDBRANCH   1  21
TORSDOF 9
ENDMDL
