MODEL 1
REMARK VINA RESULT:      -6.8      0.000      0.000
REMARK  Name = 
REMARK  10 active torsions:
REMARK  status: ('A' for Active; 'I' for Inactive)
REMARK    1  A    between atoms: C_1  and  C_2
REMARK    2  A    between atoms: C_2  and  C_3
REMARK    3  A    between atoms: C_3  and  N_4
REMARK    4  A    between atoms: N_4  and  C_5
REMARK    5  A    between atoms: N_4  and  C_8
REMARK    6  A    between atoms: C_5  and  C_6
REMARK    7  A    between atoms: C_6  and  C_7
REMARK    8  A    between atoms: C_8  and  C_9
REMARK    9  A    between atoms: C_16  and  O_17
REMARK   10  A    between atoms: C_18  and  O_19
REMARK                            x       y       z     vdW  Elec       q    Type
REMARK                         _______ _______ _______ _____ _____    ______ ____
ROOT
ATOM      1  C   UNL     1       3.876   4.626  16.763  0.00  0.00    +0.000 C 
ATOM      2  O   UNL     1       4.092   5.989  17.247  0.00  0.00    +0.000 OA
ATOM      3  C   UNL     1       3.419   6.189  18.514  0.00  0.00    +0.000 C 
ATOM      4  C   UNL     1       2.728   4.912  18.794  0.00  0.00    +0.000 A 
ATOM      5  C   UNL     1       2.975   4.007  17.777  0.00  0.00    +0.000 A 
ATOM      6  C   UNL     1       2.423   2.732  17.804  0.00  0.00    +0.000 A 
ATOM      7  C   UNL     1       1.629   2.361  18.892  0.00  0.00    +0.000 A 
ATOM      8  C   UNL     1       1.405   3.273  19.924  0.00  0.00    +0.000 A 
ATOM      9  C   UNL     1       1.949   4.556  19.873  0.00  0.00    +0.000 A 
ENDROOT
BRANCH   8  10
ATOM     10  O   UNL     1       0.662   2.941  21.024  0.00  0.00    +0.000 OA
ATOM     11  H   UNL     1       0.397   2.010  20.934  0.00  0.00    +0.000 HD
ENDBRANCH   8  10
BRANCH   9  12
ATOM     12  O   UNL     1       1.727   5.434  20.892  0.00  0.00    +0.000 OA
ATOM     13  H   UNL     1       0.853   5.177  21.248  0.00  0.00    +0.000 HD
ENDBRANCH   9  12
BRANCH   1  14
ATOM     14  C   UNL     1       5.265   3.948  16.628  0.00  0.00    +0.000 C 
BRANCH  14  15
ATOM     15  N   UNL     1       6.437   4.796  16.266  0.00  0.00    +0.000 NA
BRANCH  15  16
ATOM     16  C   UNL     1       7.509   4.655  17.276  0.00  0.00    +0.000 C 
BRANCH  16  18
ATOM     17  C   UNL     1       7.676   7.136  17.902  0.00  0.00    +0.000 C 
ATOM     18  C   UNL     1       7.529   5.706  18.400  0.00  0.00    +0.000 C 
ENDBRANCH  16  18
ENDBRANCH  15  16
BRANCH  15  19
ATOM     19  C   UNL     1       6.925   4.457  14.910  0.00  0.00    +0.000 C 
BRANCH  19  20
ATOM     20  C   UNL     1       5.840   4.108  13.877  0.00  0.00    +0.000 C 
ATOM     21  C   UNL     1       6.404   3.600  12.557  0.00  0.00    +0.000 C 
ENDBRANCH  19  20
ENDBRANCH  15  19
ENDBRANCH  14  15
ENDBRANCH   1  14
TORSDOF 8
ENDMDL
MODEL 2
REMARK VINA RESULT:      -6.8      1.296      3.068
REMARK  Name = 
REMARK  10 active torsions:
REMARK  status: ('A' for Active; 'I' for Inactive)
REMARK    1  A    between atoms: C_1  and  C_2
REMARK    2  A    between atoms: C_2  and  C_3
REMARK    3  A    between atoms: C_3  and  N_4
REMARK    4  A    between atoms: N_4  and  C_5
REMARK    5  A    between atoms: N_4  and  C_8
REMARK    6  A    between atoms: C_5  and  C_6
REMARK    7  A    between atoms: C_6  and  C_7
REMARK    8  A    between atoms: C_8  and  C_9
REMARK    9  A    between atoms: C_16  and  O_17
REMARK   10  A    between atoms: C_18  and  O_19
REMARK                            x       y       z     vdW  Elec       q    Type
REMARK                         _______ _______ _______ _____ _____    ______ ____
ROOT
ATOM      1  C   UNL     1       4.556   5.425  18.192  0.00  0.00    +0.000 C 
ATOM      2  O   UNL     1       4.026   6.386  19.158  0.00  0.00    +0.000 OA
ATOM      3  C   UNL     1       2.794   5.894  19.739  0.00  0.00    +0.000 C 
ATOM      4  C   UNL     1       2.538   4.601  19.070  0.00  0.00    +0.000 A 
ATOM      5  C   UNL     1       3.545   4.329  18.162  0.00  0.00    +0.000 A 
ATOM      6  C   UNL     1       3.524   3.171  17.394  0.00  0.00    +0.000 A 
ATOM      7  C   UNL     1       2.478   2.262  17.569  0.00  0.00    +0.000 A 
ATOM      8  C   UNL     1       1.479   2.532  18.505  0.00  0.00    +0.000 A 
ATOM      9  C   UNL     1       1.502   3.709  19.253  0.00  0.00    +0.000 A 
ENDROOT
BRANCH   8  10
ATOM     10  O   UNL     1       0.454   1.655  18.734  0.00  0.00    +0.000 OA
ATOM     11  H   UNL     1      -0.373   2.088  18.460  0.00  0.00    +0.000 HD
ENDBRANCH   8  10
BRANCH   9  12
ATOM     12  O   UNL     1       0.524   3.958  20.168  0.00  0.00    +0.000 OA
ATOM     13  H   UNL     1       0.869   3.578  21.001  0.00  0.00    +0.000 HD
ENDBRANCH   9  12
BRANCH   1  14
ATOM     14  C   UNL     1       5.965   4.995  18.678  0.00  0.00    +0.000 C 
BRANCH  14  15
ATOM     15  N   UNL     1       7.124   5.197  17.762  0.00  0.00    +0.000 NA
BRANCH  15  16
ATOM     16  C   UNL     1       7.024   4.295  16.594  0.00  0.00    +0.000 C 
BRANCH  16  18
ATOM     17  C   UNL     1       5.604   4.394  14.461  0.00  0.00    +0.000 C 
ATOM     18  C   UNL     1       6.783   4.969  15.232  0.00  0.00    +0.000 C 
ENDBRANCH  16  18
ENDBRANCH  15  16
BRANCH  15  19
ATOM     19  C   UNL     1       7.213   6.614  17.342  0.00  0.00    +0.000 C 
BRANCH  19  20
ATOM     20  C   UNL     1       8.057   7.529  18.247  0.00  0.00    +0.000 C 
ATOM     21  C   UNL     1       8.029   8.990  17.823  0.00  0.00    +0.000 C 
ENDBRANCH  19  20
ENDBRANCH  15  19
ENDBRANCH  14  15
ENDBRANCH   1  14
TORSDOF 8
ENDMDL
MODEL 3
REMARK VINA RESULT:      -6.7      1.330      1.902
REMARK  Name = 
REMARK  10 active torsions:
REMARK  status: ('A' for Active; 'I' for Inactive)
REMARK    1  A    between atoms: C_1  and  C_2
REMARK    2  A    between atoms: C_2  and  C_3
REMARK    3  A    between atoms: C_3  and  N_4
REMARK    4  A    between atoms: N_4  and  C_5
REMARK    5  A    between atoms: N_4  and  C_8
REMARK    6  A    between atoms: C_5  and  C_6
REMARK    7  A    between atoms: C_6  and  C_7
REMARK    8  A    between atoms: C_8  and  C_9
REMARK    9  A    between atoms: C_16  and  O_17
REMARK   10  A    between atoms: C_18  and  O_19
REMARK                            x       y       z     vdW  Elec       q    Type
REMARK                         _______ _______ _______ _____ _____    ______ ____
ROOT
ATOM      1  C   UNL     1       4.081   5.850  18.046  0.00  0.00    +0.000 C 
ATOM      2  O   UNL     1       3.531   6.721  19.082  0.00  0.00    +0.000 OA
ATOM      3  C   UNL     1       2.420   6.075  19.751  0.00  0.00    +0.000 C 
ATOM      4  C   UNL     1       2.257   4.775  19.066  0.00  0.00    +0.000 A 
ATOM      5  C   UNL     1       3.205   4.643  18.067  0.00  0.00    +0.000 A 
ATOM      6  C   UNL     1       3.249   3.507  17.268  0.00  0.00    +0.000 A 
ATOM      7  C   UNL     1       2.335   2.478  17.503  0.00  0.00    +0.000 A 
ATOM      8  C   UNL     1       1.398   2.609  18.529  0.00  0.00    +0.000 A 
ATOM      9  C   UNL     1       1.352   3.764  19.309  0.00  0.00    +0.000 A 
ENDROOT
BRANCH   8  10
ATOM     10  O   UNL     1       0.506   1.612  18.817  0.00  0.00    +0.000 OA
ATOM     11  H   UNL     1       0.964   0.762  18.702  0.00  0.00    +0.000 HD
ENDBRANCH   8  10
BRANCH   9  12
ATOM     12  O   UNL     1       0.436   3.876  20.312  0.00  0.00    +0.000 OA
ATOM     13  H   UNL     1       0.046   4.764  20.185  0.00  0.00    +0.000 HD
ENDBRANCH   9  12
BRANCH   1  14
ATOM     14  C   UNL     1       5.568   5.578  18.396  0.00  0.00    +0.000 C 
BRANCH  14  15
ATOM     15  N   UNL     1       6.616   6.029  17.436  0.00  0.00    +0.000 NA
BRANCH  15  16
ATOM     16  C   UNL     1       7.614   6.880  18.121  0.00  0.00    +0.000 C 
BRANCH  16  18
ATOM     17  C   UNL     1       8.560   9.239  18.456  0.00  0.00    +0.000 C 
ATOM     18  C   UNL     1       7.842   8.279  17.520  0.00  0.00    +0.000 C 
ENDBRANCH  16  18
ENDBRANCH  15  16
BRANCH  15  19
ATOM     19  C   UNL     1       7.259   4.865  16.785  0.00  0.00    +0.000 C 
BRANCH  19  20
ATOM     20  C   UNL     1       6.412   4.141  15.723  0.00  0.00    +0.000 C 
ATOM     21  C   UNL     1       6.719   4.585  14.300  0.00  0.00    +0.000 C 
ENDBRANCH  19  20
ENDBRANCH  15  19
ENDBRANCH  14  15
ENDBRANCH   1  14
TORSDOF 8
ENDMDL
MODEL 4
REMARK VINA RESULT:      -6.7      2.401      6.002
REMARK  Name = 
REMARK  10 active torsions:
REMARK  status: ('A' for Active; 'I' for Inactive)
REMARK    1  A    between atoms: C_1  and  C_2
REMARK    2  A    between atoms: C_2  and  C_3
REMARK    3  A    between atoms: C_3  and  N_4
REMARK    4  A    between atoms: N_4  and  C_5
REMARK    5  A    between atoms: N_4  and  C_8
REMARK    6  A    between atoms: C_5  and  C_6
REMARK    7  A    between atoms: C_6  and  C_7
REMARK    8  A    between atoms: C_8  and  C_9
REMARK    9  A    between atoms: C_16  and  O_17
REMARK   10  A    between atoms: C_18  and  O_19
REMARK                            x       y       z     vdW  Elec       q    Type
REMARK                         _______ _______ _______ _____ _____    ______ ____
ROOT
ATOM      1  C   UNL     1       4.534   3.890  18.701  0.00  0.00    +0.000 C 
ATOM      2  O   UNL     1       5.224   4.734  19.674  0.00  0.00    +0.000 OA
ATOM      3  C   UNL     1       6.234   5.540  19.020  0.00  0.00    +0.000 C 
ATOM      4  C   UNL     1       6.189   5.141  17.597  0.00  0.00    +0.000 A 
ATOM      5  C   UNL     1       5.218   4.175  17.406  0.00  0.00    +0.000 A 
ATOM      6  C   UNL     1       4.990   3.627  16.150  0.00  0.00    +0.000 A 
ATOM      7  C   UNL     1       5.741   4.085  15.065  0.00  0.00    +0.000 A 
ATOM      8  C   UNL     1       6.702   5.078  15.262  0.00  0.00    +0.000 A 
ATOM      9  C   UNL     1       6.934   5.604  16.533  0.00  0.00    +0.000 A 
ENDROOT
BRANCH   8  10
ATOM     10  O   UNL     1       7.437   5.581  14.224  0.00  0.00    +0.000 OA
ATOM     11  H   UNL     1       7.820   6.426  14.514  0.00  0.00    +0.000 HD
ENDBRANCH   8  10
BRANCH   9  12
ATOM     12  O   UNL     1       7.871   6.577  16.711  0.00  0.00    +0.000 OA
ATOM     13  H   UNL     1       7.393   7.410  16.525  0.00  0.00    +0.000 HD
ENDBRANCH   9  12
BRANCH   1  14
ATOM     14  C   UNL     1       3.028   4.263  18.735  0.00  0.00    +0.000 C 
BRANCH  14  15
ATOM     15  N   UNL     1       2.521   5.057  19.891  0.00  0.00    +0.000 NA
BRANCH  15  16
ATOM     16  C   UNL     1       2.427   6.489  19.534  0.00  0.00    +0.000 C 
BRANCH  16  18
ATOM     17  C   UNL     1       3.527   7.723  17.573  0.00  0.00    +0.000 C 
ATOM     18  C   UNL     1       2.395   6.815  18.030  0.00  0.00    +0.000 C 
ENDBRANCH  16  18
ENDBRANCH  15  16
BRANCH  15  19
ATOM     19  C   UNL     1       1.215   4.530  20.350  0.00  0.00    +0.000 C 
BRANCH  19  20
ATOM     20  C   UNL     1       1.163   3.016  20.622  0.00  0.00    +0.000 C 
ATOM     21  C   UNL     1       2.067   2.576  21.765  0.00  0.00    +0.000 C 
ENDBRANCH  19  20
ENDBRANCH  15  19
ENDBRANCH  14  15
ENDBRANCH   1  14
TORSDOF 8
ENDMDL
MODEL 5
REMARK VINA RESULT:      -6.6      0.619      2.926
REMARK  Name = 
REMARK  10 active torsions:
REMARK  status: ('A' for Active; 'I' for Inactive)
REMARK    1  A    between atoms: C_1  and  C_2
REMARK    2  A    between atoms: C_2  and  C_3
REMARK    3  A    between atoms: C_3  and  N_4
REMARK    4  A    between atoms: N_4  and  C_5
REMARK    5  A    between atoms: N_4  and  C_8
REMARK    6  A    between atoms: C_5  and  C_6
REMARK    7  A    between atoms: C_6  and  C_7
REMARK    8  A    between atoms: C_8  and  C_9
REMARK    9  A    between atoms: C_16  and  O_17
REMARK   10  A    between atoms: C_18  and  O_19
REMARK                            x       y       z     vdW  Elec       q    Type
REMARK                         _______ _______ _______ _____ _____    ______ ____
ROOT
ATOM      1  C   UNL     1       3.967   4.250  16.612  0.00  0.00    +0.000 C 
ATOM      2  O   UNL     1       4.207   5.640  16.998  0.00  0.00    +0.000 OA
ATOM      3  C   UNL     1       3.459   5.970  18.194  0.00  0.00    +0.000 C 
ATOM      4  C   UNL     1       2.697   4.747  18.527  0.00  0.00    +0.000 A 
ATOM      5  C   UNL     1       2.974   3.751  17.607  0.00  0.00    +0.000 A 
ATOM      6  C   UNL     1       2.368   2.504  17.697  0.00  0.00    +0.000 A 
ATOM      7  C   UNL     1       1.487   2.255  18.752  0.00  0.00    +0.000 A 
ATOM      8  C   UNL     1       1.233   3.257  19.690  0.00  0.00    +0.000 A 
ATOM      9  C   UNL     1       1.832   4.511  19.574  0.00  0.00    +0.000 A 
ENDROOT
BRANCH   8  10
ATOM     10  O   UNL     1       0.404   3.046  20.757  0.00  0.00    +0.000 OA
ATOM     11  H   UNL     1       0.118   3.915  21.087  0.00  0.00    +0.000 HD
ENDBRANCH   8  10
BRANCH   9  12
ATOM     12  O   UNL     1       1.580   5.478  20.500  0.00  0.00    +0.000 OA
ATOM     13  H   UNL     1       2.016   6.276  20.141  0.00  0.00    +0.000 HD
ENDBRANCH   9  12
BRANCH   1  14
ATOM     14  C   UNL     1       5.332   3.513  16.631  0.00  0.00    +0.000 C 
BRANCH  14  15
ATOM     15  N   UNL     1       6.312   3.806  15.546  0.00  0.00    +0.000 NA
BRANCH  15  16
ATOM     16  C   UNL     1       5.612   4.271  14.328  0.00  0.00    +0.000 C 
BRANCH  16  18
ATOM     17  C   UNL     1       5.294   3.199  12.021  0.00  0.00    +0.000 C 
ATOM     18  C   UNL     1       6.253   3.882  12.984  0.00  0.00    +0.000 C 
ENDBRANCH  16  18
ENDBRANCH  15  16
BRANCH  15  19
ATOM     19  C   UNL     1       7.312   4.797  16.004  0.00  0.00    +0.000 C 
BRANCH  19  20
ATOM     20  C   UNL     1       7.553   4.852  17.523  0.00  0.00    +0.000 C 
ATOM     21  C   UNL     1       7.477   6.260  18.095  0.00  0.00    +0.000 C 
ENDBRANCH  19  20
ENDBRANCH  15  19
ENDBRANCH  14  15
ENDBRANCH   1  14
TORSDOF 8
ENDMDL
MODEL 6
REMARK VINA RESULT:      -6.5      1.500      3.112
REMARK  Name = 
REMARK  10 active torsions:
REMARK  status: ('A' for Active; 'I' for Inactive)
REMARK    1  A    between atoms: C_1  and  C_2
REMARK    2  A    between atoms: C_2  and  C_3
REMARK    3  A    between atoms: C_3  and  N_4
REMARK    4  A    between atoms: N_4  and  C_5
REMARK    5  A    between atoms: N_4  and  C_8
REMARK    6  A    between atoms: C_5  and  C_6
REMARK    7  A    between atoms: C_6  and  C_7
REMARK    8  A    between atoms: C_8  and  C_9
REMARK    9  A    between atoms: C_16  and  O_17
REMARK   10  A    between atoms: C_18  and  O_19
REMARK                            x       y       z     vdW  Elec       q    Type
REMARK                         _______ _______ _______ _____ _____    ______ ____
ROOT
ATOM      1  C   UNL     1       4.516   3.987  17.980  0.00  0.00    +0.000 C 
ATOM      2  O   UNL     1       3.524   4.831  17.316  0.00  0.00    +0.000 OA
ATOM      3  C   UNL     1       2.288   4.850  18.071  0.00  0.00    +0.000 C 
ATOM      4  C   UNL     1       2.519   3.946  19.218  0.00  0.00    +0.000 A 
ATOM      5  C   UNL     1       3.802   3.430  19.165  0.00  0.00    +0.000 A 
ATOM      6  C   UNL     1       4.256   2.540  20.130  0.00  0.00    +0.000 A 
ATOM      7  C   UNL     1       3.405   2.188  21.180  0.00  0.00    +0.000 A 
ATOM      8  C   UNL     1       2.122   2.733  21.240  0.00  0.00    +0.000 A 
ATOM      9  C   UNL     1       1.672   3.608  20.252  0.00  0.00    +0.000 A 
ENDROOT
BRANCH   8  10
ATOM     10  O   UNL     1       1.267   2.443  22.268  0.00  0.00    +0.000 OA
ATOM     11  H   UNL     1       0.362   2.455  21.913  0.00  0.00    +0.000 HD
ENDBRANCH   8  10
BRANCH   9  12
ATOM     12  O   UNL     1       0.418   4.138  20.326  0.00  0.00    +0.000 OA
ATOM     13  H   UNL     1       0.122   4.189  19.396  0.00  0.00    +0.000 HD
ENDBRANCH   9  12
BRANCH   1  14
ATOM     14  C   UNL     1       5.742   4.875  18.320  0.00  0.00    +0.000 C 
BRANCH  14  15
ATOM     15  N   UNL     1       6.863   4.943  17.339  0.00  0.00    +0.000 NA
BRANCH  15  16
ATOM     16  C   UNL     1       6.557   4.124  16.146  0.00  0.00    +0.000 C 
BRANCH  16  18
ATOM     17  C   UNL     1       6.334   3.962  13.596  0.00  0.00    +0.000 C 
ATOM     18  C   UNL     1       6.816   4.786  14.781  0.00  0.00    +0.000 C 
ENDBRANCH  16  18
ENDBRANCH  15  16
BRANCH  15  19
ATOM     19  C   UNL     1       7.146   6.349  16.969  0.00  0.00    +0.000 C 
BRANCH  19  20
ATOM     20  C   UNL     1       7.819   7.204  18.057  0.00  0.00    +0.000 C 
ATOM     21  C   UNL     1       7.929   8.676  17.685  0.00  0.00    +0.000 C 
ENDBRANCH  19  20
ENDBRANCH  15  19
ENDBRANCH  14  15
ENDBRANCH   1  14
TORSDOF 8
ENDMDL
MODEL 7
REMARK VINA RESULT:      -6.4      1.448      3.266
REMARK  Name = 
REMARK  10 active torsions:
REMARK  status: ('A' for Active; 'I' for Inactive)
REMARK    1  A    between atoms: C_1  and  C_2
REMARK    2  A    between atoms: C_2  and  C_3
REMARK    3  A    between atoms: C_3  and  N_4
REMARK    4  A    between atoms: N_4  and  C_5
REMARK    5  A    between atoms: N_4  and  C_8
REMARK    6  A    between atoms: C_5  and  C_6
REMARK    7  A    between atoms: C_6  and  C_7
REMARK    8  A    between atoms: C_8  and  C_9
REMARK    9  A    between atoms: C_16  and  O_17
REMARK   10  A    between atoms: C_18  and  O_19
REMARK                            x       y       z     vdW  Elec       q    Type
REMARK                         _______ _______ _______ _____ _____    ______ ____
ROOT
ATOM      1  C   UNL     1       3.953   3.243  17.458  0.00  0.00    +0.000 C 
ATOM      2  O   UNL     1       2.778   3.758  16.756  0.00  0.00    +0.000 OA
ATOM      3  C   UNL     1       1.645   3.837  17.656  0.00  0.00    +0.000 C 
ATOM      4  C   UNL     1       2.135   3.307  18.946  0.00  0.00    +0.000 A 
ATOM      5  C   UNL     1       3.466   2.947  18.836  0.00  0.00    +0.000 A 
ATOM      6  C   UNL     1       4.154   2.407  19.916  0.00  0.00    +0.000 A 
ATOM      7  C   UNL     1       3.488   2.256  21.135  0.00  0.00    +0.000 A 
ATOM      8  C   UNL     1       2.152   2.645  21.244  0.00  0.00    +0.000 A 
ATOM      9  C   UNL     1       1.469   3.165  20.145  0.00  0.00    +0.000 A 
ENDROOT
BRANCH   8  10
ATOM     10  O   UNL     1       1.471   2.546  22.426  0.00  0.00    +0.000 OA
ATOM     11  H   UNL     1       2.115   2.643  23.148  0.00  0.00    +0.000 HD
ENDBRANCH   8  10
BRANCH   9  12
ATOM     12  O   UNL     1       0.167   3.547  20.267  0.00  0.00    +0.000 OA
ATOM     13  H   UNL     1       0.153   4.468  19.939  0.00  0.00    +0.000 HD
ENDBRANCH   9  12
BRANCH   1  14
ATOM     14  C   UNL     1       5.062   4.325  17.379  0.00  0.00    +0.000 C 
BRANCH  14  15
ATOM     15  N   UNL     1       6.165   4.140  16.393  0.00  0.00    +0.000 NA
BRANCH  15  16
ATOM     16  C   UNL     1       5.809   4.757  15.096  0.00  0.00    +0.000 C 
BRANCH  16  18
ATOM     17  C   UNL     1       6.038   3.596  12.821  0.00  0.00    +0.000 C 
ATOM     18  C   UNL     1       6.723   4.414  13.906  0.00  0.00    +0.000 C 
ENDBRANCH  16  18
ENDBRANCH  15  16
BRANCH  15  19
ATOM     19  C   UNL     1       7.433   4.693  16.922  0.00  0.00    +0.000 C 
BRANCH  19  20
ATOM     20  C   UNL     1       7.305   5.980  17.755  0.00  0.00    +0.000 C 
ATOM     21  C   UNL     1       7.846   5.839  19.171  0.00  0.00    +0.000 C 
ENDBRANCH  19  20
ENDBRANCH  15  19
ENDBRANCH  14  15
ENDBRANCH   1  14
TORSDOF 8
ENDMDL
MODEL 8
REMARK VINA RESULT:      -6.4      1.504      1.844
REMARK  Name = 
REMARK  10 active torsions:
REMARK  status: ('A' for Active; 'I' for Inactive)
REMARK    1  A    between atoms: C_1  and  C_2
REMARK    2  A    between atoms: C_2  and  C_3
REMARK    3  A    between atoms: C_3  and  N_4
REMARK    4  A    between atoms: N_4  and  C_5
REMARK    5  A    between atoms: N_4  and  C_8
REMARK    6  A    between atoms: C_5  and  C_6
REMARK    7  A    between atoms: C_6  and  C_7
REMARK    8  A    between atoms: C_8  and  C_9
REMARK    9  A    between atoms: C_16  and  O_17
REMARK   10  A    between atoms: C_18  and  O_19
REMARK                            x       y       z     vdW  Elec       q    Type
REMARK                         _______ _______ _______ _____ _____    ______ ____
ROOT
ATOM      1  C   UNL     1       4.345   3.742  17.654  0.00  0.00    +0.000 C 
ATOM      2  O   UNL     1       3.268   4.474  16.989  0.00  0.00    +0.000 OA
ATOM      3  C   UNL     1       2.088   4.513  17.828  0.00  0.00    +0.000 C 
ATOM      4  C   UNL     1       2.444   3.736  19.035  0.00  0.00    +0.000 A 
ATOM      5  C   UNL     1       3.744   3.274  18.936  0.00  0.00    +0.000 A 
ATOM      6  C   UNL     1       4.309   2.503  19.944  0.00  0.00    +0.000 A 
ATOM      7  C   UNL     1       3.552   2.220  21.084  0.00  0.00    +0.000 A 
ATOM      8  C   UNL     1       2.250   2.711  21.187  0.00  0.00    +0.000 A 
ATOM      9  C   UNL     1       1.689   3.466  20.157  0.00  0.00    +0.000 A 
ENDROOT
BRANCH   8  10
ATOM     10  O   UNL     1       1.485   2.487  22.298  0.00  0.00    +0.000 OA
ATOM     11  H   UNL     1       2.036   2.667  23.079  0.00  0.00    +0.000 HD
ENDBRANCH   8  10
BRANCH   9  12
ATOM     12  O   UNL     1       0.418   3.945  20.273  0.00  0.00    +0.000 OA
ATOM     13  H   UNL     1      -0.145   3.146  20.245  0.00  0.00    +0.000 HD
ENDBRANCH   9  12
BRANCH   1  14
ATOM     14  C   UNL     1       5.545   4.713  17.816  0.00  0.00    +0.000 C 
BRANCH  14  15
ATOM     15  N   UNL     1       5.853   5.652  16.700  0.00  0.00    +0.000 NA
BRANCH  15  16
ATOM     16  C   UNL     1       6.152   7.002  17.227  0.00  0.00    +0.000 C 
BRANCH  16  18
ATOM     17  C   UNL     1       7.922   8.766  17.801  0.00  0.00    +0.000 C 
ATOM     18  C   UNL     1       7.628   7.295  17.549  0.00  0.00    +0.000 C 
ENDBRANCH  16  18
ENDBRANCH  15  16
BRANCH  15  19
ATOM     19  C   UNL     1       6.972   5.135  15.879  0.00  0.00    +0.000 C 
BRANCH  19  20
ATOM     20  C   UNL     1       6.629   3.961  14.945  0.00  0.00    +0.000 C 
ATOM     21  C   UNL     1       5.472   4.258  14.002  0.00  0.00    +0.000 C 
ENDBRANCH  19  20
ENDBRANCH  15  19
ENDBRANCH  14  15
ENDBRANCH   1  14
TORSDOF 8
ENDMDL
MODEL 9
REMARK VINA RESULT:      -6.4      1.620      3.397
REMARK  Name = 
REMARK  10 active torsions:
REMARK  status: ('A' for Active; 'I' for Inactive)
REMARK    1  A    between atoms: C_1  and  C_2
REMARK    2  A    between atoms: C_2  and  C_3
REMARK    3  A    between atoms: C_3  and  N_4
REMARK    4  A    between atoms: N_4  and  C_5
REMARK    5  A    between atoms: N_4  and  C_8
REMARK    6  A    between atoms: C_5  and  C_6
REMARK    7  A    between atoms: C_6  and  C_7
REMARK    8  A    between atoms: C_8  and  C_9
REMARK    9  A    between atoms: C_16  and  O_17
REMARK   10  A    between atoms: C_18  and  O_19
REMARK                            x       y       z     vdW  Elec       q    Type
REMARK                         _______ _______ _______ _____ _____    ______ ____
ROOT
ATOM      1  C   UNL     1       5.082   4.655  18.224  0.00  0.00    +0.000 C 
ATOM      2  O   UNL     1       5.743   3.932  19.309  0.00  0.00    +0.000 OA
ATOM      3  C   UNL     1       4.789   3.109  20.025  0.00  0.00    +0.000 C 
ATOM      4  C   UNL     1       3.486   3.374  19.379  0.00  0.00    +0.000 A 
ATOM      5  C   UNL     1       3.644   4.279  18.345  0.00  0.00    +0.000 A 
ATOM      6  C   UNL     1       2.557   4.700  17.589  0.00  0.00    +0.000 A 
ATOM      7  C   UNL     1       1.293   4.174  17.869  0.00  0.00    +0.000 A 
ATOM      8  C   UNL     1       1.147   3.242  18.898  0.00  0.00    +0.000 A 
ATOM      9  C   UNL     1       2.244   2.845  19.662  0.00  0.00    +0.000 A 
ENDROOT
BRANCH   8  10
ATOM     10  O   UNL     1      -0.065   2.676  19.185  0.00  0.00    +0.000 OA
ATOM     11  H   UNL     1      -0.757   3.290  18.887  0.00  0.00    +0.000 HD
ENDBRANCH   8  10
BRANCH   9  12
ATOM     12  O   UNL     1       2.088   1.930  20.660  0.00  0.00    +0.000 OA
ATOM     13  H   UNL     1       3.001   1.710  20.932  0.00  0.00    +0.000 HD
ENDBRANCH   9  12
BRANCH   1  14
ATOM     14  C   UNL     1       5.755   4.227  16.893  0.00  0.00    +0.000 C 
BRANCH  14  15
ATOM     15  N   UNL     1       6.873   5.060  16.364  0.00  0.00    +0.000 NA
BRANCH  15  16
ATOM     16  C   UNL     1       6.976   4.914  14.895  0.00  0.00    +0.000 C 
BRANCH  16  18
ATOM     17  C   UNL     1       6.286   3.646  12.776  0.00  0.00    +0.000 C 
ATOM     18  C   UNL     1       5.977   3.948  14.235  0.00  0.00    +0.000 C 
ENDBRANCH  16  18
ENDBRANCH  15  16
BRANCH  15  19
ATOM     19  C   UNL     1       6.695   6.477  16.753  0.00  0.00    +0.000 C 
BRANCH  19  20
ATOM     20  C   UNL     1       7.679   7.009  17.810  0.00  0.00    +0.000 C 
ATOM     21  C   UNL     1       7.922   8.508  17.708  0.00  0.00    +0.000 C 
ENDBRANCH  19  20
ENDBRANCH  15  19
ENDBRANCH  14  15
ENDBRANCH   1  14
TORSDOF 8
ENDMDL
