MODEL 1
REMARK VINA RESULT:      -8.7      0.000      0.000
REMARK  Name = 
REMARK  8 active torsions:
REMARK  status: ('A' for Active; 'I' for Inactive)
REMARK    1  A    between atoms: C_1  and  C_2
REMARK    2  A    between atoms: C_5  and  N_6
REMARK    3  A    between atoms: C_10  and  S_11
REMARK    4  A    between atoms: S_11  and  N_14
REMARK    5  A    between atoms: N_14  and  C_15
REMARK    6  A    between atoms: N_14  and  N_16
REMARK    7  A    between atoms: C_17  and  C_18
REMARK    8  A    between atoms: C_24  and  C_25
REMARK                            x       y       z     vdW  Elec       q    Type
REMARK                         _______ _______ _______ _____ _____    ______ ____
ROOT
ATOM      1  N   UNL     1       2.394   5.449  18.877  0.00  0.00    +0.000 NA
ATOM      2  C   UNL     1       2.587   6.600  19.442  0.00  0.00    +0.000 C 
ENDROOT
BRANCH   2   3
ATOM      3  C   UNL     1       2.213   7.904  18.842  0.00  0.00    +0.000 A 
ATOM      4  C   UNL     1       2.506   8.397  17.578  0.00  0.00    +0.000 A 
ATOM      5  N   UNL     1       1.977   9.640  17.446  0.00  0.00    +0.000 NA
ATOM      6  C   UNL     1       1.380   9.877  18.633  0.00  0.00    +0.000 A 
ATOM      7  C   UNL     1       0.695  11.034  18.996  0.00  0.00    +0.000 A 
ATOM      8  C   UNL     1       0.148  11.093  20.289  0.00  0.00    +0.000 A 
ATOM      9  C   UNL     1       0.291  10.009  21.194  0.00  0.00    +0.000 A 
ATOM     10  C   UNL     1       0.994   8.869  20.753  0.00  0.00    +0.000 A 
ATOM     11  N   UNL     1       1.511   8.857  19.489  0.00  0.00    +0.000 N 
BRANCH   9  12
ATOM     12  C   UNL     1      -0.287  10.107  22.576  0.00  0.00    +0.000 C 
ATOM     13  N   UNL     1      -0.710   9.021  23.274  0.00  0.00    +0.000 N 
ATOM     14  O   UNL     1      -0.383  11.207  23.100  0.00  0.00    +0.000 OA
ATOM     15  H   UNL     1      -0.663   8.064  22.906  0.00  0.00    +0.000 HD
ATOM     16  H   UNL     1      -1.098   9.138  24.223  0.00  0.00    +0.000 HD
ENDBRANCH   9  12
ENDBRANCH   2   3
BRANCH   1  17
ATOM     17  N   UNL     1       2.828   4.260  19.457  0.00  0.00    +0.000 N 
ATOM     18  C   UNL     1       2.340   3.815  20.749  0.00  0.00    +0.000 C 
BRANCH  17  19
ATOM     19  S   UNL     1       4.139   3.329  18.734  0.00  0.00    +0.000 S 
ATOM     20  O   UNL     1       3.373   2.232  17.976  0.00  0.00    +0.000 OA
ATOM     21  O   UNL     1       4.784   2.501  19.857  0.00  0.00    +0.000 OA
BRANCH  19  28
ATOM     22  C   UNL     1       6.515   5.454  19.445  0.00  0.00    +0.000 C 
ATOM     23  C   UNL     1       6.308   5.069  18.005  0.00  0.00    +0.000 A 
ATOM     24  C   UNL     1       7.149   5.654  17.038  0.00  0.00    +0.000 A 
ATOM     25  C   UNL     1       7.010   5.347  15.687  0.00  0.00    +0.000 A 
ATOM     26  C   UNL     1       6.030   4.443  15.259  0.00  0.00    +0.000 A 
ATOM     27  C   UNL     1       5.191   3.853  16.220  0.00  0.00    +0.000 A 
ATOM     28  C   UNL     1       5.303   4.155  17.592  0.00  0.00    +0.000 A 
BRANCH  26  29
ATOM     29  N   UNL     1       5.887   4.124  13.874  0.00  0.00    +0.000 N 
ATOM     30  O   UNL     1       4.817   3.817  13.428  0.00  0.00    +0.000 OA
ATOM     31  O   UNL     1       6.921   4.163  13.063  0.00  0.00    +0.000 OA
ENDBRANCH  26  29
ENDBRANCH  19  28
ENDBRANCH  17  19
ENDBRANCH   1  17
TORSDOF 6
ENDMDL
MODEL 2
REMARK VINA RESULT:      -8.1      2.176      2.672
REMARK  Name = 
REMARK  8 active torsions:
REMARK  status: ('A' for Active; 'I' for Inactive)
REMARK    1  A    between atoms: C_1  and  C_2
REMARK    2  A    between atoms: C_5  and  N_6
REMARK    3  A    between atoms: C_10  and  S_11
REMARK    4  A    between atoms: S_11  and  N_14
REMARK    5  A    between atoms: N_14  and  C_15
REMARK    6  A    between atoms: N_14  and  N_16
REMARK    7  A    between atoms: C_17  and  C_18
REMARK    8  A    between atoms: C_24  and  C_25
REMARK                            x       y       z     vdW  Elec       q    Type
REMARK                         _______ _______ _______ _____ _____    ______ ____
ROOT
ATOM      1  N   UNL     1       1.716   5.160  19.852  0.00  0.00    +0.000 NA
ATOM      2  C   UNL     1       2.592   6.056  19.519  0.00  0.00    +0.000 C 
ENDROOT
BRANCH   2   3
ATOM      3  C   UNL     1       2.259   7.399  18.984  0.00  0.00    +0.000 A 
ATOM      4  C   UNL     1       2.493   7.915  17.717  0.00  0.00    +0.000 A 
ATOM      5  N   UNL     1       2.035   9.192  17.660  0.00  0.00    +0.000 NA
ATOM      6  C   UNL     1       1.536   9.424  18.892  0.00  0.00    +0.000 A 
ATOM      7  C   UNL     1       0.951  10.607  19.336  0.00  0.00    +0.000 A 
ATOM      8  C   UNL     1       0.500  10.656  20.666  0.00  0.00    +0.000 A 
ATOM      9  C   UNL     1       0.637   9.536  21.527  0.00  0.00    +0.000 A 
ATOM     10  C   UNL     1       1.237   8.371  21.004  0.00  0.00    +0.000 A 
ATOM     11  N   UNL     1       1.663   8.370  19.707  0.00  0.00    +0.000 N 
BRANCH   9  12
ATOM     12  C   UNL     1       0.164   9.623  22.948  0.00  0.00    +0.000 C 
ATOM     13  N   UNL     1      -1.137   9.832  23.278  0.00  0.00    +0.000 N 
ATOM     14  O   UNL     1       0.979   9.501  23.852  0.00  0.00    +0.000 OA
ATOM     15  H   UNL     1      -1.881   9.943  22.580  0.00  0.00    +0.000 HD
ATOM     16  H   UNL     1      -1.416   9.880  24.270  0.00  0.00    +0.000 HD
ENDBRANCH   9  12
ENDBRANCH   2   3
BRANCH   1  17
ATOM     17  N   UNL     1       2.087   3.889  20.284  0.00  0.00    +0.000 N 
ATOM     18  C   UNL     1       1.419   3.231  21.391  0.00  0.00    +0.000 C 
BRANCH  17  19
ATOM     19  S   UNL     1       3.519   3.095  19.629  0.00  0.00    +0.000 S 
ATOM     20  O   UNL     1       2.904   1.924  18.845  0.00  0.00    +0.000 OA
ATOM     21  O   UNL     1       4.193   2.342  20.786  0.00  0.00    +0.000 OA
BRANCH  19  28
ATOM     22  C   UNL     1       3.231   3.653  16.424  0.00  0.00    +0.000 C 
ATOM     23  C   UNL     1       4.426   4.218  17.143  0.00  0.00    +0.000 A 
ATOM     24  C   UNL     1       5.361   4.955  16.390  0.00  0.00    +0.000 A 
ATOM     25  C   UNL     1       6.492   5.503  16.989  0.00  0.00    +0.000 A 
ATOM     26  C   UNL     1       6.722   5.337  18.361  0.00  0.00    +0.000 A 
ATOM     27  C   UNL     1       5.790   4.607  19.118  0.00  0.00    +0.000 A 
ATOM     28  C   UNL     1       4.643   4.033  18.534  0.00  0.00    +0.000 A 
BRANCH  26  29
ATOM     29  N   UNL     1       7.879   5.901  18.980  0.00  0.00    +0.000 N 
ATOM     30  O   UNL     1       8.266   6.992  18.667  0.00  0.00    +0.000 OA
ATOM     31  O   UNL     1       8.539   5.238  19.905  0.00  0.00    +0.000 OA
ENDBRANCH  26  29
ENDBRANCH  19  28
ENDBRANCH  17  19
ENDBRANCH   1  17
TORSDOF 6
ENDMDL
MODEL 3
REMARK VINA RESULT:      -8.0      2.672      8.257
REMARK  Name = 
REMARK  8 active torsions:
REMARK  status: ('A' for Active; 'I' for Inactive)
REMARK    1  A    between atoms: C_1  and  C_2
REMARK    2  A    between atoms: C_5  and  N_6
REMARK    3  A    between atoms: C_10  and  S_11
REMARK    4  A    between atoms: S_11  and  N_14
REMARK    5  A    between atoms: N_14  and  C_15
REMARK    6  A    between atoms: N_14  and  N_16
REMARK    7  A    between atoms: C_17  and  C_18
REMARK    8  A    between atoms: C_24  and  C_25
REMARK                            x       y       z     vdW  Elec       q    Type
REMARK                         _______ _______ _______ _____ _____    ______ ____
ROOT
ATOM      1  N   UNL     1       4.716   3.178  17.484  0.00  0.00    +0.000 NA
ATOM      2  C   UNL     1       4.664   4.241  16.743  0.00  0.00    +0.000 C 
ENDROOT
BRANCH   2   3
ATOM      3  C   UNL     1       5.816   4.798  15.992  0.00  0.00    +0.000 A 
ATOM      4  C   UNL     1       6.749   5.741  16.402  0.00  0.00    +0.000 A 
ATOM      5  N   UNL     1       7.628   5.971  15.393  0.00  0.00    +0.000 NA
ATOM      6  C   UNL     1       7.210   5.166  14.395  0.00  0.00    +0.000 A 
ATOM      7  C   UNL     1       7.790   5.044  13.134  0.00  0.00    +0.000 A 
ATOM      8  C   UNL     1       7.197   4.154  12.223  0.00  0.00    +0.000 A 
ATOM      9  C   UNL     1       6.044   3.406  12.576  0.00  0.00    +0.000 A 
ATOM     10  C   UNL     1       5.515   3.579  13.872  0.00  0.00    +0.000 A 
ATOM     11  N   UNL     1       6.123   4.457  14.723  0.00  0.00    +0.000 N 
BRANCH   9  12
ATOM     12  C   UNL     1       5.420   2.477  11.576  0.00  0.00    +0.000 C 
ATOM     13  N   UNL     1       5.992   1.301  11.209  0.00  0.00    +0.000 N 
ATOM     14  O   UNL     1       4.352   2.786  11.068  0.00  0.00    +0.000 OA
ATOM     15  H   UNL     1       6.885   0.969  11.589  0.00  0.00    +0.000 HD
ATOM     16  H   UNL     1       5.523   0.693  10.520  0.00  0.00    +0.000 HD
ENDBRANCH   9  12
ENDBRANCH   2   3
BRANCH   1  17
ATOM     17  N   UNL     1       3.619   2.739  18.222  0.00  0.00    +0.000 N 
ATOM     18  C   UNL     1       3.611   1.450  18.888  0.00  0.00    +0.000 C 
BRANCH  17  19
ATOM     19  S   UNL     1       2.109   3.648  18.222  0.00  0.00    +0.000 S 
ATOM     20  O   UNL     1       1.130   2.641  18.849  0.00  0.00    +0.000 OA
ATOM     21  O   UNL     1       1.595   3.683  16.775  0.00  0.00    +0.000 OA
BRANCH  19  28
ATOM     22  C   UNL     1       1.951   4.126  21.449  0.00  0.00    +0.000 C 
ATOM     23  C   UNL     1       1.949   5.331  20.548  0.00  0.00    +0.000 A 
ATOM     24  C   UNL     1       1.874   6.603  21.148  0.00  0.00    +0.000 A 
ATOM     25  C   UNL     1       1.863   7.761  20.375  0.00  0.00    +0.000 A 
ATOM     26  C   UNL     1       1.933   7.685  18.978  0.00  0.00    +0.000 A 
ATOM     27  C   UNL     1       2.014   6.418  18.375  0.00  0.00    +0.000 A 
ATOM     28  C   UNL     1       2.015   5.231  19.133  0.00  0.00    +0.000 A 
BRANCH  26  29
ATOM     29  N   UNL     1       1.926   8.870  18.182  0.00  0.00    +0.000 N 
ATOM     30  O   UNL     1       2.561   8.925  17.166  0.00  0.00    +0.000 OA
ATOM     31  O   UNL     1       1.221   9.921  18.542  0.00  0.00    +0.000 OA
ENDBRANCH  26  29
ENDBRANCH  19  28
ENDBRANCH  17  19
ENDBRANCH   1  17
TORSDOF 6
ENDMDL
MODEL 4
REMARK VINA RESULT:      -7.5      3.588      8.905
REMARK  Name = 
REMARK  8 active torsions:
REMARK  status: ('A' for Active; 'I' for Inactive)
REMARK    1  A    between atoms: C_1  and  C_2
REMARK    2  A    between atoms: C_5  and  N_6
REMARK    3  A    between atoms: C_10  and  S_11
REMARK    4  A    between atoms: S_11  and  N_14
REMARK    5  A    between atoms: N_14  and  C_15
REMARK    6  A    between atoms: N_14  and  N_16
REMARK    7  A    between atoms: C_17  and  C_18
REMARK    8  A    between atoms: C_24  and  C_25
REMARK                            x       y       z     vdW  Elec       q    Type
REMARK                         _______ _______ _______ _____ _____    ______ ____
ROOT
ATOM      1  N   UNL     1       0.788   8.046  20.779  0.00  0.00    +0.000 NA
ATOM      2  C   UNL     1       1.889   7.368  20.686  0.00  0.00    +0.000 C 
ENDROOT
BRANCH   2   3
ATOM      3  C   UNL     1       1.990   6.003  20.115  0.00  0.00    +0.000 A 
ATOM      4  C   UNL     1       1.343   4.842  20.513  0.00  0.00    +0.000 A 
ATOM      5  N   UNL     1       1.734   3.813  19.719  0.00  0.00    +0.000 NA
ATOM      6  C   UNL     1       2.613   4.370  18.859  0.00  0.00    +0.000 A 
ATOM      7  C   UNL     1       3.301   3.714  17.842  0.00  0.00    +0.000 A 
ATOM      8  C   UNL     1       4.185   4.471  17.055  0.00  0.00    +0.000 A 
ATOM      9  C   UNL     1       4.371   5.858  17.291  0.00  0.00    +0.000 A 
ATOM     10  C   UNL     1       3.636   6.454  18.337  0.00  0.00    +0.000 A 
ATOM     11  N   UNL     1       2.790   5.679  19.078  0.00  0.00    +0.000 N 
BRANCH   9  12
ATOM     12  C   UNL     1       5.336   6.638  16.447  0.00  0.00    +0.000 C 
ATOM     13  N   UNL     1       6.483   7.170  16.945  0.00  0.00    +0.000 N 
ATOM     14  O   UNL     1       5.086   6.803  15.262  0.00  0.00    +0.000 OA
ATOM     15  H   UNL     1       6.766   7.075  17.926  0.00  0.00    +0.000 HD
ATOM     16  H   UNL     1       7.118   7.696  16.325  0.00  0.00    +0.000 HD
ENDBRANCH   9  12
ENDBRANCH   2   3
BRANCH   1  17
ATOM     17  N   UNL     1       0.740   9.297  21.388  0.00  0.00    +0.000 N 
ATOM     18  C   UNL     1       0.659   9.446  22.829  0.00  0.00    +0.000 C 
BRANCH  17  19
ATOM     19  S   UNL     1       0.582  10.765  20.424  0.00  0.00    +0.000 S 
ATOM     20  O   UNL     1       1.349  10.390  19.144  0.00  0.00    +0.000 OA
ATOM     21  O   UNL     1       1.529  11.813  21.028  0.00  0.00    +0.000 OA
BRANCH  19  28
ATOM     22  C   UNL     1      -1.558  12.383  22.286  0.00  0.00    +0.000 C 
ATOM     23  C   UNL     1      -1.942  12.068  20.866  0.00  0.00    +0.000 A 
ATOM     24  C   UNL     1      -3.211  12.485  20.417  0.00  0.00    +0.000 A 
ATOM     25  C   UNL     1      -3.634  12.222  19.117  0.00  0.00    +0.000 A 
ATOM     26  C   UNL     1      -2.801  11.540  18.221  0.00  0.00    +0.000 A 
ATOM     27  C   UNL     1      -1.532  11.127  18.661  0.00  0.00    +0.000 A 
ATOM     28  C   UNL     1      -1.084  11.369  19.975  0.00  0.00    +0.000 A 
BRANCH  26  29
ATOM     29  N   UNL     1      -3.229  11.273  16.885  0.00  0.00    +0.000 N 
ATOM     30  O   UNL     1      -2.456  10.856  16.070  0.00  0.00    +0.000 OA
ATOM     31  O   UNL     1      -4.479  11.473  16.525  0.00  0.00    +0.000 OA
ENDBRANCH  26  29
ENDBRANCH  19  28
ENDBRANCH  17  19
ENDBRANCH   1  17
TORSDOF 6
ENDMDL
MODEL 5
REMARK VINA RESULT:      -7.4      3.702      9.574
REMARK  Name = 
REMARK  8 active torsions:
REMARK  status: ('A' for Active; 'I' for Inactive)
REMARK    1  A    between atoms: C_1  and  C_2
REMARK    2  A    between atoms: C_5  and  N_6
REMARK    3  A    between atoms: C_10  and  S_11
REMARK    4  A    between atoms: S_11  and  N_14
REMARK    5  A    between atoms: N_14  and  C_15
REMARK    6  A    between atoms: N_14  and  N_16
REMARK    7  A    between atoms: C_17  and  C_18
REMARK    8  A    between atoms: C_24  and  C_25
REMARK                            x       y       z     vdW  Elec       q    Type
REMARK                         _______ _______ _______ _____ _____    ______ ____
ROOT
ATOM      1  N   UNL     1       1.741   8.743  19.757  0.00  0.00    +0.000 NA
ATOM      2  C   UNL     1       1.772   7.964  18.721  0.00  0.00    +0.000 C 
ENDROOT
BRANCH   2   3
ATOM      3  C   UNL     1       2.924   7.107  18.349  0.00  0.00    +0.000 A 
ATOM      4  C   UNL     1       3.938   7.360  17.436  0.00  0.00    +0.000 A 
ATOM      5  N   UNL     1       4.785   6.299  17.398  0.00  0.00    +0.000 NA
ATOM      6  C   UNL     1       4.264   5.425  18.285  0.00  0.00    +0.000 A 
ATOM      7  C   UNL     1       4.776   4.168  18.604  0.00  0.00    +0.000 A 
ATOM      8  C   UNL     1       4.080   3.399  19.551  0.00  0.00    +0.000 A 
ATOM      9  C   UNL     1       2.894   3.886  20.161  0.00  0.00    +0.000 A 
ATOM     10  C   UNL     1       2.440   5.169  19.791  0.00  0.00    +0.000 A 
ATOM     11  N   UNL     1       3.147   5.880  18.864  0.00  0.00    +0.000 N 
BRANCH   9  12
ATOM     12  C   UNL     1       2.161   3.034  21.155  0.00  0.00    +0.000 C 
ATOM     13  N   UNL     1       0.821   2.822  21.094  0.00  0.00    +0.000 N 
ATOM     14  O   UNL     1       2.791   2.506  22.060  0.00  0.00    +0.000 OA
ATOM     15  H   UNL     1       0.222   3.227  20.366  0.00  0.00    +0.000 HD
ATOM     16  H   UNL     1       0.360   2.225  21.798  0.00  0.00    +0.000 HD
ENDBRANCH   9  12
ENDBRANCH   2   3
BRANCH   1  17
ATOM     17  N   UNL     1       0.658   9.578  20.021  0.00  0.00    +0.000 N 
ATOM     18  C   UNL     1      -0.016  10.313  18.967  0.00  0.00    +0.000 C 
BRANCH  17  19
ATOM     19  S   UNL     1       0.173   9.931  21.678  0.00  0.00    +0.000 S 
ATOM     20  O   UNL     1       1.510   9.831  22.431  0.00  0.00    +0.000 OA
ATOM     21  O   UNL     1      -0.551   8.688  22.218  0.00  0.00    +0.000 OA
BRANCH  19  28
ATOM     22  C   UNL     1       1.265  12.939  21.023  0.00  0.00    +0.000 C 
ATOM     23  C   UNL     1      -0.056  12.796  21.729  0.00  0.00    +0.000 A 
ATOM     24  C   UNL     1      -0.749  13.973  22.075  0.00  0.00    +0.000 A 
ATOM     25  C   UNL     1      -1.974  13.916  22.735  0.00  0.00    +0.000 A 
ATOM     26  C   UNL     1      -2.549  12.682  23.064  0.00  0.00    +0.000 A 
ATOM     27  C   UNL     1      -1.865  11.505  22.716  0.00  0.00    +0.000 A 
ATOM     28  C   UNL     1      -0.618  11.535  22.060  0.00  0.00    +0.000 A 
BRANCH  26  29
ATOM     29  N   UNL     1      -3.807  12.619  23.737  0.00  0.00    +0.000 N 
ATOM     30  O   UNL     1      -4.806  12.340  23.135  0.00  0.00    +0.000 OA
ATOM     31  O   UNL     1      -3.895  12.861  25.027  0.00  0.00    +0.000 OA
ENDBRANCH  26  29
ENDBRANCH  19  28
ENDBRANCH  17  19
ENDBRANCH   1  17
TORSDOF 6
ENDMDL
MODEL 6
REMARK VINA RESULT:      -7.4      3.405      9.514
REMARK  Name = 
REMARK  8 active torsions:
REMARK  status: ('A' for Active; 'I' for Inactive)
REMARK    1  A    between atoms: C_1  and  C_2
REMARK    2  A    between atoms: C_5  and  N_6
REMARK    3  A    between atoms: C_10  and  S_11
REMARK    4  A    between atoms: S_11  and  N_14
REMARK    5  A    between atoms: N_14  and  C_15
REMARK    6  A    between atoms: N_14  and  N_16
REMARK    7  A    between atoms: C_17  and  C_18
REMARK    8  A    between atoms: C_24  and  C_25
REMARK                            x       y       z     vdW  Elec       q    Type
REMARK                         _______ _______ _______ _____ _____    ______ ____
ROOT
ATOM      1  N   UNL     1       1.330   8.662  19.971  0.00  0.00    +0.000 NA
ATOM      2  C   UNL     1       2.154   7.982  19.237  0.00  0.00    +0.000 C 
ENDROOT
BRANCH   2   3
ATOM      3  C   UNL     1       2.532   6.569  19.487  0.00  0.00    +0.000 A 
ATOM      4  C   UNL     1       2.072   5.706  20.472  0.00  0.00    +0.000 A 
ATOM      5  N   UNL     1       2.691   4.505  20.343  0.00  0.00    +0.000 NA
ATOM      6  C   UNL     1       3.515   4.666  19.286  0.00  0.00    +0.000 A 
ATOM      7  C   UNL     1       4.375   3.706  18.756  0.00  0.00    +0.000 A 
ATOM      8  C   UNL     1       5.164   4.072  17.653  0.00  0.00    +0.000 A 
ATOM      9  C   UNL     1       5.087   5.376  17.098  0.00  0.00    +0.000 A 
ATOM     10  C   UNL     1       4.189   6.292  17.686  0.00  0.00    +0.000 A 
ATOM     11  N   UNL     1       3.444   5.894  18.758  0.00  0.00    +0.000 N 
BRANCH   9  12
ATOM     12  C   UNL     1       5.955   5.745  15.931  0.00  0.00    +0.000 C 
ATOM     13  N   UNL     1       7.285   5.470  15.889  0.00  0.00    +0.000 N 
ATOM     14  O   UNL     1       5.450   6.316  14.975  0.00  0.00    +0.000 OA
ATOM     15  H   UNL     1       7.783   4.993  16.648  0.00  0.00    +0.000 HD
ATOM     16  H   UNL     1       7.841   5.740  15.063  0.00  0.00    +0.000 HD
ENDBRANCH   9  12
ENDBRANCH   2   3
BRANCH   1  17
ATOM     17  N   UNL     1       1.065  10.008  19.729  0.00  0.00    +0.000 N 
ATOM     18  C   UNL     1       1.479  10.662  18.502  0.00  0.00    +0.000 C 
BRANCH  17  19
ATOM     19  S   UNL     1       0.379  11.034  20.989  0.00  0.00    +0.000 S 
ATOM     20  O   UNL     1       1.431  12.150  21.099  0.00  0.00    +0.000 OA
ATOM     21  O   UNL     1       0.587  10.312  22.329  0.00  0.00    +0.000 OA
BRANCH  19  28
ATOM     22  C   UNL     1      -1.249  13.062  22.964  0.00  0.00    +0.000 C 
ATOM     23  C   UNL     1      -1.896  12.656  21.667  0.00  0.00    +0.000 A 
ATOM     24  C   UNL     1      -3.175  13.170  21.378  0.00  0.00    +0.000 A 
ATOM     25  C   UNL     1      -3.834  12.832  20.199  0.00  0.00    +0.000 A 
ATOM     26  C   UNL     1      -3.233  11.974  19.268  0.00  0.00    +0.000 A 
ATOM     27  C   UNL     1      -1.955  11.463  19.549  0.00  0.00    +0.000 A 
ATOM     28  C   UNL     1      -1.272  11.779  20.740  0.00  0.00    +0.000 A 
BRANCH  26  29
ATOM     29  N   UNL     1      -3.904  11.628  18.056  0.00  0.00    +0.000 N 
ATOM     30  O   UNL     1      -5.093  11.475  18.041  0.00  0.00    +0.000 OA
ATOM     31  O   UNL     1      -3.234  11.476  16.934  0.00  0.00    +0.000 OA
ENDBRANCH  26  29
ENDBRANCH  19  28
ENDBRANCH  17  19
ENDBRANCH   1  17
TORSDOF 6
ENDMDL
MODEL 7
REMARK VINA RESULT:      -7.3      5.629      7.023
REMARK  Name = 
REMARK  8 active torsions:
REMARK  status: ('A' for Active; 'I' for Inactive)
REMARK    1  A    between atoms: C_1  and  C_2
REMARK    2  A    between atoms: C_5  and  N_6
REMARK    3  A    between atoms: C_10  and  S_11
REMARK    4  A    between atoms: S_11  and  N_14
REMARK    5  A    between atoms: N_14  and  C_15
REMARK    6  A    between atoms: N_14  and  N_16
REMARK    7  A    between atoms: C_17  and  C_18
REMARK    8  A    between atoms: C_24  and  C_25
REMARK                            x       y       z     vdW  Elec       q    Type
REMARK                         _______ _______ _______ _____ _____    ______ ____
ROOT
ATOM      1  N   UNL     1       8.281   8.188  18.095  0.00  0.00    +0.000 NA
ATOM      2  C   UNL     1       8.556   8.983  19.081  0.00  0.00    +0.000 C 
ENDROOT
BRANCH   2   3
ATOM      3  C   UNL     1       9.250  10.287  18.940  0.00  0.00    +0.000 A 
ATOM      4  C   UNL     1       9.939  10.793  17.847  0.00  0.00    +0.000 A 
ATOM      5  N   UNL     1      10.429  12.022  18.154  0.00  0.00    +0.000 NA
ATOM      6  C   UNL     1      10.030  12.233  19.426  0.00  0.00    +0.000 A 
ATOM      7  C   UNL     1      10.293  13.363  20.197  0.00  0.00    +0.000 A 
ATOM      8  C   UNL     1       9.797  13.389  21.511  0.00  0.00    +0.000 A 
ATOM      9  C   UNL     1       9.054  12.299  22.035  0.00  0.00    +0.000 A 
ATOM     10  C   UNL     1       8.825  11.191  21.193  0.00  0.00    +0.000 A 
ATOM     11  N   UNL     1       9.328  11.208  19.923  0.00  0.00    +0.000 N 
BRANCH   9  12
ATOM     12  C   UNL     1       8.553  12.346  23.448  0.00  0.00    +0.000 C 
ATOM     13  N   UNL     1       8.533  13.488  24.183  0.00  0.00    +0.000 N 
ATOM     14  O   UNL     1       8.145  11.316  23.966  0.00  0.00    +0.000 OA
ATOM     15  H   UNL     1       8.856  14.393  23.822  0.00  0.00    +0.000 HD
ATOM     16  H   UNL     1       8.175  13.473  25.150  0.00  0.00    +0.000 HD
ENDBRANCH   9  12
ENDBRANCH   2   3
BRANCH   1  17
ATOM     17  N   UNL     1       7.688   6.943  18.293  0.00  0.00    +0.000 N 
ATOM     18  C   UNL     1       8.169   6.018  19.301  0.00  0.00    +0.000 C 
BRANCH  17  19
ATOM     19  S   UNL     1       6.441   6.353  17.196  0.00  0.00    +0.000 S 
ATOM     20  O   UNL     1       7.226   5.359  16.325  0.00  0.00    +0.000 OA
ATOM     21  O   UNL     1       6.163   7.468  16.177  0.00  0.00    +0.000 OA
BRANCH  19  28
ATOM     22  C   UNL     1       3.444   7.575  17.631  0.00  0.00    +0.000 C 
ATOM     23  C   UNL     1       3.697   6.146  18.029  0.00  0.00    +0.000 A 
ATOM     24  C   UNL     1       2.625   5.413  18.574  0.00  0.00    +0.000 A 
ATOM     25  C   UNL     1       2.789   4.088  18.969  0.00  0.00    +0.000 A 
ATOM     26  C   UNL     1       4.028   3.451  18.826  0.00  0.00    +0.000 A 
ATOM     27  C   UNL     1       5.100   4.176  18.277  0.00  0.00    +0.000 A 
ATOM     28  C   UNL     1       4.964   5.521  17.881  0.00  0.00    +0.000 A 
BRANCH  26  29
ATOM     29  N   UNL     1       4.200   2.091  19.226  0.00  0.00    +0.000 N 
ATOM     30  O   UNL     1       3.711   1.202  18.586  0.00  0.00    +0.000 OA
ATOM     31  O   UNL     1       4.899   1.786  20.298  0.00  0.00    +0.000 OA
ENDBRANCH  26  29
ENDBRANCH  19  28
ENDBRANCH  17  19
ENDBRANCH   1  17
TORSDOF 6
ENDMDL
MODEL 8
REMARK VINA RESULT:      -7.3      4.162      6.608
REMARK  Name = 
REMARK  8 active torsions:
REMARK  status: ('A' for Active; 'I' for Inactive)
REMARK    1  A    between atoms: C_1  and  C_2
REMARK    2  A    between atoms: C_5  and  N_6
REMARK    3  A    between atoms: C_10  and  S_11
REMARK    4  A    between atoms: S_11  and  N_14
REMARK    5  A    between atoms: N_14  and  C_15
REMARK    6  A    between atoms: N_14  and  N_16
REMARK    7  A    between atoms: C_17  and  C_18
REMARK    8  A    between atoms: C_24  and  C_25
REMARK                            x       y       z     vdW  Elec       q    Type
REMARK                         _______ _______ _______ _____ _____    ______ ____
ROOT
ATOM      1  N   UNL     1      -0.836  10.367  19.579  0.00  0.00    +0.000 NA
ATOM      2  C   UNL     1      -1.013  11.119  18.538  0.00  0.00    +0.000 C 
ENDROOT
BRANCH   2   3
ATOM      3  C   UNL     1      -2.224  11.097  17.682  0.00  0.00    +0.000 A 
ATOM      4  C   UNL     1      -2.352  10.679  16.364  0.00  0.00    +0.000 A 
ATOM      5  N   UNL     1      -3.640  10.840  15.964  0.00  0.00    +0.000 NA
ATOM      6  C   UNL     1      -4.263  11.355  17.045  0.00  0.00    +0.000 A 
ATOM      7  C   UNL     1      -5.610  11.703  17.133  0.00  0.00    +0.000 A 
ATOM      8  C   UNL     1      -6.069  12.237  18.348  0.00  0.00    +0.000 A 
ATOM      9  C   UNL     1      -5.191  12.416  19.448  0.00  0.00    +0.000 A 
ATOM     10  C   UNL     1      -3.842  12.037  19.284  0.00  0.00    +0.000 A 
ATOM     11  N   UNL     1      -3.439  11.525  18.085  0.00  0.00    +0.000 N 
BRANCH   9  12
ATOM     12  C   UNL     1      -5.705  13.007  20.728  0.00  0.00    +0.000 C 
ATOM     13  N   UNL     1      -5.502  12.427  21.939  0.00  0.00    +0.000 N 
ATOM     14  O   UNL     1      -6.334  14.055  20.685  0.00  0.00    +0.000 OA
ATOM     15  H   UNL     1      -4.984  11.549  22.061  0.00  0.00    +0.000 HD
ATOM     16  H   UNL     1      -5.872  12.872  22.793  0.00  0.00    +0.000 HD
ENDBRANCH   9  12
ENDBRANCH   2   3
BRANCH   1  17
ATOM     17  N   UNL     1       0.351  10.381  20.307  0.00  0.00    +0.000 N 
ATOM     18  C   UNL     1       1.267  11.505  20.256  0.00  0.00    +0.000 C 
BRANCH  17  19
ATOM     19  S   UNL     1       0.893   8.948  21.179  0.00  0.00    +0.000 S 
ATOM     20  O   UNL     1      -0.384   8.527  21.927  0.00  0.00    +0.000 OA
ATOM     21  O   UNL     1       1.764   9.427  22.350  0.00  0.00    +0.000 OA
BRANCH  19  28
ATOM     22  C   UNL     1       2.238   8.917  18.203  0.00  0.00    +0.000 C 
ATOM     23  C   UNL     1       2.113   7.614  18.944  0.00  0.00    +0.000 A 
ATOM     24  C   UNL     1       2.580   6.446  18.309  0.00  0.00    +0.000 A 
ATOM     25  C   UNL     1       2.491   5.205  18.934  0.00  0.00    +0.000 A 
ATOM     26  C   UNL     1       1.939   5.091  20.216  0.00  0.00    +0.000 A 
ATOM     27  C   UNL     1       1.477   6.253  20.856  0.00  0.00    +0.000 A 
ATOM     28  C   UNL     1       1.544   7.520  20.242  0.00  0.00    +0.000 A 
BRANCH  26  29
ATOM     29  N   UNL     1       1.850   3.821  20.862  0.00  0.00    +0.000 N 
ATOM     30  O   UNL     1       2.257   3.677  21.981  0.00  0.00    +0.000 OA
ATOM     31  O   UNL     1       1.318   2.787  20.246  0.00  0.00    +0.000 OA
ENDBRANCH  26  29
ENDBRANCH  19  28
ENDBRANCH  17  19
ENDBRANCH   1  17
TORSDOF 6
ENDMDL
MODEL 9
REMARK VINA RESULT:      -7.3      2.916      4.202
REMARK  Name = 
REMARK  8 active torsions:
REMARK  status: ('A' for Active; 'I' for Inactive)
REMARK    1  A    between atoms: C_1  and  C_2
REMARK    2  A    between atoms: C_5  and  N_6
REMARK    3  A    between atoms: C_10  and  S_11
REMARK    4  A    between atoms: S_11  and  N_14
REMARK    5  A    between atoms: N_14  and  C_15
REMARK    6  A    between atoms: N_14  and  N_16
REMARK    7  A    between atoms: C_17  and  C_18
REMARK    8  A    between atoms: C_24  and  C_25
REMARK                            x       y       z     vdW  Elec       q    Type
REMARK                         _______ _______ _______ _____ _____    ______ ____
ROOT
ATOM      1  N   UNL     1       1.648   7.602  21.051  0.00  0.00    +0.000 NA
ATOM      2  C   UNL     1       0.596   8.326  20.827  0.00  0.00    +0.000 C 
ENDROOT
BRANCH   2   3
ATOM      3  C   UNL     1       0.149   9.447  21.689  0.00  0.00    +0.000 A 
ATOM      4  C   UNL     1      -0.007   9.476  23.068  0.00  0.00    +0.000 A 
ATOM      5  N   UNL     1      -0.449  10.703  23.445  0.00  0.00    +0.000 NA
ATOM      6  C   UNL     1      -0.554  11.390  22.288  0.00  0.00    +0.000 A 
ATOM      7  C   UNL     1      -0.977  12.710  22.147  0.00  0.00    +0.000 A 
ATOM      8  C   UNL     1      -1.029  13.246  20.850  0.00  0.00    +0.000 A 
ATOM      9  C   UNL     1      -0.664  12.468  19.721  0.00  0.00    +0.000 A 
ATOM     10  C   UNL     1      -0.242  11.140  19.943  0.00  0.00    +0.000 A 
ATOM     11  N   UNL     1      -0.209  10.660  21.221  0.00  0.00    +0.000 N 
BRANCH   9  12
ATOM     12  C   UNL     1      -0.748  13.060  18.345  0.00  0.00    +0.000 C 
ATOM     13  N   UNL     1      -1.407  12.455  17.323  0.00  0.00    +0.000 N 
ATOM     14  O   UNL     1      -0.202  14.133  18.129  0.00  0.00    +0.000 OA
ATOM     15  H   UNL     1      -1.891  11.556  17.423  0.00  0.00    +0.000 HD
ATOM     16  H   UNL     1      -1.441  12.903  16.395  0.00  0.00    +0.000 HD
ENDBRANCH   9  12
ENDBRANCH   2   3
BRANCH   1  17
ATOM     17  N   UNL     1       1.983   6.517  20.244  0.00  0.00    +0.000 N 
ATOM     18  C   UNL     1       2.045   5.164  20.766  0.00  0.00    +0.000 C 
BRANCH  17  19
ATOM     19  S   UNL     1       2.537   6.760  18.588  0.00  0.00    +0.000 S 
ATOM     20  O   UNL     1       3.354   8.057  18.712  0.00  0.00    +0.000 OA
ATOM     21  O   UNL     1       1.333   7.257  17.773  0.00  0.00    +0.000 OA
BRANCH  19  28
ATOM     22  C   UNL     1       1.635   3.788  17.578  0.00  0.00    +0.000 C 
ATOM     23  C   UNL     1       3.067   4.205  17.382  0.00  0.00    +0.000 A 
ATOM     24  C   UNL     1       3.945   3.285  16.776  0.00  0.00    +0.000 A 
ATOM     25  C   UNL     1       5.285   3.603  16.568  0.00  0.00    +0.000 A 
ATOM     26  C   UNL     1       5.789   4.852  16.953  0.00  0.00    +0.000 A 
ATOM     27  C   UNL     1       4.916   5.775  17.553  0.00  0.00    +0.000 A 
ATOM     28  C   UNL     1       3.559   5.475  17.786  0.00  0.00    +0.000 A 
BRANCH  26  29
ATOM     29  N   UNL     1       7.162   5.182  16.737  0.00  0.00    +0.000 N 
ATOM     30  O   UNL     1       7.468   6.260  16.310  0.00  0.00    +0.000 OA
ATOM     31  O   UNL     1       8.114   4.316  17.006  0.00  0.00    +0.000 OA
ENDBRANCH  26  29
ENDBRANCH  19  28
ENDBRANCH  17  19
ENDBRANCH   1  17
TORSDOF 6
ENDMDL
