MODEL 1
REMARK VINA RESULT:      -8.3      0.000      0.000
REMARK  Name = 
REMARK  8 active torsions:
REMARK  status: ('A' for Active; 'I' for Inactive)
REMARK    1  A    between atoms: C_1  and  C_2
REMARK    2  A    between atoms: C_2  and  C_3
REMARK    3  A    between atoms: C_6  and  C_7
REMARK    4  A    between atoms: C_8  and  C_9
REMARK    5  A    between atoms: C_9  and  O_11
REMARK    6  A    between atoms: O_11  and  C_12
REMARK    7  A    between atoms: C_12  and  C_13
REMARK    8  A    between atoms: C_16  and  C_18
REMARK                            x       y       z     vdW  Elec       q    Type
REMARK                         _______ _______ _______ _____ _____    ______ ____
ROOT
ATOM      1  C   UNL     1       4.600   3.483  19.047  0.00  0.00    +0.000 C 
ENDROOT
BRANCH   1   2
ATOM      2  C   UNL     1       5.745   4.309  18.455  0.00  0.00    +0.000 C 
ATOM      3  O   UNL     1       6.425   5.020  19.192  0.00  0.00    +0.000 OA
ATOM      4  N   UNL     1       5.930   4.141  17.090  0.00  0.00    +0.000 N 
ATOM      5  C   UNL     1       6.857   4.858  16.350  0.00  0.00    +0.000 C 
ATOM      6  O   UNL     1       7.637   5.684  16.812  0.00  0.00    +0.000 OA
ATOM      7  H   UNL     1       5.326   3.498  16.609  0.00  0.00    +0.000 HD
BRANCH   5   8
ATOM      8  C   UNL     1       6.871   4.644  14.871  0.00  0.00    +0.000 A 
ATOM      9  C   UNL     1       5.930   3.741  14.346  0.00  0.00    +0.000 A 
ATOM     10  C   UNL     1       5.877   3.477  12.978  0.00  0.00    +0.000 A 
ATOM     11  C   UNL     1       6.762   4.120  12.116  0.00  0.00    +0.000 A 
ATOM     12  C   UNL     1       7.687   5.035  12.621  0.00  0.00    +0.000 A 
ATOM     13  C   UNL     1       7.743   5.304  13.995  0.00  0.00    +0.000 A 
ENDBRANCH   5   8
ENDBRANCH   1   2
BRANCH   1  14
ATOM     14  O   UNL     1       3.753   2.949  18.026  0.00  0.00    +0.000 OA
BRANCH  14  15
ATOM     15  C   UNL     1       2.639   3.696  17.777  0.00  0.00    +0.000 C 
ATOM     16  O   UNL     1       1.957   3.552  16.765  0.00  0.00    +0.000 OA
BRANCH  15  22
ATOM     17  C   UNL     1       1.671   4.480  20.042  0.00  0.00    +0.000 A 
ATOM     18  N   UNL     1       1.607   5.615  20.750  0.00  0.00    +0.000 NA
ATOM     19  O   UNL     1       2.230   6.573  19.983  0.00  0.00    +0.000 OA
ATOM     20  C   UNL     1       2.662   6.020  18.819  0.00  0.00    +0.000 A 
ATOM     21  C   UNL     1       3.328   6.955  17.890  0.00  0.00    +0.000 C 
ATOM     22  C   UNL     1       2.351   4.674  18.803  0.00  0.00    +0.000 A 
BRANCH  17  24
ATOM     23  C   UNL     1       1.836   2.650  21.749  0.00  0.00    +0.000 C 
ATOM     24  C   UNL     1       1.041   3.248  20.599  0.00  0.00    +0.000 C 
ENDBRANCH  17  24
ENDBRANCH  15  22
ENDBRANCH  14  15
ENDBRANCH   1  14
TORSDOF 6
ENDMDL
MODEL 2
REMARK VINA RESULT:      -8.1      0.779      2.302
REMARK  Name = 
REMARK  8 active torsions:
REMARK  status: ('A' for Active; 'I' for Inactive)
REMARK    1  A    between atoms: C_1  and  C_2
REMARK    2  A    between atoms: C_2  and  C_3
REMARK    3  A    between atoms: C_6  and  C_7
REMARK    4  A    between atoms: C_8  and  C_9
REMARK    5  A    between atoms: C_9  and  O_11
REMARK    6  A    between atoms: O_11  and  C_12
REMARK    7  A    between atoms: C_12  and  C_13
REMARK    8  A    between atoms: C_16  and  C_18
REMARK                            x       y       z     vdW  Elec       q    Type
REMARK                         _______ _______ _______ _____ _____    ______ ____
ROOT
ATOM      1  C   UNL     1       4.951   4.284  19.048  0.00  0.00    +0.000 C 
ENDROOT
BRANCH   1   2
ATOM      2  C   UNL     1       5.984   5.066  18.234  0.00  0.00    +0.000 C 
ATOM      3  O   UNL     1       6.649   5.944  18.780  0.00  0.00    +0.000 OA
ATOM      4  N   UNL     1       6.095   4.668  16.909  0.00  0.00    +0.000 N 
ATOM      5  C   UNL     1       6.912   5.301  15.985  0.00  0.00    +0.000 C 
ATOM      6  O   UNL     1       7.649   6.249  16.234  0.00  0.00    +0.000 OA
ATOM      7  H   UNL     1       5.516   3.908  16.597  0.00  0.00    +0.000 HD
BRANCH   5   8
ATOM      8  C   UNL     1       6.848   4.825  14.570  0.00  0.00    +0.000 A 
ATOM      9  C   UNL     1       5.843   3.895  14.252  0.00  0.00    +0.000 A 
ATOM     10  C   UNL     1       5.716   3.393  12.957  0.00  0.00    +0.000 A 
ATOM     11  C   UNL     1       6.590   3.821  11.962  0.00  0.00    +0.000 A 
ATOM     12  C   UNL     1       7.580   4.759  12.259  0.00  0.00    +0.000 A 
ATOM     13  C   UNL     1       7.710   5.267  13.559  0.00  0.00    +0.000 A 
ENDBRANCH   5   8
ENDBRANCH   1   2
BRANCH   1  14
ATOM     14  O   UNL     1       4.132   3.463  18.211  0.00  0.00    +0.000 OA
BRANCH  14  15
ATOM     15  C   UNL     1       2.860   3.927  18.043  0.00  0.00    +0.000 C 
ATOM     16  O   UNL     1       2.139   3.565  17.118  0.00  0.00    +0.000 OA
BRANCH  15  22
ATOM     17  C   UNL     1       2.513   6.315  18.973  0.00  0.00    +0.000 A 
ATOM     18  N   UNL     1       2.030   6.880  20.087  0.00  0.00    +0.000 NA
ATOM     19  O   UNL     1       1.661   5.841  20.909  0.00  0.00    +0.000 OA
ATOM     20  C   UNL     1       1.924   4.656  20.298  0.00  0.00    +0.000 A 
ATOM     21  C   UNL     1       1.597   3.454  21.091  0.00  0.00    +0.000 C 
ATOM     22  C   UNL     1       2.455   4.891  19.044  0.00  0.00    +0.000 A 
BRANCH  17  24
ATOM     23  C   UNL     1       2.337   8.542  17.834  0.00  0.00    +0.000 C 
ATOM     24  C   UNL     1       3.036   7.192  17.887  0.00  0.00    +0.000 C 
ENDBRANCH  17  24
ENDBRANCH  15  22
ENDBRANCH  14  15
ENDBRANCH   1  14
TORSDOF 6
ENDMDL
MODEL 3
REMARK VINA RESULT:      -8.1      1.091      2.328
REMARK  Name = 
REMARK  8 active torsions:
REMARK  status: ('A' for Active; 'I' for Inactive)
REMARK    1  A    between atoms: C_1  and  C_2
REMARK    2  A    between atoms: C_2  and  C_3
REMARK    3  A    between atoms: C_6  and  C_7
REMARK    4  A    between atoms: C_8  and  C_9
REMARK    5  A    between atoms: C_9  and  O_11
REMARK    6  A    between atoms: O_11  and  C_12
REMARK    7  A    between atoms: C_12  and  C_13
REMARK    8  A    between atoms: C_16  and  C_18
REMARK                            x       y       z     vdW  Elec       q    Type
REMARK                         _______ _______ _______ _____ _____    ______ ____
ROOT
ATOM      1  C   UNL     1       3.792   2.448  18.079  0.00  0.00    +0.000 C 
ENDROOT
BRANCH   1   2
ATOM      2  C   UNL     1       4.916   3.461  17.845  0.00  0.00    +0.000 C 
ATOM      3  O   UNL     1       5.350   4.115  18.790  0.00  0.00    +0.000 OA
ATOM      4  N   UNL     1       5.375   3.520  16.537  0.00  0.00    +0.000 N 
ATOM      5  C   UNL     1       6.328   4.427  16.100  0.00  0.00    +0.000 C 
ATOM      6  O   UNL     1       6.898   5.245  16.815  0.00  0.00    +0.000 OA
ATOM      7  H   UNL     1       4.957   2.901  15.863  0.00  0.00    +0.000 HD
BRANCH   5   8
ATOM      8  C   UNL     1       6.647   4.441  14.640  0.00  0.00    +0.000 A 
ATOM      9  C   UNL     1       5.924   3.559  13.818  0.00  0.00    +0.000 A 
ATOM     10  C   UNL     1       6.162   3.502  12.445  0.00  0.00    +0.000 A 
ATOM     11  C   UNL     1       7.123   4.334  11.877  0.00  0.00    +0.000 A 
ATOM     12  C   UNL     1       7.834   5.229  12.678  0.00  0.00    +0.000 A 
ATOM     13  C   UNL     1       7.597   5.290  14.058  0.00  0.00    +0.000 A 
ENDBRANCH   5   8
ENDBRANCH   1   2
BRANCH   1  14
ATOM     14  O   UNL     1       2.561   2.883  17.496  0.00  0.00    +0.000 OA
BRANCH  14  15
ATOM     15  C   UNL     1       1.539   3.025  18.388  0.00  0.00    +0.000 C 
ATOM     16  O   UNL     1       0.505   2.365  18.321  0.00  0.00    +0.000 OA
BRANCH  15  22
ATOM     17  C   UNL     1       2.051   5.418  19.220  0.00  0.00    +0.000 A 
ATOM     18  N   UNL     1       2.207   6.044  20.393  0.00  0.00    +0.000 NA
ATOM     19  O   UNL     1       2.059   5.077  21.359  0.00  0.00    +0.000 OA
ATOM     20  C   UNL     1       1.820   3.874  20.773  0.00  0.00    +0.000 A 
ATOM     21  C   UNL     1       1.668   2.740  21.706  0.00  0.00    +0.000 C 
ATOM     22  C   UNL     1       1.784   4.029  19.400  0.00  0.00    +0.000 A 
BRANCH  17  24
ATOM     23  C   UNL     1       3.545   6.888  17.842  0.00  0.00    +0.000 C 
ATOM     24  C   UNL     1       2.193   6.203  17.959  0.00  0.00    +0.000 C 
ENDBRANCH  17  24
ENDBRANCH  15  22
ENDBRANCH  14  15
ENDBRANCH   1  14
TORSDOF 6
ENDMDL
MODEL 4
REMARK VINA RESULT:      -8.0      3.900      7.791
REMARK  Name = 
REMARK  8 active torsions:
REMARK  status: ('A' for Active; 'I' for Inactive)
REMARK    1  A    between atoms: C_1  and  C_2
REMARK    2  A    between atoms: C_2  and  C_3
REMARK    3  A    between atoms: C_6  and  C_7
REMARK    4  A    between atoms: C_8  and  C_9
REMARK    5  A    between atoms: C_9  and  O_11
REMARK    6  A    between atoms: O_11  and  C_12
REMARK    7  A    between atoms: C_12  and  C_13
REMARK    8  A    between atoms: C_16  and  C_18
REMARK                            x       y       z     vdW  Elec       q    Type
REMARK                         _______ _______ _______ _____ _____    ______ ____
ROOT
ATOM      1  C   UNL     1       3.016   7.263  18.048  0.00  0.00    +0.000 C 
ENDROOT
BRANCH   1   2
ATOM      2  C   UNL     1       2.258   8.593  18.069  0.00  0.00    +0.000 C 
ATOM      3  O   UNL     1       2.302   9.332  17.088  0.00  0.00    +0.000 OA
ATOM      4  N   UNL     1       1.538   8.828  19.232  0.00  0.00    +0.000 N 
ATOM      5  C   UNL     1       0.852  10.005  19.483  0.00  0.00    +0.000 C 
ATOM      6  O   UNL     1       0.769  10.949  18.704  0.00  0.00    +0.000 OA
ATOM      7  H   UNL     1       1.557   8.121  19.947  0.00  0.00    +0.000 HD
BRANCH   5   8
ATOM      8  C   UNL     1       0.210  10.156  20.824  0.00  0.00    +0.000 A 
ATOM      9  C   UNL     1      -0.615  11.278  21.016  0.00  0.00    +0.000 A 
ATOM     10  C   UNL     1      -1.248  11.500  22.239  0.00  0.00    +0.000 A 
ATOM     11  C   UNL     1      -1.070  10.596  23.282  0.00  0.00    +0.000 A 
ATOM     12  C   UNL     1      -0.271   9.466  23.098  0.00  0.00    +0.000 A 
ATOM     13  C   UNL     1       0.367   9.239  21.871  0.00  0.00    +0.000 A 
ENDBRANCH   5   8
ENDBRANCH   1   2
BRANCH   1  14
ATOM     14  O   UNL     1       2.974   6.612  19.321  0.00  0.00    +0.000 OA
BRANCH  14  15
ATOM     15  C   UNL     1       3.606   5.404  19.353  0.00  0.00    +0.000 C 
ATOM     16  O   UNL     1       4.659   5.224  19.958  0.00  0.00    +0.000 OA
BRANCH  15  22
ATOM     17  C   UNL     1       1.726   3.680  18.930  0.00  0.00    +0.000 A 
ATOM     18  N   UNL     1       1.388   2.801  17.979  0.00  0.00    +0.000 NA
ATOM     19  O   UNL     1       2.367   2.891  17.017  0.00  0.00    +0.000 OA
ATOM     20  C   UNL     1       3.293   3.814  17.387  0.00  0.00    +0.000 A 
ATOM     21  C   UNL     1       4.418   3.988  16.447  0.00  0.00    +0.000 C 
ATOM     22  C   UNL     1       2.929   4.372  18.599  0.00  0.00    +0.000 A 
BRANCH  17  24
ATOM     23  C   UNL     1       1.358   2.930  21.295  0.00  0.00    +0.000 C 
ATOM     24  C   UNL     1       0.868   3.795  20.145  0.00  0.00    +0.000 C 
ENDBRANCH  17  24
ENDBRANCH  15  22
ENDBRANCH  14  15
ENDBRANCH   1  14
TORSDOF 6
ENDMDL
MODEL 5
REMARK VINA RESULT:      -7.9      2.240      6.485
REMARK  Name = 
REMARK  8 active torsions:
REMARK  status: ('A' for Active; 'I' for Inactive)
REMARK    1  A    between atoms: C_1  and  C_2
REMARK    2  A    between atoms: C_2  and  C_3
REMARK    3  A    between atoms: C_6  and  C_7
REMARK    4  A    between atoms: C_8  and  C_9
REMARK    5  A    between atoms: C_9  and  O_11
REMARK    6  A    between atoms: O_11  and  C_12
REMARK    7  A    between atoms: C_12  and  C_13
REMARK    8  A    between atoms: C_16  and  C_18
REMARK                            x       y       z     vdW  Elec       q    Type
REMARK                         _______ _______ _______ _____ _____    ______ ____
ROOT
ATOM      1  C   UNL     1       5.256   3.530  18.461  0.00  0.00    +0.000 C 
ENDROOT
BRANCH   1   2
ATOM      2  C   UNL     1       4.138   3.970  19.409  0.00  0.00    +0.000 C 
ATOM      3  O   UNL     1       3.738   3.197  20.276  0.00  0.00    +0.000 OA
ATOM      4  N   UNL     1       3.687   5.267  19.206  0.00  0.00    +0.000 N 
ATOM      5  C   UNL     1       2.627   5.827  19.902  0.00  0.00    +0.000 C 
ATOM      6  O   UNL     1       1.997   5.265  20.791  0.00  0.00    +0.000 OA
ATOM      7  H   UNL     1       4.127   5.809  18.483  0.00  0.00    +0.000 HD
BRANCH   5   8
ATOM      8  C   UNL     1       2.189   7.198  19.502  0.00  0.00    +0.000 A 
ATOM      9  C   UNL     1       2.462   7.598  18.182  0.00  0.00    +0.000 A 
ATOM     10  C   UNL     1       2.094   8.864  17.727  0.00  0.00    +0.000 A 
ATOM     11  C   UNL     1       1.441   9.743  18.586  0.00  0.00    +0.000 A 
ATOM     12  C   UNL     1       1.144   9.351  19.893  0.00  0.00    +0.000 A 
ATOM     13  C   UNL     1       1.512   8.080  20.354  0.00  0.00    +0.000 A 
ENDBRANCH   5   8
ENDBRANCH   1   2
BRANCH   1  14
ATOM     14  O   UNL     1       6.450   4.290  18.665  0.00  0.00    +0.000 OA
BRANCH  14  15
ATOM     15  C   UNL     1       7.153   4.546  17.524  0.00  0.00    +0.000 C 
ATOM     16  O   UNL     1       8.309   4.166  17.358  0.00  0.00    +0.000 OA
BRANCH  15  22
ATOM     17  C   UNL     1       6.047   6.692  16.599  0.00  0.00    +0.000 A 
ATOM     18  N   UNL     1       5.382   7.065  15.498  0.00  0.00    +0.000 NA
ATOM     19  O   UNL     1       5.291   5.940  14.712  0.00  0.00    +0.000 OA
ATOM     20  C   UNL     1       5.893   4.893  15.337  0.00  0.00    +0.000 A 
ATOM     21  C   UNL     1       5.840   3.611  14.606  0.00  0.00    +0.000 C 
ATOM     22  C   UNL     1       6.415   5.315  16.546  0.00  0.00    +0.000 A 
BRANCH  17  24
ATOM     23  C   UNL     1       7.715   8.192  17.719  0.00  0.00    +0.000 C 
ATOM     24  C   UNL     1       6.278   7.697  17.677  0.00  0.00    +0.000 C 
ENDBRANCH  17  24
ENDBRANCH  15  22
ENDBRANCH  14  15
ENDBRANCH   1  14
TORSDOF 6
ENDMDL
MODEL 6
REMARK VINA RESULT:      -7.8      1.572      2.314
REMARK  Name = 
REMARK  8 active torsions:
REMARK  status: ('A' for Active; 'I' for Inactive)
REMARK    1  A    between atoms: C_1  and  C_2
REMARK    2  A    between atoms: C_2  and  C_3
REMARK    3  A    between atoms: C_6  and  C_7
REMARK    4  A    between atoms: C_8  and  C_9
REMARK    5  A    between atoms: C_9  and  O_11
REMARK    6  A    between atoms: O_11  and  C_12
REMARK    7  A    between atoms: C_12  and  C_13
REMARK    8  A    between atoms: C_16  and  C_18
REMARK                            x       y       z     vdW  Elec       q    Type
REMARK                         _______ _______ _______ _____ _____    ______ ____
ROOT
ATOM      1  C   UNL     1       6.400   4.716  17.574  0.00  0.00    +0.000 C 
ENDROOT
BRANCH   1   2
ATOM      2  C   UNL     1       6.953   5.126  16.207  0.00  0.00    +0.000 C 
ATOM      3  O   UNL     1       7.719   6.083  16.124  0.00  0.00    +0.000 OA
ATOM      4  N   UNL     1       6.541   4.322  15.153  0.00  0.00    +0.000 N 
ATOM      5  C   UNL     1       6.861   4.571  13.828  0.00  0.00    +0.000 C 
ATOM      6  O   UNL     1       7.567   5.496  13.439  0.00  0.00    +0.000 OA
ATOM      7  H   UNL     1       5.940   3.544  15.364  0.00  0.00    +0.000 HD
BRANCH   5   8
ATOM      8  C   UNL     1       6.259   3.677  12.794  0.00  0.00    +0.000 A 
ATOM      9  C   UNL     1       4.904   3.884  12.479  0.00  0.00    +0.000 A 
ATOM     10  C   UNL     1       4.261   3.090  11.530  0.00  0.00    +0.000 A 
ATOM     11  C   UNL     1       4.967   2.083  10.879  0.00  0.00    +0.000 A 
ATOM     12  C   UNL     1       6.318   1.880  11.166  0.00  0.00    +0.000 A 
ATOM     13  C   UNL     1       6.969   2.676  12.119  0.00  0.00    +0.000 A 
ENDBRANCH   5   8
ENDBRANCH   1   2
BRANCH   1  14
ATOM     14  O   UNL     1       5.348   5.584  17.999  0.00  0.00    +0.000 OA
BRANCH  14  15
ATOM     15  C   UNL     1       4.098   5.052  17.876  0.00  0.00    +0.000 C 
ATOM     16  O   UNL     1       3.802   4.253  16.991  0.00  0.00    +0.000 OA
BRANCH  15  22
ATOM     17  C   UNL     1       2.610   4.817  19.978  0.00  0.00    +0.000 A 
ATOM     18  N   UNL     1       1.789   5.591  20.698  0.00  0.00    +0.000 NA
ATOM     19  O   UNL     1       1.776   6.815  20.070  0.00  0.00    +0.000 OA
ATOM     20  C   UNL     1       2.580   6.778  18.975  0.00  0.00    +0.000 A 
ATOM     21  C   UNL     1       2.632   8.029  18.192  0.00  0.00    +0.000 C 
ATOM     22  C   UNL     1       3.161   5.528  18.870  0.00  0.00    +0.000 A 
BRANCH  17  24
ATOM     23  C   UNL     1       2.145   3.072  21.718  0.00  0.00    +0.000 C 
ATOM     24  C   UNL     1       2.810   3.397  20.390  0.00  0.00    +0.000 C 
ENDBRANCH  17  24
ENDBRANCH  15  22
ENDBRANCH  14  15
ENDBRANCH   1  14
TORSDOF 6
ENDMDL
MODEL 7
REMARK VINA RESULT:      -7.8      1.291      2.039
REMARK  Name = 
REMARK  8 active torsions:
REMARK  status: ('A' for Active; 'I' for Inactive)
REMARK    1  A    between atoms: C_1  and  C_2
REMARK    2  A    between atoms: C_2  and  C_3
REMARK    3  A    between atoms: C_6  and  C_7
REMARK    4  A    between atoms: C_8  and  C_9
REMARK    5  A    between atoms: C_9  and  O_11
REMARK    6  A    between atoms: O_11  and  C_12
REMARK    7  A    between atoms: C_12  and  C_13
REMARK    8  A    between atoms: C_16  and  C_18
REMARK                            x       y       z     vdW  Elec       q    Type
REMARK                         _______ _______ _______ _____ _____    ______ ____
ROOT
ATOM      1  C   UNL     1       5.287   4.245  19.128  0.00  0.00    +0.000 C 
ENDROOT
BRANCH   1   2
ATOM      2  C   UNL     1       6.203   5.102  18.250  0.00  0.00    +0.000 C 
ATOM      3  O   UNL     1       6.810   6.047  18.747  0.00  0.00    +0.000 OA
ATOM      4  N   UNL     1       6.284   4.689  16.927  0.00  0.00    +0.000 N 
ATOM      5  C   UNL     1       6.991   5.375  15.953  0.00  0.00    +0.000 C 
ATOM      6  O   UNL     1       7.649   6.392  16.148  0.00  0.00    +0.000 OA
ATOM      7  H   UNL     1       5.762   3.873  16.657  0.00  0.00    +0.000 HD
BRANCH   5   8
ATOM      8  C   UNL     1       6.902   4.867  14.550  0.00  0.00    +0.000 A 
ATOM      9  C   UNL     1       5.885   3.938  14.270  0.00  0.00    +0.000 A 
ATOM     10  C   UNL     1       5.734   3.407  12.989  0.00  0.00    +0.000 A 
ATOM     11  C   UNL     1       6.595   3.806  11.971  0.00  0.00    +0.000 A 
ATOM     12  C   UNL     1       7.596   4.743  12.230  0.00  0.00    +0.000 A 
ATOM     13  C   UNL     1       7.751   5.280  13.516  0.00  0.00    +0.000 A 
ENDBRANCH   5   8
ENDBRANCH   1   2
BRANCH   1  14
ATOM     14  O   UNL     1       4.291   5.036  19.780  0.00  0.00    +0.000 OA
BRANCH  14  15
ATOM     15  C   UNL     1       3.178   5.267  19.027  0.00  0.00    +0.000 C 
ATOM     16  O   UNL     1       2.847   6.392  18.662  0.00  0.00    +0.000 OA
BRANCH  15  22
ATOM     17  C   UNL     1       1.528   3.349  19.557  0.00  0.00    +0.000 A 
ATOM     18  N   UNL     1       0.997   2.298  18.920  0.00  0.00    +0.000 NA
ATOM     19  O   UNL     1       1.545   2.305  17.658  0.00  0.00    +0.000 OA
ATOM     20  C   UNL     1       2.405   3.351  17.537  0.00  0.00    +0.000 A 
ATOM     21  C   UNL     1       3.084   3.456  16.230  0.00  0.00    +0.000 C 
ATOM     22  C   UNL     1       2.425   4.071  18.716  0.00  0.00    +0.000 A 
BRANCH  17  24
ATOM     23  C   UNL     1       2.142   2.986  21.962  0.00  0.00    +0.000 C 
ATOM     24  C   UNL     1       1.153   3.594  20.980  0.00  0.00    +0.000 C 
ENDBRANCH  17  24
ENDBRANCH  15  22
ENDBRANCH  14  15
ENDBRANCH   1  14
TORSDOF 6
ENDMDL
MODEL 8
REMARK VINA RESULT:      -7.8      3.897      7.984
REMARK  Name = 
REMARK  8 active torsions:
REMARK  status: ('A' for Active; 'I' for Inactive)
REMARK    1  A    between atoms: C_1  and  C_2
REMARK    2  A    between atoms: C_2  and  C_3
REMARK    3  A    between atoms: C_6  and  C_7
REMARK    4  A    between atoms: C_8  and  C_9
REMARK    5  A    between atoms: C_9  and  O_11
REMARK    6  A    between atoms: O_11  and  C_12
REMARK    7  A    between atoms: C_12  and  C_13
REMARK    8  A    between atoms: C_16  and  C_18
REMARK                            x       y       z     vdW  Elec       q    Type
REMARK                         _______ _______ _______ _____ _____    ______ ____
ROOT
ATOM      1  C   UNL     1       2.971   7.041  18.300  0.00  0.00    +0.000 C 
ENDROOT
BRANCH   1   2
ATOM      2  C   UNL     1       2.227   8.375  18.209  0.00  0.00    +0.000 C 
ATOM      3  O   UNL     1       2.297   9.041  17.179  0.00  0.00    +0.000 OA
ATOM      4  N   UNL     1       1.489   8.701  19.339  0.00  0.00    +0.000 N 
ATOM      5  C   UNL     1       0.811   9.900  19.491  0.00  0.00    +0.000 C 
ATOM      6  O   UNL     1       0.753  10.786  18.644  0.00  0.00    +0.000 OA
ATOM      7  H   UNL     1       1.487   8.048  20.103  0.00  0.00    +0.000 HD
BRANCH   5   8
ATOM      8  C   UNL     1       0.146  10.154  20.804  0.00  0.00    +0.000 A 
ATOM      9  C   UNL     1      -0.573  11.355  20.937  0.00  0.00    +0.000 A 
ATOM     10  C   UNL     1      -1.219  11.675  22.131  0.00  0.00    +0.000 A 
ATOM     11  C   UNL     1      -1.159  10.792  23.206  0.00  0.00    +0.000 A 
ATOM     12  C   UNL     1      -0.467   9.586  23.081  0.00  0.00    +0.000 A 
ATOM     13  C   UNL     1       0.183   9.261  21.883  0.00  0.00    +0.000 A 
ENDBRANCH   5   8
ENDBRANCH   1   2
BRANCH   1  14
ATOM     14  O   UNL     1       2.288   6.112  19.146  0.00  0.00    +0.000 OA
BRANCH  14  15
ATOM     15  C   UNL     1       2.216   4.846  18.644  0.00  0.00    +0.000 C 
ATOM     16  O   UNL     1       1.520   4.556  17.675  0.00  0.00    +0.000 OA
BRANCH  15  22
ATOM     17  C   UNL     1       4.403   3.582  19.195  0.00  0.00    +0.000 A 
ATOM     18  N   UNL     1       4.813   2.648  20.063  0.00  0.00    +0.000 NA
ATOM     19  O   UNL     1       3.706   2.315  20.809  0.00  0.00    +0.000 OA
ATOM     20  C   UNL     1       2.634   3.039  20.391  0.00  0.00    +0.000 A 
ATOM     21  C   UNL     1       1.369   2.754  21.097  0.00  0.00    +0.000 C 
ATOM     22  C   UNL     1       3.020   3.886  19.369  0.00  0.00    +0.000 A 
BRANCH  17  24
ATOM     23  C   UNL     1       6.262   5.217  18.798  0.00  0.00    +0.000 C 
ATOM     24  C   UNL     1       5.380   4.128  18.209  0.00  0.00    +0.000 C 
ENDBRANCH  17  24
ENDBRANCH  15  22
ENDBRANCH  14  15
ENDBRANCH   1  14
TORSDOF 6
ENDMDL
MODEL 9
REMARK VINA RESULT:      -7.7      1.988      6.592
REMARK  Name = 
REMARK  8 active torsions:
REMARK  status: ('A' for Active; 'I' for Inactive)
REMARK    1  A    between atoms: C_1  and  C_2
REMARK    2  A    between atoms: C_2  and  C_3
REMARK    3  A    between atoms: C_6  and  C_7
REMARK    4  A    between atoms: C_8  and  C_9
REMARK    5  A    between atoms: C_9  and  O_11
REMARK    6  A    between atoms: O_11  and  C_12
REMARK    7  A    between atoms: C_12  and  C_13
REMARK    8  A    between atoms: C_16  and  C_18
REMARK                            x       y       z     vdW  Elec       q    Type
REMARK                         _______ _______ _______ _____ _____    ______ ____
ROOT
ATOM      1  C   UNL     1       4.437   3.029  18.960  0.00  0.00    +0.000 C 
ENDROOT
BRANCH   1   2
ATOM      2  C   UNL     1       3.437   3.752  19.865  0.00  0.00    +0.000 C 
ATOM      3  O   UNL     1       2.961   3.166  20.834  0.00  0.00    +0.000 OA
ATOM      4  N   UNL     1       3.179   5.067  19.503  0.00  0.00    +0.000 N 
ATOM      5  C   UNL     1       2.245   5.867  20.141  0.00  0.00    +0.000 C 
ATOM      6  O   UNL     1       1.573   5.527  21.109  0.00  0.00    +0.000 OA
ATOM      7  H   UNL     1       3.666   5.439  18.706  0.00  0.00    +0.000 HD
BRANCH   5   8
ATOM      8  C   UNL     1       2.002   7.228  19.574  0.00  0.00    +0.000 A 
ATOM      9  C   UNL     1       2.411   7.451  18.247  0.00  0.00    +0.000 A 
ATOM     10  C   UNL     1       2.229   8.694  17.641  0.00  0.00    +0.000 A 
ATOM     11  C   UNL     1       1.629   9.728  18.354  0.00  0.00    +0.000 A 
ATOM     12  C   UNL     1       1.199   9.515  19.665  0.00  0.00    +0.000 A 
ATOM     13  C   UNL     1       1.380   8.267  20.277  0.00  0.00    +0.000 A 
ENDBRANCH   5   8
ENDBRANCH   1   2
BRANCH   1  14
ATOM     14  O   UNL     1       5.327   3.945  18.318  0.00  0.00    +0.000 OA
BRANCH  14  15
ATOM     15  C   UNL     1       4.992   4.241  17.029  0.00  0.00    +0.000 C 
ATOM     16  O   UNL     1       3.882   4.002  16.561  0.00  0.00    +0.000 OA
BRANCH  15  22
ATOM     17  C   UNL     1       6.530   4.499  14.967  0.00  0.00    +0.000 A 
ATOM     18  N   UNL     1       7.536   5.293  14.578  0.00  0.00    +0.000 NA
ATOM     19  O   UNL     1       7.757   6.160  15.622  0.00  0.00    +0.000 OA
ATOM     20  C   UNL     1       6.895   5.889  16.637  0.00  0.00    +0.000 A 
ATOM     21  C   UNL     1       7.048   6.737  17.835  0.00  0.00    +0.000 C 
ATOM     22  C   UNL     1       6.066   4.844  16.271  0.00  0.00    +0.000 A 
BRANCH  17  24
ATOM     23  C   UNL     1       6.006   3.857  12.600  0.00  0.00    +0.000 C 
ATOM     24  C   UNL     1       6.073   3.413  14.052  0.00  0.00    +0.000 C 
ENDBRANCH  17  24
ENDBRANCH  15  22
ENDBRANCH  14  15
ENDBRANCH   1  14
TORSDOF 6
ENDMDL
