MODEL 1
REMARK VINA RESULT:      -6.3      0.000      0.000
REMARK  Name = 
REMARK  7 active torsions:
REMARK  status: ('A' for Active; 'I' for Inactive)
REMARK    1  A    between atoms: C_1  and  N_2
REMARK    2  A    between atoms: N_2  and  C_3
REMARK    3  A    between atoms: N_2  and  C_4
REMARK    4  A    between atoms: C_4  and  C_5
REMARK    5  A    between atoms: C_5  and  N_6
REMARK    6  A    between atoms: C_7  and  C_8
REMARK    7  A    between atoms: C_8  and  O_10
REMARK                            x       y       z     vdW  Elec       q    Type
REMARK                         _______ _______ _______ _____ _____    ______ ____
ROOT
ATOM      1  N   UNL     1       4.059   4.898  18.135  0.00  0.00    +0.000 N 
ATOM      2  C   UNL     1       4.076   4.118  17.008  0.00  0.00    +0.000 A 
ATOM      3  C   UNL     1       3.013   3.211  17.035  0.00  0.00    +0.000 A 
ATOM      4  C   UNL     1       2.349   3.444  18.209  0.00  0.00    +0.000 A 
ATOM      5  C   UNL     1       1.226   2.810  18.735  0.00  0.00    +0.000 A 
ATOM      6  C   UNL     1       0.744   3.248  19.979  0.00  0.00    +0.000 A 
ATOM      7  C   UNL     1       1.395   4.294  20.663  0.00  0.00    +0.000 A 
ATOM      8  C   UNL     1       2.533   4.910  20.112  0.00  0.00    +0.000 A 
ATOM      9  C   UNL     1       2.995   4.463  18.862  0.00  0.00    +0.000 A 
ENDROOT
BRANCH   2  10
ATOM     10  C   UNL     1       5.087   4.149  15.908  0.00  0.00    +0.000 C 
ATOM     11  O   UNL     1       5.239   5.149  15.234  0.00  0.00    +0.000 OA
BRANCH  10  12
ATOM     12  O   UNL     1       5.894   3.088  15.666  0.00  0.00    +0.000 OA
ATOM     13  H   UNL     1       5.603   2.169  15.719  0.00  0.00    +0.000 HD
ENDBRANCH  10  12
ENDBRANCH   2  10
BRANCH   1  14
ATOM     14  C   UNL     1       4.989   5.973  18.542  0.00  0.00    +0.000 C 
BRANCH  14  15
ATOM     15  C   UNL     1       6.219   5.469  19.330  0.00  0.00    +0.000 C 
BRANCH  15  17
ATOM     16  C   UNL     1       7.987   4.513  17.914  0.00  0.00    +0.000 C 
ATOM     17  N   UNL     1       7.508   5.702  18.642  0.00  0.00    +0.000 NA
ATOM     18  C   UNL     1       7.352   6.811  17.685  0.00  0.00    +0.000 C 
ENDBRANCH  15  17
ENDBRANCH  14  15
ENDBRANCH   1  14
TORSDOF 5
ENDMDL
MODEL 2
REMARK VINA RESULT:      -6.2      2.240      3.450
REMARK  Name = 
REMARK  7 active torsions:
REMARK  status: ('A' for Active; 'I' for Inactive)
REMARK    1  A    between atoms: C_1  and  N_2
REMARK    2  A    between atoms: N_2  and  C_3
REMARK    3  A    between atoms: N_2  and  C_4
REMARK    4  A    between atoms: C_4  and  C_5
REMARK    5  A    between atoms: C_5  and  N_6
REMARK    6  A    between atoms: C_7  and  C_8
REMARK    7  A    between atoms: C_8  and  O_10
REMARK                            x       y       z     vdW  Elec       q    Type
REMARK                         _______ _______ _______ _____ _____    ______ ____
ROOT
ATOM      1  N   UNL     1       4.989   4.138  17.220  0.00  0.00    +0.000 N 
ATOM      2  C   UNL     1       5.935   4.787  17.970  0.00  0.00    +0.000 A 
ATOM      3  C   UNL     1       5.364   5.269  19.151  0.00  0.00    +0.000 A 
ATOM      4  C   UNL     1       4.043   4.913  19.103  0.00  0.00    +0.000 A 
ATOM      5  C   UNL     1       3.023   5.159  20.019  0.00  0.00    +0.000 A 
ATOM      6  C   UNL     1       1.738   4.678  19.720  0.00  0.00    +0.000 A 
ATOM      7  C   UNL     1       1.506   3.977  18.519  0.00  0.00    +0.000 A 
ATOM      8  C   UNL     1       2.553   3.752  17.608  0.00  0.00    +0.000 A 
ATOM      9  C   UNL     1       3.833   4.233  17.930  0.00  0.00    +0.000 A 
ENDROOT
BRANCH   2  10
ATOM     10  C   UNL     1       7.365   5.022  17.607  0.00  0.00    +0.000 C 
ATOM     11  O   UNL     1       7.736   6.115  17.224  0.00  0.00    +0.000 OA
BRANCH  10  12
ATOM     12  O   UNL     1       8.294   4.045  17.742  0.00  0.00    +0.000 OA
ATOM     13  H   UNL     1       9.226   4.154  17.513  0.00  0.00    +0.000 HD
ENDBRANCH  10  12
ENDBRANCH   2  10
BRANCH   1  14
ATOM     14  C   UNL     1       5.129   3.485  15.900  0.00  0.00    +0.000 C 
BRANCH  14  15
ATOM     15  C   UNL     1       5.478   4.461  14.754  0.00  0.00    +0.000 C 
BRANCH  15  17
ATOM     16  C   UNL     1       5.976   3.490  12.551  0.00  0.00    +0.000 C 
ATOM     17  N   UNL     1       6.524   3.958  13.837  0.00  0.00    +0.000 NA
ATOM     18  C   UNL     1       7.495   5.033  13.573  0.00  0.00    +0.000 C 
ENDBRANCH  15  17
ENDBRANCH  14  15
ENDBRANCH   1  14
TORSDOF 5
ENDMDL
MODEL 3
REMARK VINA RESULT:      -6.2      2.022      3.981
REMARK  Name = 
REMARK  7 active torsions:
REMARK  status: ('A' for Active; 'I' for Inactive)
REMARK    1  A    between atoms: C_1  and  N_2
REMARK    2  A    between atoms: N_2  and  C_3
REMARK    3  A    between atoms: N_2  and  C_4
REMARK    4  A    between atoms: C_4  and  C_5
REMARK    5  A    between atoms: C_5  and  N_6
REMARK    6  A    between atoms: C_7  and  C_8
REMARK    7  A    between atoms: C_8  and  O_10
REMARK                            x       y       z     vdW  Elec       q    Type
REMARK                         _______ _______ _______ _____ _____    ______ ____
ROOT
ATOM      1  N   UNL     1       4.658   4.794  18.243  0.00  0.00    +0.000 N 
ATOM      2  C   UNL     1       5.378   5.132  17.127  0.00  0.00    +0.000 A 
ATOM      3  C   UNL     1       4.991   6.395  16.670  0.00  0.00    +0.000 A 
ATOM      4  C   UNL     1       4.009   6.819  17.523  0.00  0.00    +0.000 A 
ATOM      5  C   UNL     1       3.273   8.001  17.512  0.00  0.00    +0.000 A 
ATOM      6  C   UNL     1       2.308   8.187  18.516  0.00  0.00    +0.000 A 
ATOM      7  C   UNL     1       2.100   7.191  19.491  0.00  0.00    +0.000 A 
ATOM      8  C   UNL     1       2.852   6.002  19.472  0.00  0.00    +0.000 A 
ATOM      9  C   UNL     1       3.818   5.839  18.464  0.00  0.00    +0.000 A 
ENDROOT
BRANCH   2  10
ATOM     10  C   UNL     1       6.399   4.295  16.427  0.00  0.00    +0.000 C 
ATOM     11  O   UNL     1       7.583   4.554  16.520  0.00  0.00    +0.000 OA
BRANCH  10  12
ATOM     12  O   UNL     1       6.040   3.198  15.716  0.00  0.00    +0.000 OA
ATOM     13  H   UNL     1       5.213   3.126  15.221  0.00  0.00    +0.000 HD
ENDBRANCH  10  12
ENDBRANCH   2  10
BRANCH   1  14
ATOM     14  C   UNL     1       4.716   3.558  19.053  0.00  0.00    +0.000 C 
BRANCH  14  15
ATOM     15  C   UNL     1       3.796   2.429  18.537  0.00  0.00    +0.000 C 
BRANCH  15  17
ATOM     16  C   UNL     1       2.846   2.709  20.788  0.00  0.00    +0.000 C 
ATOM     17  N   UNL     1       2.691   2.089  19.460  0.00  0.00    +0.000 NA
ATOM     18  C   UNL     1       1.416   2.539  18.876  0.00  0.00    +0.000 C 
ENDBRANCH  15  17
ENDBRANCH  14  15
ENDBRANCH   1  14
TORSDOF 5
ENDMDL
MODEL 4
REMARK VINA RESULT:      -6.2      2.338      3.390
REMARK  Name = 
REMARK  7 active torsions:
REMARK  status: ('A' for Active; 'I' for Inactive)
REMARK    1  A    between atoms: C_1  and  N_2
REMARK    2  A    between atoms: N_2  and  C_3
REMARK    3  A    between atoms: N_2  and  C_4
REMARK    4  A    between atoms: C_4  and  C_5
REMARK    5  A    between atoms: C_5  and  N_6
REMARK    6  A    between atoms: C_7  and  C_8
REMARK    7  A    between atoms: C_8  and  O_10
REMARK                            x       y       z     vdW  Elec       q    Type
REMARK                         _______ _______ _______ _____ _____    ______ ____
ROOT
ATOM      1  N   UNL     1       4.187   4.475  18.236  0.00  0.00    +0.000 N 
ATOM      2  C   UNL     1       3.823   3.674  19.287  0.00  0.00    +0.000 A 
ATOM      3  C   UNL     1       2.949   4.360  20.135  0.00  0.00    +0.000 A 
ATOM      4  C   UNL     1       2.794   5.605  19.586  0.00  0.00    +0.000 A 
ATOM      5  C   UNL     1       2.041   6.686  20.038  0.00  0.00    +0.000 A 
ATOM      6  C   UNL     1       2.060   7.866  19.277  0.00  0.00    +0.000 A 
ATOM      7  C   UNL     1       2.830   7.937  18.099  0.00  0.00    +0.000 A 
ATOM      8  C   UNL     1       3.589   6.832  17.672  0.00  0.00    +0.000 A 
ATOM      9  C   UNL     1       3.550   5.658  18.443  0.00  0.00    +0.000 A 
ENDROOT
BRANCH   2  10
ATOM     10  C   UNL     1       4.300   2.285  19.568  0.00  0.00    +0.000 C 
ATOM     11  O   UNL     1       4.928   2.038  20.579  0.00  0.00    +0.000 OA
BRANCH  10  12
ATOM     12  O   UNL     1       4.004   1.260  18.734  0.00  0.00    +0.000 OA
ATOM     13  H   UNL     1       4.307   1.207  17.818  0.00  0.00    +0.000 HD
ENDBRANCH  10  12
ENDBRANCH   2  10
BRANCH   1  14
ATOM     14  C   UNL     1       5.098   4.181  17.108  0.00  0.00    +0.000 C 
BRANCH  14  15
ATOM     15  C   UNL     1       6.596   4.266  17.477  0.00  0.00    +0.000 C 
BRANCH  15  17
ATOM     16  C   UNL     1       6.988   4.991  15.160  0.00  0.00    +0.000 C 
ATOM     17  N   UNL     1       7.386   5.130  16.573  0.00  0.00    +0.000 NA
ATOM     18  C   UNL     1       7.216   6.536  16.975  0.00  0.00    +0.000 C 
ENDBRANCH  15  17
ENDBRANCH  14  15
ENDBRANCH   1  14
TORSDOF 5
ENDMDL
MODEL 5
REMARK VINA RESULT:      -6.1      2.407      3.411
REMARK  Name = 
REMARK  7 active torsions:
REMARK  status: ('A' for Active; 'I' for Inactive)
REMARK    1  A    between atoms: C_1  and  N_2
REMARK    2  A    between atoms: N_2  and  C_3
REMARK    3  A    between atoms: N_2  and  C_4
REMARK    4  A    between atoms: C_4  and  C_5
REMARK    5  A    between atoms: C_5  and  N_6
REMARK    6  A    between atoms: C_7  and  C_8
REMARK    7  A    between atoms: C_8  and  O_10
REMARK                            x       y       z     vdW  Elec       q    Type
REMARK                         _______ _______ _______ _____ _____    ______ ____
ROOT
ATOM      1  N   UNL     1       3.912   5.570  17.882  0.00  0.00    +0.000 N 
ATOM      2  C   UNL     1       3.784   4.626  18.868  0.00  0.00    +0.000 A 
ATOM      3  C   UNL     1       2.956   5.103  19.887  0.00  0.00    +0.000 A 
ATOM      4  C   UNL     1       2.588   6.367  19.511  0.00  0.00    +0.000 A 
ATOM      5  C   UNL     1       1.781   7.290  20.172  0.00  0.00    +0.000 A 
ATOM      6  C   UNL     1       1.564   8.534  19.558  0.00  0.00    +0.000 A 
ATOM      7  C   UNL     1       2.160   8.824  18.314  0.00  0.00    +0.000 A 
ATOM      8  C   UNL     1       2.977   7.875  17.674  0.00  0.00    +0.000 A 
ATOM      9  C   UNL     1       3.176   6.633  18.301  0.00  0.00    +0.000 A 
ENDROOT
BRANCH   2  10
ATOM     10  C   UNL     1       4.451   3.289  18.924  0.00  0.00    +0.000 C 
ATOM     11  O   UNL     1       5.207   3.011  19.835  0.00  0.00    +0.000 OA
BRANCH  10  12
ATOM     12  O   UNL     1       4.192   2.336  17.997  0.00  0.00    +0.000 OA
ATOM     13  H   UNL     1       4.736   1.546  17.872  0.00  0.00    +0.000 HD
ENDBRANCH  10  12
ENDBRANCH   2  10
BRANCH   1  14
ATOM     14  C   UNL     1       4.695   5.513  16.628  0.00  0.00    +0.000 C 
BRANCH  14  15
ATOM     15  C   UNL     1       6.039   6.270  16.697  0.00  0.00    +0.000 C 
BRANCH  15  17
ATOM     16  C   UNL     1       7.623   4.545  17.448  0.00  0.00    +0.000 C 
ATOM     17  N   UNL     1       7.213   5.438  16.349  0.00  0.00    +0.000 NA
ATOM     18  C   UNL     1       6.892   4.618  15.169  0.00  0.00    +0.000 C 
ENDBRANCH  15  17
ENDBRANCH  14  15
ENDBRANCH   1  14
TORSDOF 5
ENDMDL
MODEL 6
REMARK VINA RESULT:      -6.0      2.512      3.511
REMARK  Name = 
REMARK  7 active torsions:
REMARK  status: ('A' for Active; 'I' for Inactive)
REMARK    1  A    between atoms: C_1  and  N_2
REMARK    2  A    between atoms: N_2  and  C_3
REMARK    3  A    between atoms: N_2  and  C_4
REMARK    4  A    between atoms: C_4  and  C_5
REMARK    5  A    between atoms: C_5  and  N_6
REMARK    6  A    between atoms: C_7  and  C_8
REMARK    7  A    between atoms: C_8  and  O_10
REMARK                            x       y       z     vdW  Elec       q    Type
REMARK                         _______ _______ _______ _____ _____    ______ ____
ROOT
ATOM      1  N   UNL     1       3.310   5.364  18.503  0.00  0.00    +0.000 N 
ATOM      2  C   UNL     1       3.138   4.461  19.519  0.00  0.00    +0.000 A 
ATOM      3  C   UNL     1       2.388   5.033  20.549  0.00  0.00    +0.000 A 
ATOM      4  C   UNL     1       2.112   6.312  20.148  0.00  0.00    +0.000 A 
ATOM      5  C   UNL     1       1.408   7.317  20.807  0.00  0.00    +0.000 A 
ATOM      6  C   UNL     1       1.273   8.558  20.163  0.00  0.00    +0.000 A 
ATOM      7  C   UNL     1       1.847   8.763  18.893  0.00  0.00    +0.000 A 
ATOM      8  C   UNL     1       2.562   7.733  18.256  0.00  0.00    +0.000 A 
ATOM      9  C   UNL     1       2.678   6.496  18.912  0.00  0.00    +0.000 A 
ENDROOT
BRANCH   2  10
ATOM     10  C   UNL     1       3.694   3.075  19.594  0.00  0.00    +0.000 C 
ATOM     11  O   UNL     1       2.955   2.109  19.580  0.00  0.00    +0.000 OA
BRANCH  10  12
ATOM     12  O   UNL     1       5.030   2.855  19.626  0.00  0.00    +0.000 OA
ATOM     13  H   UNL     1       5.569   2.706  18.837  0.00  0.00    +0.000 HD
ENDBRANCH  10  12
ENDBRANCH   2  10
BRANCH   1  14
ATOM     14  C   UNL     1       4.042   5.208  17.227  0.00  0.00    +0.000 C 
BRANCH  14  15
ATOM     15  C   UNL     1       5.476   5.782  17.255  0.00  0.00    +0.000 C 
BRANCH  15  17
ATOM     16  C   UNL     1       7.562   4.489  17.112  0.00  0.00    +0.000 C 
ATOM     17  N   UNL     1       6.448   4.927  17.971  0.00  0.00    +0.000 NA
ATOM     18  C   UNL     1       7.000   5.675  19.114  0.00  0.00    +0.000 C 
ENDBRANCH  15  17
ENDBRANCH  14  15
ENDBRANCH   1  14
TORSDOF 5
ENDMDL
MODEL 7
REMARK VINA RESULT:      -6.0      2.342      3.393
REMARK  Name = 
REMARK  7 active torsions:
REMARK  status: ('A' for Active; 'I' for Inactive)
REMARK    1  A    between atoms: C_1  and  N_2
REMARK    2  A    between atoms: N_2  and  C_3
REMARK    3  A    between atoms: N_2  and  C_4
REMARK    4  A    between atoms: C_4  and  C_5
REMARK    5  A    between atoms: C_5  and  N_6
REMARK    6  A    between atoms: C_7  and  C_8
REMARK    7  A    between atoms: C_8  and  O_10
REMARK                            x       y       z     vdW  Elec       q    Type
REMARK                         _______ _______ _______ _____ _____    ______ ____
ROOT
ATOM      1  N   UNL     1       3.567   4.478  18.233  0.00  0.00    +0.000 N 
ATOM      2  C   UNL     1       3.409   3.578  19.255  0.00  0.00    +0.000 A 
ATOM      3  C   UNL     1       2.742   4.179  20.326  0.00  0.00    +0.000 A 
ATOM      4  C   UNL     1       2.505   5.472  19.943  0.00  0.00    +0.000 A 
ATOM      5  C   UNL     1       1.884   6.504  20.642  0.00  0.00    +0.000 A 
ATOM      6  C   UNL     1       1.772   7.754  20.010  0.00  0.00    +0.000 A 
ATOM      7  C   UNL     1       2.286   7.939  18.711  0.00  0.00    +0.000 A 
ATOM      8  C   UNL     1       2.917   6.880  18.033  0.00  0.00    +0.000 A 
ATOM      9  C   UNL     1       3.011   5.636  18.679  0.00  0.00    +0.000 A 
ENDROOT
BRANCH   2  10
ATOM     10  C   UNL     1       3.903   2.168  19.296  0.00  0.00    +0.000 C 
ATOM     11  O   UNL     1       3.363   1.303  18.635  0.00  0.00    +0.000 OA
BRANCH  10  12
ATOM     12  O   UNL     1       4.992   1.827  20.026  0.00  0.00    +0.000 OA
ATOM     13  H   UNL     1       5.141   0.944  20.388  0.00  0.00    +0.000 HD
ENDBRANCH  10  12
ENDBRANCH   2  10
BRANCH   1  14
ATOM     14  C   UNL     1       4.221   4.295  16.919  0.00  0.00    +0.000 C 
BRANCH  14  15
ATOM     15  C   UNL     1       5.763   4.372  16.973  0.00  0.00    +0.000 C 
BRANCH  15  17
ATOM     16  C   UNL     1       7.235   6.342  16.986  0.00  0.00    +0.000 C 
ATOM     17  N   UNL     1       6.334   5.490  16.190  0.00  0.00    +0.000 NA
ATOM     18  C   UNL     1       7.088   4.944  15.048  0.00  0.00    +0.000 C 
ENDBRANCH  15  17
ENDBRANCH  14  15
ENDBRANCH   1  14
TORSDOF 5
ENDMDL
MODEL 8
REMARK VINA RESULT:      -6.0      2.285      3.390
REMARK  Name = 
REMARK  7 active torsions:
REMARK  status: ('A' for Active; 'I' for Inactive)
REMARK    1  A    between atoms: C_1  and  N_2
REMARK    2  A    between atoms: N_2  and  C_3
REMARK    3  A    between atoms: N_2  and  C_4
REMARK    4  A    between atoms: C_4  and  C_5
REMARK    5  A    between atoms: C_5  and  N_6
REMARK    6  A    between atoms: C_7  and  C_8
REMARK    7  A    between atoms: C_8  and  O_10
REMARK                            x       y       z     vdW  Elec       q    Type
REMARK                         _______ _______ _______ _____ _____    ______ ____
ROOT
ATOM      1  N   UNL     1       4.107   4.780  18.036  0.00  0.00    +0.000 N 
ATOM      2  C   UNL     1       5.118   4.231  18.781  0.00  0.00    +0.000 A 
ATOM      3  C   UNL     1       4.639   3.142  19.514  0.00  0.00    +0.000 A 
ATOM      4  C   UNL     1       3.308   3.042  19.212  0.00  0.00    +0.000 A 
ATOM      5  C   UNL     1       2.357   2.139  19.680  0.00  0.00    +0.000 A 
ATOM      6  C   UNL     1       1.041   2.262  19.205  0.00  0.00    +0.000 A 
ATOM      7  C   UNL     1       0.711   3.281  18.289  0.00  0.00    +0.000 A 
ATOM      8  C   UNL     1       1.690   4.185  17.841  0.00  0.00    +0.000 A 
ATOM      9  C   UNL     1       3.003   4.040  18.321  0.00  0.00    +0.000 A 
ENDROOT
BRANCH   2  10
ATOM     10  C   UNL     1       6.530   4.714  18.876  0.00  0.00    +0.000 C 
ATOM     11  O   UNL     1       6.873   5.449  19.782  0.00  0.00    +0.000 OA
BRANCH  10  12
ATOM     12  O   UNL     1       7.472   4.307  17.993  0.00  0.00    +0.000 OA
ATOM     13  H   UNL     1       7.880   3.431  18.008  0.00  0.00    +0.000 HD
ENDBRANCH  10  12
ENDBRANCH   2  10
BRANCH   1  14
ATOM     14  C   UNL     1       4.143   5.945  17.126  0.00  0.00    +0.000 C 
BRANCH  14  15
ATOM     15  C   UNL     1       3.928   7.300  17.838  0.00  0.00    +0.000 C 
BRANCH  15  17
ATOM     16  C   UNL     1       2.244   7.419  19.626  0.00  0.00    +0.000 C 
ATOM     17  N   UNL     1       2.517   7.576  18.186  0.00  0.00    +0.000 NA
ATOM     18  C   UNL     1       2.182   8.954  17.789  0.00  0.00    +0.000 C 
ENDBRANCH  15  17
ENDBRANCH  14  15
ENDBRANCH   1  14
TORSDOF 5
ENDMDL
MODEL 9
REMARK VINA RESULT:      -5.9      2.230      3.282
REMARK  Name = 
REMARK  7 active torsions:
REMARK  status: ('A' for Active; 'I' for Inactive)
REMARK    1  A    between atoms: C_1  and  N_2
REMARK    2  A    between atoms: N_2  and  C_3
REMARK    3  A    between atoms: N_2  and  C_4
REMARK    4  A    between atoms: C_4  and  C_5
REMARK    5  A    between atoms: C_5  and  N_6
REMARK    6  A    between atoms: C_7  and  C_8
REMARK    7  A    between atoms: C_8  and  O_10
REMARK                            x       y       z     vdW  Elec       q    Type
REMARK                         _______ _______ _______ _____ _____    ______ ____
ROOT
ATOM      1  N   UNL     1       4.106   4.744  18.068  0.00  0.00    +0.000 N 
ATOM      2  C   UNL     1       3.712   3.902  19.074  0.00  0.00    +0.000 A 
ATOM      3  C   UNL     1       2.835   4.563  19.938  0.00  0.00    +0.000 A 
ATOM      4  C   UNL     1       2.709   5.834  19.447  0.00  0.00    +0.000 A 
ATOM      5  C   UNL     1       1.967   6.905  19.936  0.00  0.00    +0.000 A 
ATOM      6  C   UNL     1       2.018   8.119  19.232  0.00  0.00    +0.000 A 
ATOM      7  C   UNL     1       2.810   8.232  18.071  0.00  0.00    +0.000 A 
ATOM      8  C   UNL     1       3.557   7.135  17.606  0.00  0.00    +0.000 A 
ATOM      9  C   UNL     1       3.486   5.927  18.320  0.00  0.00    +0.000 A 
ENDROOT
BRANCH   2  10
ATOM     10  C   UNL     1       4.161   2.493  19.296  0.00  0.00    +0.000 C 
ATOM     11  O   UNL     1       3.628   1.573  18.708  0.00  0.00    +0.000 OA
BRANCH  10  12
ATOM     12  O   UNL     1       5.203   2.210  20.114  0.00  0.00    +0.000 OA
ATOM     13  H   UNL     1       5.446   1.314  20.384  0.00  0.00    +0.000 HD
ENDBRANCH  10  12
ENDBRANCH   2  10
BRANCH   1  14
ATOM     14  C   UNL     1       5.032   4.488  16.943  0.00  0.00    +0.000 C 
BRANCH  14  15
ATOM     15  C   UNL     1       6.520   4.698  17.298  0.00  0.00    +0.000 C 
BRANCH  15  17
ATOM     16  C   UNL     1       7.664   5.545  19.303  0.00  0.00    +0.000 C 
ATOM     17  N   UNL     1       6.767   5.861  18.178  0.00  0.00    +0.000 NA
ATOM     18  C   UNL     1       7.369   6.948  17.385  0.00  0.00    +0.000 C 
ENDBRANCH  15  17
ENDBRANCH  14  15
ENDBRANCH   1  14
TORSDOF 5
ENDMDL
