MODEL 1
REMARK VINA RESULT:      -7.0      0.000      0.000
REMARK  Name = 
REMARK  6 active torsions:
REMARK  status: ('A' for Active; 'I' for Inactive)
REMARK    1  A    between atoms: C_1  and  C_2
REMARK    2  A    between atoms: C_2  and  C_3
REMARK    3  A    between atoms: C_3  and  C_4
REMARK    4  A    between atoms: C_3  and  C_6
REMARK    5  A    between atoms: C_4  and  C_5
REMARK    6  A    between atoms: C_12  and  C_13
REMARK                            x       y       z     vdW  Elec       q    Type
REMARK                         _______ _______ _______ _____ _____    ______ ____
ROOT
ATOM      1  C   UNL     1       3.009   4.890  19.557  0.00  0.00    +0.000 C 
ATOM      2  N   UNL     1       2.659   5.801  20.406  0.00  0.00    +0.000 NA
ATOM      3  N   UNL     1       2.398   6.958  19.723  0.00  0.00    +0.000 N 
ATOM      4  C   UNL     1       1.712   7.983  20.330  0.00  0.00    +0.000 C 
ATOM      5  N   UNL     1       1.398   7.945  21.595  0.00  0.00    +0.000 NA
ATOM      6  C   UNL     1       1.335   9.110  19.425  0.00  0.00    +0.000 C 
ATOM      7  C   UNL     1       0.407   9.953  19.904  0.00  0.00    +0.000 C 
ATOM      8  C   UNL     1       2.035   9.139  18.085  0.00  0.00    +0.000 C 
ATOM      9  O   UNL     1       2.305  10.194  17.532  0.00  0.00    +0.000 OA
ATOM     10  N   UNL     1       2.401   7.919  17.544  0.00  0.00    +0.000 NA
ATOM     11  C   UNL     1       2.592   6.945  18.368  0.00  0.00    +0.000 C 
ATOM     12  S   UNL     1       3.102   5.349  17.864  0.00  0.00    +0.000 S 
ATOM     13  H   UNL     1       1.775   7.048  21.944  0.00  0.00    +0.000 HD
ENDROOT
BRANCH   7  14
ATOM     14  C   UNL     1      -0.163  11.074  19.252  0.00  0.00    +0.000 A 
ATOM     15  C   UNL     1       0.148  12.429  19.243  0.00  0.00    +0.000 A 
ATOM     16  C   UNL     1      -0.787  13.090  18.411  0.00  0.00    +0.000 A 
ATOM     17  C   UNL     1      -1.598  12.109  17.908  0.00  0.00    +0.000 A 
ATOM     18  O   UNL     1      -1.225  10.901  18.386  0.00  0.00    +0.000 OA
ENDBRANCH   7  14
BRANCH   1  19
ATOM     19  C   UNL     1       3.247   3.465  19.988  0.00  0.00    +0.000 C 
BRANCH  19  21
ATOM     20  C   UNL     1       1.536   2.633  21.715  0.00  0.00    +0.000 C 
ATOM     21  C   UNL     1       1.877   2.802  20.246  0.00  0.00    +0.000 C 
ENDBRANCH  19  21
BRANCH  19  22
ATOM     22  C   UNL     1       4.118   2.754  18.932  0.00  0.00    +0.000 C 
ATOM     23  C   UNL     1       3.550   1.452  18.370  0.00  0.00    +0.000 C 
ENDBRANCH  19  22
ENDBRANCH   1  19
TORSDOF 4
ENDMDL
MODEL 2
REMARK VINA RESULT:      -6.7      3.086      4.511
REMARK  Name = 
REMARK  6 active torsions:
REMARK  status: ('A' for Active; 'I' for Inactive)
REMARK    1  A    between atoms: C_1  and  C_2
REMARK    2  A    between atoms: C_2  and  C_3
REMARK    3  A    between atoms: C_3  and  C_4
REMARK    4  A    between atoms: C_3  and  C_6
REMARK    5  A    between atoms: C_4  and  C_5
REMARK    6  A    between atoms: C_12  and  C_13
REMARK                            x       y       z     vdW  Elec       q    Type
REMARK                         _______ _______ _______ _____ _____    ______ ____
ROOT
ATOM      1  C   UNL     1       5.124   4.708  17.316  0.00  0.00    +0.000 C 
ATOM      2  N   UNL     1       4.389   5.741  17.060  0.00  0.00    +0.000 NA
ATOM      3  N   UNL     1       3.533   5.939  18.109  0.00  0.00    +0.000 N 
ATOM      4  C   UNL     1       2.865   7.133  18.246  0.00  0.00    +0.000 C 
ATOM      5  N   UNL     1       2.924   8.061  17.332  0.00  0.00    +0.000 NA
ATOM      6  C   UNL     1       2.108   7.287  19.524  0.00  0.00    +0.000 C 
ATOM      7  C   UNL     1       1.722   8.538  19.822  0.00  0.00    +0.000 C 
ATOM      8  C   UNL     1       1.893   6.019  20.319  0.00  0.00    +0.000 C 
ATOM      9  O   UNL     1       0.881   5.848  20.982  0.00  0.00    +0.000 OA
ATOM     10  N   UNL     1       2.870   5.044  20.215  0.00  0.00    +0.000 NA
ATOM     11  C   UNL     1       3.580   5.037  19.139  0.00  0.00    +0.000 C 
ATOM     12  S   UNL     1       4.826   3.849  18.820  0.00  0.00    +0.000 S 
ATOM     13  H   UNL     1       3.526   7.674  16.586  0.00  0.00    +0.000 HD
ENDROOT
BRANCH   7  14
ATOM     14  C   UNL     1       1.031   8.979  20.977  0.00  0.00    +0.000 A 
ATOM     15  C   UNL     1       1.373   9.046  22.322  0.00  0.00    +0.000 A 
ATOM     16  C   UNL     1       0.265   9.569  23.033  0.00  0.00    +0.000 A 
ATOM     17  C   UNL     1      -0.686   9.846  22.089  0.00  0.00    +0.000 A 
ATOM     18  O   UNL     1      -0.235   9.517  20.858  0.00  0.00    +0.000 OA
ENDBRANCH   7  14
BRANCH   1  19
ATOM     19  C   UNL     1       6.252   4.301  16.403  0.00  0.00    +0.000 C 
BRANCH  19  21
ATOM     20  C   UNL     1       6.019   4.015  13.860  0.00  0.00    +0.000 C 
ATOM     21  C   UNL     1       6.032   4.977  15.033  0.00  0.00    +0.000 C 
ENDBRANCH  19  21
BRANCH  19  22
ATOM     22  C   UNL     1       7.598   4.636  17.078  0.00  0.00    +0.000 C 
ATOM     23  C   UNL     1       7.627   5.922  17.902  0.00  0.00    +0.000 C 
ENDBRANCH  19  22
ENDBRANCH   1  19
TORSDOF 4
ENDMDL
MODEL 3
REMARK VINA RESULT:      -6.6      3.594      4.641
REMARK  Name = 
REMARK  6 active torsions:
REMARK  status: ('A' for Active; 'I' for Inactive)
REMARK    1  A    between atoms: C_1  and  C_2
REMARK    2  A    between atoms: C_2  and  C_3
REMARK    3  A    between atoms: C_3  and  C_4
REMARK    4  A    between atoms: C_3  and  C_6
REMARK    5  A    between atoms: C_4  and  C_5
REMARK    6  A    between atoms: C_12  and  C_13
REMARK                            x       y       z     vdW  Elec       q    Type
REMARK                         _______ _______ _______ _____ _____    ______ ____
ROOT
ATOM      1  C   UNL     1       1.644   8.329  20.196  0.00  0.00    +0.000 C 
ATOM      2  N   UNL     1       1.326   8.612  21.418  0.00  0.00    +0.000 NA
ATOM      3  N   UNL     1       0.592   9.767  21.422  0.00  0.00    +0.000 N 
ATOM      4  C   UNL     1      -0.134  10.125  22.533  0.00  0.00    +0.000 C 
ATOM      5  N   UNL     1      -0.056   9.456  23.650  0.00  0.00    +0.000 NA
ATOM      6  C   UNL     1      -1.032  11.304  22.344  0.00  0.00    +0.000 C 
ATOM      7  C   UNL     1      -1.971  11.475  23.288  0.00  0.00    +0.000 C 
ATOM      8  C   UNL     1      -0.773  12.136  21.109  0.00  0.00    +0.000 C 
ATOM      9  O   UNL     1      -0.954  13.344  21.106  0.00  0.00    +0.000 OA
ATOM     10  N   UNL     1      -0.274  11.472  20.001  0.00  0.00    +0.000 NA
ATOM     11  C   UNL     1       0.389  10.387  20.218  0.00  0.00    +0.000 C 
ATOM     12  S   UNL     1       1.130   9.446  18.942  0.00  0.00    +0.000 S 
ATOM     13  H   UNL     1       0.624   8.699  23.468  0.00  0.00    +0.000 HD
ENDROOT
BRANCH   7  14
ATOM     14  C   UNL     1      -2.972  12.475  23.343  0.00  0.00    +0.000 A 
ATOM     15  C   UNL     1      -3.041  13.720  23.957  0.00  0.00    +0.000 A 
ATOM     16  C   UNL     1      -4.310  14.281  23.675  0.00  0.00    +0.000 A 
ATOM     17  C   UNL     1      -4.943  13.381  22.861  0.00  0.00    +0.000 A 
ATOM     18  O   UNL     1      -4.149  12.309  22.640  0.00  0.00    +0.000 OA
ENDBRANCH   7  14
BRANCH   1  19
ATOM     19  C   UNL     1       2.355   7.046  19.848  0.00  0.00    +0.000 C 
BRANCH  19  21
ATOM     20  C   UNL     1       2.422   4.576  20.553  0.00  0.00    +0.000 C 
ATOM     21  C   UNL     1       1.665   5.890  20.602  0.00  0.00    +0.000 C 
ENDBRANCH  19  21
BRANCH  19  22
ATOM     22  C   UNL     1       2.390   6.885  18.314  0.00  0.00    +0.000 C 
ATOM     23  C   UNL     1       3.778   6.907  17.675  0.00  0.00    +0.000 C 
ENDBRANCH  19  22
ENDBRANCH   1  19
TORSDOF 4
ENDMDL
MODEL 4
REMARK VINA RESULT:      -6.6      3.183      4.485
REMARK  Name = 
REMARK  6 active torsions:
REMARK  status: ('A' for Active; 'I' for Inactive)
REMARK    1  A    between atoms: C_1  and  C_2
REMARK    2  A    between atoms: C_2  and  C_3
REMARK    3  A    between atoms: C_3  and  C_4
REMARK    4  A    between atoms: C_3  and  C_6
REMARK    5  A    between atoms: C_4  and  C_5
REMARK    6  A    between atoms: C_12  and  C_13
REMARK                            x       y       z     vdW  Elec       q    Type
REMARK                         _______ _______ _______ _____ _____    ______ ____
ROOT
ATOM      1  C   UNL     1       5.017   5.649  16.930  0.00  0.00    +0.000 C 
ATOM      2  N   UNL     1       4.162   6.614  16.825  0.00  0.00    +0.000 NA
ATOM      3  N   UNL     1       3.386   6.636  17.952  0.00  0.00    +0.000 N 
ATOM      4  C   UNL     1       2.617   7.737  18.245  0.00  0.00    +0.000 C 
ATOM      5  N   UNL     1       2.502   8.735  17.414  0.00  0.00    +0.000 NA
ATOM      6  C   UNL     1       1.964   7.709  19.589  0.00  0.00    +0.000 C 
ATOM      7  C   UNL     1       1.483   8.884  20.024  0.00  0.00    +0.000 C 
ATOM      8  C   UNL     1       1.949   6.366  20.284  0.00  0.00    +0.000 C 
ATOM      9  O   UNL     1       1.022   6.036  21.008  0.00  0.00    +0.000 OA
ATOM     10  N   UNL     1       3.005   5.512  20.018  0.00  0.00    +0.000 NA
ATOM     11  C   UNL     1       3.615   5.667  18.892  0.00  0.00    +0.000 C 
ATOM     12  S   UNL     1       4.940   4.648  18.372  0.00  0.00    +0.000 S 
ATOM     13  H   UNL     1       3.072   8.475  16.592  0.00  0.00    +0.000 HD
ENDROOT
BRANCH   7  14
ATOM     14  C   UNL     1       0.856   9.156  21.265  0.00  0.00    +0.000 A 
ATOM     15  C   UNL     1       1.305   9.144  22.580  0.00  0.00    +0.000 A 
ATOM     16  C   UNL     1       0.219   9.493  23.419  0.00  0.00    +0.000 A 
ATOM     17  C   UNL     1      -0.832   9.752  22.581  0.00  0.00    +0.000 A 
ATOM     18  O   UNL     1      -0.460   9.574  21.294  0.00  0.00    +0.000 OA
ENDBRANCH   7  14
BRANCH   1  19
ATOM     19  C   UNL     1       6.094   5.439  15.897  0.00  0.00    +0.000 C 
BRANCH  19  21
ATOM     20  C   UNL     1       7.527   7.041  17.305  0.00  0.00    +0.000 C 
ATOM     21  C   UNL     1       7.460   5.722  16.558  0.00  0.00    +0.000 C 
ENDBRANCH  19  21
BRANCH  19  22
ATOM     22  C   UNL     1       5.951   4.026  15.294  0.00  0.00    +0.000 C 
ATOM     23  C   UNL     1       6.189   3.919  13.789  0.00  0.00    +0.000 C 
ENDBRANCH  19  22
ENDBRANCH   1  19
TORSDOF 4
ENDMDL
MODEL 5
REMARK VINA RESULT:      -6.5      0.477      1.553
REMARK  Name = 
REMARK  6 active torsions:
REMARK  status: ('A' for Active; 'I' for Inactive)
REMARK    1  A    between atoms: C_1  and  C_2
REMARK    2  A    between atoms: C_2  and  C_3
REMARK    3  A    between atoms: C_3  and  C_4
REMARK    4  A    between atoms: C_3  and  C_6
REMARK    5  A    between atoms: C_4  and  C_5
REMARK    6  A    between atoms: C_12  and  C_13
REMARK                            x       y       z     vdW  Elec       q    Type
REMARK                         _______ _______ _______ _____ _____    ______ ____
ROOT
ATOM      1  C   UNL     1       2.506   4.814  19.520  0.00  0.00    +0.000 C 
ATOM      2  N   UNL     1       2.308   5.745  20.395  0.00  0.00    +0.000 NA
ATOM      3  N   UNL     1       2.174   6.939  19.740  0.00  0.00    +0.000 N 
ATOM      4  C   UNL     1       1.650   8.033  20.388  0.00  0.00    +0.000 C 
ATOM      5  N   UNL     1       1.380   8.011  21.664  0.00  0.00    +0.000 NA
ATOM      6  C   UNL     1       1.387   9.216  19.514  0.00  0.00    +0.000 C 
ATOM      7  C   UNL     1       0.594  10.161  20.042  0.00  0.00    +0.000 C 
ATOM      8  C   UNL     1       2.035   9.181  18.149  0.00  0.00    +0.000 C 
ATOM      9  O   UNL     1       2.419  10.203  17.601  0.00  0.00    +0.000 OA
ATOM     10  N   UNL     1       2.220   7.934  17.576  0.00  0.00    +0.000 NA
ATOM     11  C   UNL     1       2.314   6.929  18.378  0.00  0.00    +0.000 C 
ATOM     12  S   UNL     1       2.595   5.289  17.832  0.00  0.00    +0.000 S 
ATOM     13  H   UNL     1       1.650   7.066  21.985  0.00  0.00    +0.000 HD
ENDROOT
BRANCH   7  14
ATOM     14  C   UNL     1       0.150  11.359  19.429  0.00  0.00    +0.000 A 
ATOM     15  C   UNL     1       0.551  12.686  19.534  0.00  0.00    +0.000 A 
ATOM     16  C   UNL     1      -0.273  13.463  18.684  0.00  0.00    +0.000 A 
ATOM     17  C   UNL     1      -1.108  12.576  18.061  0.00  0.00    +0.000 A 
ATOM     18  O   UNL     1      -0.852  11.317  18.481  0.00  0.00    +0.000 OA
ENDBRANCH   7  14
BRANCH   1  19
ATOM     19  C   UNL     1       2.573   3.362  19.921  0.00  0.00    +0.000 C 
BRANCH  19  21
ATOM     20  C   UNL     1       3.583   1.622  18.322  0.00  0.00    +0.000 C 
ATOM     21  C   UNL     1       3.848   2.748  19.303  0.00  0.00    +0.000 C 
ENDBRANCH  19  21
BRANCH  19  22
ATOM     22  C   UNL     1       2.486   3.255  21.457  0.00  0.00    +0.000 C 
ATOM     23  C   UNL     1       1.327   2.420  22.000  0.00  0.00    +0.000 C 
ENDBRANCH  19  22
ENDBRANCH   1  19
TORSDOF 4
ENDMDL
MODEL 6
REMARK VINA RESULT:      -6.3      2.759      3.909
REMARK  Name = 
REMARK  6 active torsions:
REMARK  status: ('A' for Active; 'I' for Inactive)
REMARK    1  A    between atoms: C_1  and  C_2
REMARK    2  A    between atoms: C_2  and  C_3
REMARK    3  A    between atoms: C_3  and  C_4
REMARK    4  A    between atoms: C_3  and  C_6
REMARK    5  A    between atoms: C_4  and  C_5
REMARK    6  A    between atoms: C_12  and  C_13
REMARK                            x       y       z     vdW  Elec       q    Type
REMARK                         _______ _______ _______ _____ _____    ______ ____
ROOT
ATOM      1  C   UNL     1       3.831   6.397  18.225  0.00  0.00    +0.000 C 
ATOM      2  N   UNL     1       3.189   7.394  17.708  0.00  0.00    +0.000 NA
ATOM      3  N   UNL     1       2.280   7.850  18.623  0.00  0.00    +0.000 N 
ATOM      4  C   UNL     1       1.689   9.081  18.462  0.00  0.00    +0.000 C 
ATOM      5  N   UNL     1       1.875   9.797  17.388  0.00  0.00    +0.000 NA
ATOM      6  C   UNL     1       0.860   9.537  19.618  0.00  0.00    +0.000 C 
ATOM      7  C   UNL     1       0.543  10.841  19.626  0.00  0.00    +0.000 C 
ATOM      8  C   UNL     1       0.503   8.473  20.631  0.00  0.00    +0.000 C 
ATOM      9  O   UNL     1      -0.561   8.497  21.231  0.00  0.00    +0.000 OA
ATOM     10  N   UNL     1       1.414   7.445  20.805  0.00  0.00    +0.000 NA
ATOM     11  C   UNL     1       2.194   7.179  19.813  0.00  0.00    +0.000 C 
ATOM     12  S   UNL     1       3.372   5.884  19.841  0.00  0.00    +0.000 S 
ATOM     13  H   UNL     1       2.499   9.232  16.787  0.00  0.00    +0.000 HD
ENDROOT
BRANCH   7  14
ATOM     14  C   UNL     1      -0.192  11.548  20.609  0.00  0.00    +0.000 A 
ATOM     15  C   UNL     1      -1.495  12.028  20.659  0.00  0.00    +0.000 A 
ATOM     16  C   UNL     1      -1.678  12.676  21.905  0.00  0.00    +0.000 A 
ATOM     17  C   UNL     1      -0.499  12.522  22.582  0.00  0.00    +0.000 A 
ATOM     18  O   UNL     1       0.388  11.834  21.828  0.00  0.00    +0.000 OA
ENDBRANCH   7  14
BRANCH   1  19
ATOM     19  C   UNL     1       4.987   5.750  17.506  0.00  0.00    +0.000 C 
BRANCH  19  21
ATOM     20  C   UNL     1       5.537   5.414  15.019  0.00  0.00    +0.000 C 
ATOM     21  C   UNL     1       5.098   6.381  16.102  0.00  0.00    +0.000 C 
ENDBRANCH  19  21
BRANCH  19  22
ATOM     22  C   UNL     1       6.258   5.877  18.371  0.00  0.00    +0.000 C 
ATOM     23  C   UNL     1       7.388   6.715  17.775  0.00  0.00    +0.000 C 
ENDBRANCH  19  22
ENDBRANCH   1  19
TORSDOF 4
ENDMDL
MODEL 7
REMARK VINA RESULT:      -6.3      1.682      2.059
REMARK  Name = 
REMARK  6 active torsions:
REMARK  status: ('A' for Active; 'I' for Inactive)
REMARK    1  A    between atoms: C_1  and  C_2
REMARK    2  A    between atoms: C_2  and  C_3
REMARK    3  A    between atoms: C_3  and  C_4
REMARK    4  A    between atoms: C_3  and  C_6
REMARK    5  A    between atoms: C_4  and  C_5
REMARK    6  A    between atoms: C_12  and  C_13
REMARK                            x       y       z     vdW  Elec       q    Type
REMARK                         _______ _______ _______ _____ _____    ______ ____
ROOT
ATOM      1  C   UNL     1       3.847   5.773  18.463  0.00  0.00    +0.000 C 
ATOM      2  N   UNL     1       3.249   6.210  19.523  0.00  0.00    +0.000 NA
ATOM      3  N   UNL     1       2.693   7.429  19.241  0.00  0.00    +0.000 N 
ATOM      4  C   UNL     1       1.745   7.970  20.076  0.00  0.00    +0.000 C 
ATOM      5  N   UNL     1       1.432   7.414  21.212  0.00  0.00    +0.000 NA
ATOM      6  C   UNL     1       1.089   9.210  19.561  0.00  0.00    +0.000 C 
ATOM      7  C   UNL     1      -0.041   9.571  20.189  0.00  0.00    +0.000 C 
ATOM      8  C   UNL     1       1.776   9.881  18.394  0.00  0.00    +0.000 C 
ATOM      9  O   UNL     1       1.758  11.095  18.258  0.00  0.00    +0.000 OA
ATOM     10  N   UNL     1       2.470   9.061  17.520  0.00  0.00    +0.000 NA
ATOM     11  C   UNL     1       2.905   7.941  17.989  0.00  0.00    +0.000 C 
ATOM     12  S   UNL     1       3.839   6.804  17.041  0.00  0.00    +0.000 S 
ATOM     13  H   UNL     1       2.033   6.576  21.282  0.00  0.00    +0.000 HD
ENDROOT
BRANCH   7  14
ATOM     14  C   UNL     1      -0.884  10.670  19.890  0.00  0.00    +0.000 A 
ATOM     15  C   UNL     1      -1.088  11.905  20.494  0.00  0.00    +0.000 A 
ATOM     16  C   UNL     1      -2.075  12.599  19.755  0.00  0.00    +0.000 A 
ATOM     17  C   UNL     1      -2.398  11.783  18.704  0.00  0.00    +0.000 A 
ATOM     18  O   UNL     1      -1.681  10.639  18.763  0.00  0.00    +0.000 OA
ENDBRANCH   7  14
BRANCH   1  19
ATOM     19  C   UNL     1       4.457   4.395  18.418  0.00  0.00    +0.000 C 
BRANCH  19  21
ATOM     20  C   UNL     1       2.331   3.215  17.590  0.00  0.00    +0.000 C 
ATOM     21  C   UNL     1       3.768   3.597  17.291  0.00  0.00    +0.000 C 
ENDBRANCH  19  21
BRANCH  19  22
ATOM     22  C   UNL     1       5.988   4.522  18.275  0.00  0.00    +0.000 C 
ATOM     23  C   UNL     1       6.668   5.490  19.242  0.00  0.00    +0.000 C 
ENDBRANCH  19  22
ENDBRANCH   1  19
TORSDOF 4
ENDMDL
MODEL 8
REMARK VINA RESULT:      -6.2      1.140      1.253
REMARK  Name = 
REMARK  6 active torsions:
REMARK  status: ('A' for Active; 'I' for Inactive)
REMARK    1  A    between atoms: C_1  and  C_2
REMARK    2  A    between atoms: C_2  and  C_3
REMARK    3  A    between atoms: C_3  and  C_4
REMARK    4  A    between atoms: C_3  and  C_6
REMARK    5  A    between atoms: C_4  and  C_5
REMARK    6  A    between atoms: C_12  and  C_13
REMARK                            x       y       z     vdW  Elec       q    Type
REMARK                         _______ _______ _______ _____ _____    ______ ____
ROOT
ATOM      1  C   UNL     1       3.832   5.309  18.679  0.00  0.00    +0.000 C 
ATOM      2  N   UNL     1       3.251   5.884  19.682  0.00  0.00    +0.000 NA
ATOM      3  N   UNL     1       2.793   7.108  19.278  0.00  0.00    +0.000 N 
ATOM      4  C   UNL     1       1.874   7.792  20.040  0.00  0.00    +0.000 C 
ATOM      5  N   UNL     1       1.503   7.366  21.215  0.00  0.00    +0.000 NA
ATOM      6  C   UNL     1       1.320   9.024  19.401  0.00  0.00    +0.000 C 
ATOM      7  C   UNL     1       0.210   9.522  19.968  0.00  0.00    +0.000 C 
ATOM      8  C   UNL     1       2.074   9.533  18.193  0.00  0.00    +0.000 C 
ATOM      9  O   UNL     1       2.148  10.728  17.948  0.00  0.00    +0.000 OA
ATOM     10  N   UNL     1       2.718   8.588  17.413  0.00  0.00    +0.000 NA
ATOM     11  C   UNL     1       3.061   7.487  17.991  0.00  0.00    +0.000 C 
ATOM     12  S   UNL     1       3.923   6.204  17.170  0.00  0.00    +0.000 S 
ATOM     13  H   UNL     1       2.039   6.496  21.373  0.00  0.00    +0.000 HD
ENDROOT
BRANCH   7  14
ATOM     14  C   UNL     1      -0.544  10.646  19.552  0.00  0.00    +0.000 A 
ATOM     15  C   UNL     1      -0.680  11.937  20.050  0.00  0.00    +0.000 A 
ATOM     16  C   UNL     1      -1.593  12.634  19.222  0.00  0.00    +0.000 A 
ATOM     17  C   UNL     1      -1.938  11.759  18.227  0.00  0.00    +0.000 A 
ATOM     18  O   UNL     1      -1.304  10.578  18.402  0.00  0.00    +0.000 OA
ENDBRANCH   7  14
BRANCH   1  19
ATOM     19  C   UNL     1       4.339   3.893  18.772  0.00  0.00    +0.000 C 
BRANCH  19  21
ATOM     20  C   UNL     1       4.523   2.010  20.511  0.00  0.00    +0.000 C 
ATOM     21  C   UNL     1       3.798   3.270  20.076  0.00  0.00    +0.000 C 
ENDBRANCH  19  21
BRANCH  19  22
ATOM     22  C   UNL     1       3.956   3.131  17.486  0.00  0.00    +0.000 C 
ATOM     23  C   UNL     1       2.524   2.600  17.430  0.00  0.00    +0.000 C 
ENDBRANCH  19  22
ENDBRANCH   1  19
TORSDOF 4
ENDMDL
MODEL 9
REMARK VINA RESULT:      -6.2      2.668      3.672
REMARK  Name = 
REMARK  6 active torsions:
REMARK  status: ('A' for Active; 'I' for Inactive)
REMARK    1  A    between atoms: C_1  and  C_2
REMARK    2  A    between atoms: C_2  and  C_3
REMARK    3  A    between atoms: C_3  and  C_4
REMARK    4  A    between atoms: C_3  and  C_6
REMARK    5  A    between atoms: C_4  and  C_5
REMARK    6  A    between atoms: C_12  and  C_13
REMARK                            x       y       z     vdW  Elec       q    Type
REMARK                         _______ _______ _______ _____ _____    ______ ____
ROOT
ATOM      1  C   UNL     1       3.813   6.642  18.002  0.00  0.00    +0.000 C 
ATOM      2  N   UNL     1       3.136   7.649  17.555  0.00  0.00    +0.000 NA
ATOM      3  N   UNL     1       2.268   8.060  18.530  0.00  0.00    +0.000 N 
ATOM      4  C   UNL     1       1.658   9.289  18.445  0.00  0.00    +0.000 C 
ATOM      5  N   UNL     1       1.783  10.046  17.391  0.00  0.00    +0.000 NA
ATOM      6  C   UNL     1       0.881   9.691  19.657  0.00  0.00    +0.000 C 
ATOM      7  C   UNL     1       0.552  10.990  19.729  0.00  0.00    +0.000 C 
ATOM      8  C   UNL     1       0.587   8.585  20.645  0.00  0.00    +0.000 C 
ATOM      9  O   UNL     1      -0.446   8.574  21.297  0.00  0.00    +0.000 OA
ATOM     10  N   UNL     1       1.516   7.563  20.735  0.00  0.00    +0.000 NA
ATOM     11  C   UNL     1       2.248   7.343  19.696  0.00  0.00    +0.000 C 
ATOM     12  S   UNL     1       3.440   6.063  19.618  0.00  0.00    +0.000 S 
ATOM     13  H   UNL     1       2.381   9.512  16.739  0.00  0.00    +0.000 HD
ENDROOT
BRANCH   7  14
ATOM     14  C   UNL     1      -0.141  11.650  20.773  0.00  0.00    +0.000 A 
ATOM     15  C   UNL     1       0.266  12.492  21.801  0.00  0.00    +0.000 A 
ATOM     16  C   UNL     1      -0.876  12.843  22.561  0.00  0.00    +0.000 A 
ATOM     17  C   UNL     1      -1.938  12.243  21.939  0.00  0.00    +0.000 A 
ATOM     18  O   UNL     1      -1.515  11.545  20.861  0.00  0.00    +0.000 OA
ENDBRANCH   7  14
BRANCH   1  19
ATOM     19  C   UNL     1       4.939   6.037  17.203  0.00  0.00    +0.000 C 
BRANCH  19  21
ATOM     20  C   UNL     1       7.278   7.059  17.496  0.00  0.00    +0.000 C 
ATOM     21  C   UNL     1       6.228   6.114  18.048  0.00  0.00    +0.000 C 
ENDBRANCH  19  21
BRANCH  19  22
ATOM     22  C   UNL     1       4.541   4.613  16.762  0.00  0.00    +0.000 C 
ATOM     23  C   UNL     1       5.519   3.911  15.821  0.00  0.00    +0.000 C 
ENDBRANCH  19  22
ENDBRANCH   1  19
TORSDOF 4
ENDMDL
