MODEL 1
REMARK VINA RESULT:      -8.5      0.000      0.000
REMARK  Name = 
REMARK  8 active torsions:
REMARK  status: ('A' for Active; 'I' for Inactive)
REMARK    1  A    between atoms: N_1  and  C_2
REMARK    2  A    between atoms: C_2  and  C_3
REMARK    3  A    between atoms: C_5  and  O_6
REMARK    4  A    between atoms: O_6  and  C_7
REMARK    5  A    between atoms: C_11  and  C_12
REMARK    6  A    between atoms: C_18  and  C_19
REMARK    7  A    between atoms: C_19  and  O_21
REMARK    8  A    between atoms: C_24  and  C_25
REMARK                            x       y       z     vdW  Elec       q    Type
REMARK                         _______ _______ _______ _____ _____    ______ ____
ROOT
ATOM      1  C   UNL     1       2.679   5.794  18.450  0.00  0.00    +0.000 A 
ATOM      2  C   UNL     1       2.285   5.314  19.713  0.00  0.00    +0.000 A 
ATOM      3  C   UNL     1       1.732   6.169  20.650  0.00  0.00    +0.000 A 
ATOM      4  C   UNL     1       1.545   7.521  20.351  0.00  0.00    +0.000 A 
ATOM      5  C   UNL     1       1.894   8.035  19.082  0.00  0.00    +0.000 A 
ATOM      6  C   UNL     1       2.469   7.142  18.147  0.00  0.00    +0.000 A 
ENDROOT
BRANCH   5   7
ATOM      7  C   UNL     1       1.693   9.466  18.650  0.00  0.00    +0.000 C 
ATOM      8  O   UNL     1       1.969   9.724  17.485  0.00  0.00    +0.000 OA
ATOM      9  N   UNL     1       1.142  10.472  19.418  0.00  0.00    +0.000 N 
ATOM     10  C   UNL     1       0.523  10.343  20.722  0.00  0.00    +0.000 C 
ATOM     11  C   UNL     1      -0.750  11.154  20.556  0.00  0.00    +0.000 C 
ATOM     12  C   UNL     1      -0.226  12.372  19.818  0.00  0.00    +0.000 C 
ATOM     13  C   UNL     1       0.740  11.737  18.808  0.00  0.00    +0.000 C 
BRANCH  13  14
ATOM     14  C   UNL     1       1.909  12.642  18.490  0.00  0.00    +0.000 C 
ATOM     15  O   UNL     1       2.173  13.578  19.229  0.00  0.00    +0.000 OA
BRANCH  14  16
ATOM     16  O   UNL     1       2.668  12.437  17.393  0.00  0.00    +0.000 OA
ATOM     17  H   UNL     1       3.594  12.711  17.354  0.00  0.00    +0.000 HD
ENDBRANCH  14  16
ENDBRANCH  13  14
ENDBRANCH   5   7
BRANCH   1  18
ATOM     18  O   UNL     1       3.233   4.971  17.517  0.00  0.00    +0.000 OA
BRANCH  18  21
ATOM     19  C   UNL     1       6.309   4.750  15.533  0.00  0.00    +0.000 A 
ATOM     20  C   UNL     1       4.940   4.738  15.856  0.00  0.00    +0.000 A 
ATOM     21  C   UNL     1       4.545   4.980  17.182  0.00  0.00    +0.000 A 
ATOM     22  N   UNL     1       5.492   5.254  18.124  0.00  0.00    +0.000 NA
ATOM     23  C   UNL     1       6.821   5.294  17.839  0.00  0.00    +0.000 A 
ATOM     24  C   UNL     1       7.250   5.031  16.533  0.00  0.00    +0.000 A 
BRANCH  23  25
ATOM     25  C   UNL     1       7.806   5.633  18.915  0.00  0.00    +0.000 C 
ATOM     26  F   UNL     1       7.189   5.659  20.153  0.00  0.00    +0.000 F 
ATOM     27  F   UNL     1       8.820   4.692  18.937  0.00  0.00    +0.000 F 
ATOM     28  F   UNL     1       8.352   6.881  18.665  0.00  0.00    +0.000 F 
ENDBRANCH  23  25
BRANCH  19  29
ATOM     29  C   UNL     1       6.778   4.483  14.128  0.00  0.00    +0.000 C 
BRANCH  29  30
ATOM     30  N   UNL     1       7.755   5.486  13.726  0.00  0.00    +0.000 NA
ATOM     31  H   UNL     1       7.335   6.083  12.976  0.00  0.00    +0.000 HD
ATOM     32  H   UNL     1       8.593   5.006  13.321  0.00  0.00    +0.000 HD
ENDBRANCH  29  30
ENDBRANCH  19  29
ENDBRANCH  18  21
ENDBRANCH   1  18
TORSDOF 8
ENDMDL
MODEL 2
REMARK VINA RESULT:      -8.4      2.708      3.840
REMARK  Name = 
REMARK  8 active torsions:
REMARK  status: ('A' for Active; 'I' for Inactive)
REMARK    1  A    between atoms: N_1  and  C_2
REMARK    2  A    between atoms: C_2  and  C_3
REMARK    3  A    between atoms: C_5  and  O_6
REMARK    4  A    between atoms: O_6  and  C_7
REMARK    5  A    between atoms: C_11  and  C_12
REMARK    6  A    between atoms: C_18  and  C_19
REMARK    7  A    between atoms: C_19  and  O_21
REMARK    8  A    between atoms: C_24  and  C_25
REMARK                            x       y       z     vdW  Elec       q    Type
REMARK                         _______ _______ _______ _____ _____    ______ ____
ROOT
ATOM      1  C   UNL     1       3.822   3.946  19.802  0.00  0.00    +0.000 A 
ATOM      2  C   UNL     1       2.933   2.895  20.091  0.00  0.00    +0.000 A 
ATOM      3  C   UNL     1       1.633   3.161  20.484  0.00  0.00    +0.000 A 
ATOM      4  C   UNL     1       1.180   4.479  20.589  0.00  0.00    +0.000 A 
ATOM      5  C   UNL     1       2.031   5.562  20.272  0.00  0.00    +0.000 A 
ATOM      6  C   UNL     1       3.359   5.263  19.885  0.00  0.00    +0.000 A 
ENDROOT
BRANCH   5   7
ATOM      7  C   UNL     1       1.626   7.013  20.313  0.00  0.00    +0.000 C 
ATOM      8  O   UNL     1       1.410   7.485  21.422  0.00  0.00    +0.000 OA
ATOM      9  N   UNL     1       1.572   7.868  19.229  0.00  0.00    +0.000 N 
ATOM     10  C   UNL     1       2.018   7.601  17.877  0.00  0.00    +0.000 C 
ATOM     11  C   UNL     1       2.807   8.855  17.544  0.00  0.00    +0.000 C 
ATOM     12  C   UNL     1       1.892   9.931  18.097  0.00  0.00    +0.000 C 
ATOM     13  C   UNL     1       1.442   9.310  19.426  0.00  0.00    +0.000 C 
BRANCH  13  14
ATOM     14  C   UNL     1       0.041   9.733  19.809  0.00  0.00    +0.000 C 
ATOM     15  O   UNL     1      -0.737  10.111  18.947  0.00  0.00    +0.000 OA
BRANCH  14  16
ATOM     16  O   UNL     1      -0.365   9.706  21.095  0.00  0.00    +0.000 OA
ATOM     17  H   UNL     1      -1.201   9.298  21.359  0.00  0.00    +0.000 HD
ENDBRANCH  14  16
ENDBRANCH  13  14
ENDBRANCH   5   7
BRANCH   1  18
ATOM     18  O   UNL     1       5.108   3.706  19.422  0.00  0.00    +0.000 OA
BRANCH  18  21
ATOM     19  C   UNL     1       7.337   6.298  18.093  0.00  0.00    +0.000 A 
ATOM     20  C   UNL     1       6.632   5.508  19.019  0.00  0.00    +0.000 A 
ATOM     21  C   UNL     1       5.798   4.479  18.549  0.00  0.00    +0.000 A 
ATOM     22  N   UNL     1       5.712   4.245  17.209  0.00  0.00    +0.000 NA
ATOM     23  C   UNL     1       6.397   4.977  16.291  0.00  0.00    +0.000 A 
ATOM     24  C   UNL     1       7.216   6.026  16.723  0.00  0.00    +0.000 A 
BRANCH  23  25
ATOM     25  C   UNL     1       6.282   4.646  14.834  0.00  0.00    +0.000 C 
ATOM     26  F   UNL     1       5.149   5.223  14.290  0.00  0.00    +0.000 F 
ATOM     27  F   UNL     1       7.394   5.114  14.157  0.00  0.00    +0.000 F 
ATOM     28  F   UNL     1       6.201   3.273  14.677  0.00  0.00    +0.000 F 
ENDBRANCH  23  25
BRANCH  19  29
ATOM     29  C   UNL     1       8.231   7.419  18.551  0.00  0.00    +0.000 C 
BRANCH  29  30
ATOM     30  N   UNL     1       8.010   8.603  17.733  0.00  0.00    +0.000 NA
ATOM     31  H   UNL     1       8.938   8.994  17.448  0.00  0.00    +0.000 HD
ATOM     32  H   UNL     1       7.520   9.329  18.306  0.00  0.00    +0.000 HD
ENDBRANCH  29  30
ENDBRANCH  19  29
ENDBRANCH  18  21
ENDBRANCH   1  18
TORSDOF 8
ENDMDL
MODEL 3
REMARK VINA RESULT:      -8.3      2.071      2.607
REMARK  Name = 
REMARK  8 active torsions:
REMARK  status: ('A' for Active; 'I' for Inactive)
REMARK    1  A    between atoms: N_1  and  C_2
REMARK    2  A    between atoms: C_2  and  C_3
REMARK    3  A    between atoms: C_5  and  O_6
REMARK    4  A    between atoms: O_6  and  C_7
REMARK    5  A    between atoms: C_11  and  C_12
REMARK    6  A    between atoms: C_18  and  C_19
REMARK    7  A    between atoms: C_19  and  O_21
REMARK    8  A    between atoms: C_24  and  C_25
REMARK                            x       y       z     vdW  Elec       q    Type
REMARK                         _______ _______ _______ _____ _____    ______ ____
ROOT
ATOM      1  C   UNL     1       2.790   6.631  18.516  0.00  0.00    +0.000 A 
ATOM      2  C   UNL     1       2.458   5.321  18.909  0.00  0.00    +0.000 A 
ATOM      3  C   UNL     1       1.729   5.095  20.063  0.00  0.00    +0.000 A 
ATOM      4  C   UNL     1       1.303   6.167  20.852  0.00  0.00    +0.000 A 
ATOM      5  C   UNL     1       1.584   7.499  20.473  0.00  0.00    +0.000 A 
ATOM      6  C   UNL     1       2.341   7.702  19.294  0.00  0.00    +0.000 A 
ENDROOT
BRANCH   5   7
ATOM      7  C   UNL     1       1.133   8.722  21.231  0.00  0.00    +0.000 C 
ATOM      8  O   UNL     1       1.704   8.944  22.291  0.00  0.00    +0.000 OA
ATOM      9  N   UNL     1       0.210   9.650  20.792  0.00  0.00    +0.000 N 
ATOM     10  C   UNL     1      -0.403   9.727  19.481  0.00  0.00    +0.000 C 
ATOM     11  C   UNL     1      -0.267  11.201  19.146  0.00  0.00    +0.000 C 
ATOM     12  C   UNL     1      -0.656  11.838  20.468  0.00  0.00    +0.000 C 
ATOM     13  C   UNL     1       0.060  10.932  21.478  0.00  0.00    +0.000 C 
BRANCH  13  14
ATOM     14  C   UNL     1      -0.695  10.822  22.783  0.00  0.00    +0.000 C 
ATOM     15  O   UNL     1      -1.085  11.833  23.346  0.00  0.00    +0.000 OA
BRANCH  14  16
ATOM     16  O   UNL     1      -0.941   9.621  23.345  0.00  0.00    +0.000 OA
ATOM     17  H   UNL     1      -1.045   9.515  24.300  0.00  0.00    +0.000 HD
ENDBRANCH  14  16
ENDBRANCH  13  14
ENDBRANCH   5   7
BRANCH   1  18
ATOM     18  O   UNL     1       3.513   6.874  17.388  0.00  0.00    +0.000 OA
BRANCH  18  21
ATOM     19  C   UNL     1       6.308   5.292  15.616  0.00  0.00    +0.000 A 
ATOM     20  C   UNL     1       5.038   5.850  15.853  0.00  0.00    +0.000 A 
ATOM     21  C   UNL     1       4.729   6.333  17.135  0.00  0.00    +0.000 A 
ATOM     22  N   UNL     1       5.674   6.283  18.117  0.00  0.00    +0.000 NA
ATOM     23  C   UNL     1       6.916   5.770  17.914  0.00  0.00    +0.000 A 
ATOM     24  C   UNL     1       7.248   5.255  16.655  0.00  0.00    +0.000 A 
BRANCH  23  25
ATOM     25  C   UNL     1       7.918   5.773  19.027  0.00  0.00    +0.000 C 
ATOM     26  F   UNL     1       8.652   6.946  19.020  0.00  0.00    +0.000 F 
ATOM     27  F   UNL     1       7.270   5.655  20.243  0.00  0.00    +0.000 F 
ATOM     28  F   UNL     1       8.786   4.706  18.871  0.00  0.00    +0.000 F 
ENDBRANCH  23  25
BRANCH  19  29
ATOM     29  C   UNL     1       6.677   4.751  14.261  0.00  0.00    +0.000 C 
BRANCH  29  30
ATOM     30  N   UNL     1       7.813   5.485  13.720  0.00  0.00    +0.000 NA
ATOM     31  H   UNL     1       7.489   6.434  13.420  0.00  0.00    +0.000 HD
ATOM     32  H   UNL     1       8.171   4.986  12.872  0.00  0.00    +0.000 HD
ENDBRANCH  29  30
ENDBRANCH  19  29
ENDBRANCH  18  21
ENDBRANCH   1  18
TORSDOF 8
ENDMDL
MODEL 4
REMARK VINA RESULT:      -8.2      1.986      2.807
REMARK  Name = 
REMARK  8 active torsions:
REMARK  status: ('A' for Active; 'I' for Inactive)
REMARK    1  A    between atoms: N_1  and  C_2
REMARK    2  A    between atoms: C_2  and  C_3
REMARK    3  A    between atoms: C_5  and  O_6
REMARK    4  A    between atoms: O_6  and  C_7
REMARK    5  A    between atoms: C_11  and  C_12
REMARK    6  A    between atoms: C_18  and  C_19
REMARK    7  A    between atoms: C_19  and  O_21
REMARK    8  A    between atoms: C_24  and  C_25
REMARK                            x       y       z     vdW  Elec       q    Type
REMARK                         _______ _______ _______ _____ _____    ______ ____
ROOT
ATOM      1  C   UNL     1       2.605   5.790  18.976  0.00  0.00    +0.000 A 
ATOM      2  C   UNL     1       2.100   5.409  20.232  0.00  0.00    +0.000 A 
ATOM      3  C   UNL     1       1.482   6.336  21.053  0.00  0.00    +0.000 A 
ATOM      4  C   UNL     1       1.341   7.664  20.641  0.00  0.00    +0.000 A 
ATOM      5  C   UNL     1       1.802   8.078  19.371  0.00  0.00    +0.000 A 
ATOM      6  C   UNL     1       2.441   7.113  18.556  0.00  0.00    +0.000 A 
ENDROOT
BRANCH   5   7
ATOM      7  C   UNL     1       1.660   9.474  18.818  0.00  0.00    +0.000 C 
ATOM      8  O   UNL     1       1.992   9.631  17.650  0.00  0.00    +0.000 OA
ATOM      9  N   UNL     1       1.104  10.552  19.479  0.00  0.00    +0.000 N 
ATOM     10  C   UNL     1       0.426  10.543  20.760  0.00  0.00    +0.000 C 
ATOM     11  C   UNL     1      -0.816  11.367  20.474  0.00  0.00    +0.000 C 
ATOM     12  C   UNL     1      -0.228  12.510  19.666  0.00  0.00    +0.000 C 
ATOM     13  C   UNL     1       0.763  11.773  18.754  0.00  0.00    +0.000 C 
BRANCH  13  14
ATOM     14  C   UNL     1       1.969  12.621  18.417  0.00  0.00    +0.000 C 
ATOM     15  O   UNL     1       2.393  13.425  19.233  0.00  0.00    +0.000 OA
BRANCH  14  16
ATOM     16  O   UNL     1       2.585  12.509  17.222  0.00  0.00    +0.000 OA
ATOM     17  H   UNL     1       3.528  12.696  17.114  0.00  0.00    +0.000 HD
ENDBRANCH  14  16
ENDBRANCH  13  14
ENDBRANCH   5   7
BRANCH   1  18
ATOM     18  O   UNL     1       3.224   4.895  18.157  0.00  0.00    +0.000 OA
BRANCH  18  21
ATOM     19  C   UNL     1       6.823   5.594  18.064  0.00  0.00    +0.000 A 
ATOM     20  C   UNL     1       5.516   5.454  18.564  0.00  0.00    +0.000 A 
ATOM     21  C   UNL     1       4.491   5.035  17.699  0.00  0.00    +0.000 A 
ATOM     22  N   UNL     1       4.788   4.740  16.401  0.00  0.00    +0.000 NA
ATOM     23  C   UNL     1       6.044   4.845  15.893  0.00  0.00    +0.000 A 
ATOM     24  C   UNL     1       7.083   5.285  16.722  0.00  0.00    +0.000 A 
BRANCH  23  25
ATOM     25  C   UNL     1       6.308   4.475  14.466  0.00  0.00    +0.000 C 
ATOM     26  F   UNL     1       5.254   4.862  13.658  0.00  0.00    +0.000 F 
ATOM     27  F   UNL     1       7.463   5.095  14.026  0.00  0.00    +0.000 F 
ATOM     28  F   UNL     1       6.464   3.103  14.366  0.00  0.00    +0.000 F 
ENDBRANCH  23  25
BRANCH  19  29
ATOM     29  C   UNL     1       7.949   6.052  18.951  0.00  0.00    +0.000 C 
BRANCH  29  30
ATOM     30  N   UNL     1       7.854   5.408  20.255  0.00  0.00    +0.000 NA
ATOM     31  H   UNL     1       7.138   4.648  20.203  0.00  0.00    +0.000 HD
ATOM     32  H   UNL     1       7.527   6.109  20.960  0.00  0.00    +0.000 HD
ENDBRANCH  29  30
ENDBRANCH  19  29
ENDBRANCH  18  21
ENDBRANCH   1  18
TORSDOF 8
ENDMDL
MODEL 5
REMARK VINA RESULT:      -8.2      3.431      7.699
REMARK  Name = 
REMARK  8 active torsions:
REMARK  status: ('A' for Active; 'I' for Inactive)
REMARK    1  A    between atoms: N_1  and  C_2
REMARK    2  A    between atoms: C_2  and  C_3
REMARK    3  A    between atoms: C_5  and  O_6
REMARK    4  A    between atoms: O_6  and  C_7
REMARK    5  A    between atoms: C_11  and  C_12
REMARK    6  A    between atoms: C_18  and  C_19
REMARK    7  A    between atoms: C_19  and  O_21
REMARK    8  A    between atoms: C_24  and  C_25
REMARK                            x       y       z     vdW  Elec       q    Type
REMARK                         _______ _______ _______ _____ _____    ______ ____
ROOT
ATOM      1  C   UNL     1       1.949   5.005  20.508  0.00  0.00    +0.000 A 
ATOM      2  C   UNL     1       1.453   3.719  20.228  0.00  0.00    +0.000 A 
ATOM      3  C   UNL     1       2.199   2.824  19.480  0.00  0.00    +0.000 A 
ATOM      4  C   UNL     1       3.461   3.183  19.001  0.00  0.00    +0.000 A 
ATOM      5  C   UNL     1       4.010   4.452  19.291  0.00  0.00    +0.000 A 
ATOM      6  C   UNL     1       3.222   5.352  20.047  0.00  0.00    +0.000 A 
ENDROOT
BRANCH   5   7
ATOM      7  C   UNL     1       5.377   4.916  18.856  0.00  0.00    +0.000 C 
ATOM      8  O   UNL     1       6.230   4.987  19.732  0.00  0.00    +0.000 OA
ATOM      9  N   UNL     1       5.768   5.173  17.557  0.00  0.00    +0.000 N 
ATOM     10  C   UNL     1       5.013   4.921  16.346  0.00  0.00    +0.000 C 
ATOM     11  C   UNL     1       6.045   4.252  15.455  0.00  0.00    +0.000 C 
ATOM     12  C   UNL     1       7.260   5.126  15.708  0.00  0.00    +0.000 C 
ATOM     13  C   UNL     1       7.181   5.342  17.226  0.00  0.00    +0.000 C 
BRANCH  13  14
ATOM     14  C   UNL     1       7.731   6.688  17.640  0.00  0.00    +0.000 C 
ATOM     15  O   UNL     1       7.653   7.638  16.876  0.00  0.00    +0.000 OA
BRANCH  14  16
ATOM     16  O   UNL     1       8.317   6.859  18.843  0.00  0.00    +0.000 OA
ATOM     17  H   UNL     1       8.584   7.732  19.162  0.00  0.00    +0.000 HD
ENDBRANCH  14  16
ENDBRANCH  13  14
ENDBRANCH   5   7
BRANCH   1  18
ATOM     18  O   UNL     1       1.228   5.903  21.235  0.00  0.00    +0.000 OA
BRANCH  18  21
ATOM     19  C   UNL     1       0.298   9.447  21.404  0.00  0.00    +0.000 A 
ATOM     20  C   UNL     1       0.445   8.099  21.779  0.00  0.00    +0.000 A 
ATOM     21  C   UNL     1       1.076   7.206  20.897  0.00  0.00    +0.000 A 
ATOM     22  N   UNL     1       1.563   7.668  19.710  0.00  0.00    +0.000 NA
ATOM     23  C   UNL     1       1.456   8.968  19.329  0.00  0.00    +0.000 A 
ATOM     24  C   UNL     1       0.809   9.879  20.172  0.00  0.00    +0.000 A 
BRANCH  23  25
ATOM     25  C   UNL     1       2.041   9.416  18.024  0.00  0.00    +0.000 C 
ATOM     26  F   UNL     1       1.147   9.205  16.990  0.00  0.00    +0.000 F 
ATOM     27  F   UNL     1       2.349  10.762  18.085  0.00  0.00    +0.000 F 
ATOM     28  F   UNL     1       3.196   8.698  17.766  0.00  0.00    +0.000 F 
ENDBRANCH  23  25
BRANCH  19  29
ATOM     29  C   UNL     1      -0.383  10.436  22.312  0.00  0.00    +0.000 C 
BRANCH  29  30
ATOM     30  N   UNL     1      -0.236  10.024  23.702  0.00  0.00    +0.000 NA
ATOM     31  H   UNL     1      -1.076  10.343  24.238  0.00  0.00    +0.000 HD
ATOM     32  H   UNL     1       0.604  10.495  24.112  0.00  0.00    +0.000 HD
ENDBRANCH  29  30
ENDBRANCH  19  29
ENDBRANCH  18  21
ENDBRANCH   1  18
TORSDOF 8
ENDMDL
MODEL 6
REMARK VINA RESULT:      -8.2      3.534      7.951
REMARK  Name = 
REMARK  8 active torsions:
REMARK  status: ('A' for Active; 'I' for Inactive)
REMARK    1  A    between atoms: N_1  and  C_2
REMARK    2  A    between atoms: C_2  and  C_3
REMARK    3  A    between atoms: C_5  and  O_6
REMARK    4  A    between atoms: O_6  and  C_7
REMARK    5  A    between atoms: C_11  and  C_12
REMARK    6  A    between atoms: C_18  and  C_19
REMARK    7  A    between atoms: C_19  and  O_21
REMARK    8  A    between atoms: C_24  and  C_25
REMARK                            x       y       z     vdW  Elec       q    Type
REMARK                         _______ _______ _______ _____ _____    ______ ____
ROOT
ATOM      1  C   UNL     1       1.803   5.335  20.634  0.00  0.00    +0.000 A 
ATOM      2  C   UNL     1       0.812   4.385  20.327  0.00  0.00    +0.000 A 
ATOM      3  C   UNL     1       1.083   3.339  19.462  0.00  0.00    +0.000 A 
ATOM      4  C   UNL     1       2.350   3.205  18.889  0.00  0.00    +0.000 A 
ATOM      5  C   UNL     1       3.384   4.117  19.200  0.00  0.00    +0.000 A 
ATOM      6  C   UNL     1       3.077   5.184  20.077  0.00  0.00    +0.000 A 
ENDROOT
BRANCH   5   7
ATOM      7  C   UNL     1       4.792   4.034  18.668  0.00  0.00    +0.000 C 
ATOM      8  O   UNL     1       5.497   3.149  19.135  0.00  0.00    +0.000 OA
ATOM      9  N   UNL     1       5.316   4.800  17.645  0.00  0.00    +0.000 N 
ATOM     10  C   UNL     1       4.604   5.725  16.787  0.00  0.00    +0.000 C 
ATOM     11  C   UNL     1       5.116   5.348  15.409  0.00  0.00    +0.000 C 
ATOM     12  C   UNL     1       6.600   5.185  15.684  0.00  0.00    +0.000 C 
ATOM     13  C   UNL     1       6.591   4.443  17.027  0.00  0.00    +0.000 C 
BRANCH  13  14
ATOM     14  C   UNL     1       7.785   4.798  17.884  0.00  0.00    +0.000 C 
ATOM     15  O   UNL     1       8.717   4.014  17.983  0.00  0.00    +0.000 OA
BRANCH  14  16
ATOM     16  O   UNL     1       7.839   5.970  18.550  0.00  0.00    +0.000 OA
ATOM     17  H   UNL     1       8.622   6.238  19.050  0.00  0.00    +0.000 HD
ENDBRANCH  14  16
ENDBRANCH  13  14
ENDBRANCH   5   7
BRANCH   1  18
ATOM     18  O   UNL     1       1.554   6.376  21.476  0.00  0.00    +0.000 OA
BRANCH  18  21
ATOM     19  C   UNL     1       0.297   9.821  21.498  0.00  0.00    +0.000 A 
ATOM     20  C   UNL     1       0.625   8.530  21.950  0.00  0.00    +0.000 A 
ATOM     21  C   UNL     1       1.231   7.625  21.064  0.00  0.00    +0.000 A 
ATOM     22  N   UNL     1       1.522   8.024  19.793  0.00  0.00    +0.000 NA
ATOM     23  C   UNL     1       1.238   9.271  19.332  0.00  0.00    +0.000 A 
ATOM     24  C   UNL     1       0.609  10.188  20.181  0.00  0.00    +0.000 A 
BRANCH  23  25
ATOM     25  C   UNL     1       1.612   9.655  17.933  0.00  0.00    +0.000 C 
ATOM     26  F   UNL     1       2.489   8.732  17.391  0.00  0.00    +0.000 F 
ATOM     27  F   UNL     1       0.479   9.716  17.144  0.00  0.00    +0.000 F 
ATOM     28  F   UNL     1       2.224  10.896  17.943  0.00  0.00    +0.000 F 
ENDBRANCH  23  25
BRANCH  19  29
ATOM     29  C   UNL     1      -0.366  10.819  22.409  0.00  0.00    +0.000 C 
BRANCH  29  30
ATOM     30  N   UNL     1      -0.024  12.175  22.002  0.00  0.00    +0.000 NA
ATOM     31  H   UNL     1       0.367  12.147  21.032  0.00  0.00    +0.000 HD
ATOM     32  H   UNL     1       0.721  12.546  22.637  0.00  0.00    +0.000 HD
ENDBRANCH  29  30
ENDBRANCH  19  29
ENDBRANCH  18  21
ENDBRANCH   1  18
TORSDOF 8
ENDMDL
MODEL 7
REMARK VINA RESULT:      -8.2      4.386      7.897
REMARK  Name = 
REMARK  8 active torsions:
REMARK  status: ('A' for Active; 'I' for Inactive)
REMARK    1  A    between atoms: N_1  and  C_2
REMARK    2  A    between atoms: C_2  and  C_3
REMARK    3  A    between atoms: C_5  and  O_6
REMARK    4  A    between atoms: O_6  and  C_7
REMARK    5  A    between atoms: C_11  and  C_12
REMARK    6  A    between atoms: C_18  and  C_19
REMARK    7  A    between atoms: C_19  and  O_21
REMARK    8  A    between atoms: C_24  and  C_25
REMARK                            x       y       z     vdW  Elec       q    Type
REMARK                         _______ _______ _______ _____ _____    ______ ____
ROOT
ATOM      1  C   UNL     1       1.759   5.650  20.663  0.00  0.00    +0.000 A 
ATOM      2  C   UNL     1       1.085   4.439  20.425  0.00  0.00    +0.000 A 
ATOM      3  C   UNL     1       1.688   3.428  19.697  0.00  0.00    +0.000 A 
ATOM      4  C   UNL     1       2.982   3.592  19.197  0.00  0.00    +0.000 A 
ATOM      5  C   UNL     1       3.707   4.779  19.445  0.00  0.00    +0.000 A 
ATOM      6  C   UNL     1       3.063   5.801  20.182  0.00  0.00    +0.000 A 
ENDROOT
BRANCH   5   7
ATOM      7  C   UNL     1       5.121   5.034  18.986  0.00  0.00    +0.000 C 
ATOM      8  O   UNL     1       5.978   5.064  19.860  0.00  0.00    +0.000 OA
ATOM      9  N   UNL     1       5.537   5.140  17.674  0.00  0.00    +0.000 N 
ATOM     10  C   UNL     1       4.753   4.893  16.481  0.00  0.00    +0.000 C 
ATOM     11  C   UNL     1       5.690   4.035  15.650  0.00  0.00    +0.000 C 
ATOM     12  C   UNL     1       7.005   4.767  15.844  0.00  0.00    +0.000 C 
ATOM     13  C   UNL     1       6.959   5.106  17.340  0.00  0.00    +0.000 C 
BRANCH  13  14
ATOM     14  C   UNL     1       7.674   6.400  17.655  0.00  0.00    +0.000 C 
ATOM     15  O   UNL     1       7.780   7.261  16.795  0.00  0.00    +0.000 OA
BRANCH  14  16
ATOM     16  O   UNL     1       8.207   6.621  18.874  0.00  0.00    +0.000 OA
ATOM     17  H   UNL     1       7.892   6.156  19.662  0.00  0.00    +0.000 HD
ENDBRANCH  14  16
ENDBRANCH  13  14
ENDBRANCH   5   7
BRANCH   1  18
ATOM     18  O   UNL     1       1.180   6.660  21.370  0.00  0.00    +0.000 OA
BRANCH  18  21
ATOM     19  C   UNL     1       1.326   9.588  19.167  0.00  0.00    +0.000 A 
ATOM     20  C   UNL     1       1.525   8.279  19.641  0.00  0.00    +0.000 A 
ATOM     21  C   UNL     1       1.000   7.914  20.892  0.00  0.00    +0.000 A 
ATOM     22  N   UNL     1       0.280   8.824  21.608  0.00  0.00    +0.000 NA
ATOM     23  C   UNL     1       0.052  10.090  21.168  0.00  0.00    +0.000 A 
ATOM     24  C   UNL     1       0.584  10.494  19.938  0.00  0.00    +0.000 A 
BRANCH  23  25
ATOM     25  C   UNL     1      -0.774  11.031  21.990  0.00  0.00    +0.000 C 
ATOM     26  F   UNL     1      -1.242  10.402  23.129  0.00  0.00    +0.000 F 
ATOM     27  F   UNL     1      -0.012  12.124  22.361  0.00  0.00    +0.000 F 
ATOM     28  F   UNL     1      -1.857  11.466  21.246  0.00  0.00    +0.000 F 
ENDBRANCH  23  25
BRANCH  19  29
ATOM     29  C   UNL     1       1.882  10.026  17.838  0.00  0.00    +0.000 C 
BRANCH  29  30
ATOM     30  N   UNL     1       2.258  11.432  17.891  0.00  0.00    +0.000 NA
ATOM     31  H   UNL     1       2.887  11.583  18.713  0.00  0.00    +0.000 HD
ATOM     32  H   UNL     1       1.398  12.012  18.035  0.00  0.00    +0.000 HD
ENDBRANCH  29  30
ENDBRANCH  19  29
ENDBRANCH  18  21
ENDBRANCH   1  18
TORSDOF 8
ENDMDL
MODEL 8
REMARK VINA RESULT:      -8.2      2.583      3.762
REMARK  Name = 
REMARK  8 active torsions:
REMARK  status: ('A' for Active; 'I' for Inactive)
REMARK    1  A    between atoms: N_1  and  C_2
REMARK    2  A    between atoms: C_2  and  C_3
REMARK    3  A    between atoms: C_5  and  O_6
REMARK    4  A    between atoms: O_6  and  C_7
REMARK    5  A    between atoms: C_11  and  C_12
REMARK    6  A    between atoms: C_18  and  C_19
REMARK    7  A    between atoms: C_19  and  O_21
REMARK    8  A    between atoms: C_24  and  C_25
REMARK                            x       y       z     vdW  Elec       q    Type
REMARK                         _______ _______ _______ _____ _____    ______ ____
ROOT
ATOM      1  C   UNL     1       2.157   7.371  19.545  0.00  0.00    +0.000 A 
ATOM      2  C   UNL     1       2.415   7.669  18.194  0.00  0.00    +0.000 A 
ATOM      3  C   UNL     1       2.013   8.875  17.649  0.00  0.00    +0.000 A 
ATOM      4  C   UNL     1       1.352   9.822  18.436  0.00  0.00    +0.000 A 
ATOM      5  C   UNL     1       1.106   9.577  19.806  0.00  0.00    +0.000 A 
ATOM      6  C   UNL     1       1.517   8.330  20.335  0.00  0.00    +0.000 A 
ENDROOT
BRANCH   5   7
ATOM      7  C   UNL     1       0.439  10.549  20.747  0.00  0.00    +0.000 C 
ATOM      8  O   UNL     1       1.118  10.947  21.685  0.00  0.00    +0.000 OA
ATOM      9  N   UNL     1      -0.820  11.093  20.587  0.00  0.00    +0.000 N 
ATOM     10  C   UNL     1      -1.694  10.963  19.440  0.00  0.00    +0.000 C 
ATOM     11  C   UNL     1      -2.151  12.394  19.218  0.00  0.00    +0.000 C 
ATOM     12  C   UNL     1      -2.436  12.834  20.642  0.00  0.00    +0.000 C 
ATOM     13  C   UNL     1      -1.247  12.229  21.402  0.00  0.00    +0.000 C 
BRANCH  13  14
ATOM     14  C   UNL     1      -1.611  11.841  22.817  0.00  0.00    +0.000 C 
ATOM     15  O   UNL     1      -2.472  12.467  23.416  0.00  0.00    +0.000 OA
BRANCH  14  16
ATOM     16  O   UNL     1      -0.993  10.815  23.437  0.00  0.00    +0.000 OA
ATOM     17  H   UNL     1      -1.403  10.341  24.174  0.00  0.00    +0.000 HD
ENDBRANCH  14  16
ENDBRANCH  13  14
ENDBRANCH   5   7
BRANCH   1  18
ATOM     18  O   UNL     1       2.538   6.186  20.098  0.00  0.00    +0.000 OA
BRANCH  18  21
ATOM     19  C   UNL     1       3.954   3.221  18.469  0.00  0.00    +0.000 A 
ATOM     20  C   UNL     1       3.009   4.086  19.050  0.00  0.00    +0.000 A 
ATOM     21  C   UNL     1       3.429   5.337  19.533  0.00  0.00    +0.000 A 
ATOM     22  N   UNL     1       4.736   5.703  19.400  0.00  0.00    +0.000 NA
ATOM     23  C   UNL     1       5.668   4.899  18.825  0.00  0.00    +0.000 A 
ATOM     24  C   UNL     1       5.289   3.635  18.357  0.00  0.00    +0.000 A 
BRANCH  23  25
ATOM     25  C   UNL     1       7.081   5.375  18.682  0.00  0.00    +0.000 C 
ATOM     26  F   UNL     1       7.853   4.427  18.035  0.00  0.00    +0.000 F 
ATOM     27  F   UNL     1       7.110   6.551  17.955  0.00  0.00    +0.000 F 
ATOM     28  F   UNL     1       7.620   5.605  19.936  0.00  0.00    +0.000 F 
ENDBRANCH  23  25
BRANCH  19  29
ATOM     29  C   UNL     1       3.551   1.867  17.950  0.00  0.00    +0.000 C 
BRANCH  29  30
ATOM     30  N   UNL     1       2.124   1.657  18.151  0.00  0.00    +0.000 NA
ATOM     31  H   UNL     1       1.902   1.795  19.163  0.00  0.00    +0.000 HD
ATOM     32  H   UNL     1       1.885   0.669  17.902  0.00  0.00    +0.000 HD
ENDBRANCH  29  30
ENDBRANCH  19  29
ENDBRANCH  18  21
ENDBRANCH   1  18
TORSDOF 8
ENDMDL
MODEL 9
REMARK VINA RESULT:      -8.1      4.812      9.171
REMARK  Name = 
REMARK  8 active torsions:
REMARK  status: ('A' for Active; 'I' for Inactive)
REMARK    1  A    between atoms: N_1  and  C_2
REMARK    2  A    between atoms: C_2  and  C_3
REMARK    3  A    between atoms: C_5  and  O_6
REMARK    4  A    between atoms: O_6  and  C_7
REMARK    5  A    between atoms: C_11  and  C_12
REMARK    6  A    between atoms: C_18  and  C_19
REMARK    7  A    between atoms: C_19  and  O_21
REMARK    8  A    between atoms: C_24  and  C_25
REMARK                            x       y       z     vdW  Elec       q    Type
REMARK                         _______ _______ _______ _____ _____    ______ ____
ROOT
ATOM      1  C   UNL     1       1.774   8.564  19.306  0.00  0.00    +0.000 A 
ATOM      2  C   UNL     1       2.281   9.103  18.110  0.00  0.00    +0.000 A 
ATOM      3  C   UNL     1       3.150   8.370  17.320  0.00  0.00    +0.000 A 
ATOM      4  C   UNL     1       3.528   7.078  17.695  0.00  0.00    +0.000 A 
ATOM      5  C   UNL     1       3.012   6.487  18.870  0.00  0.00    +0.000 A 
ATOM      6  C   UNL     1       2.135   7.262  19.666  0.00  0.00    +0.000 A 
ENDROOT
BRANCH   5   7
ATOM      7  C   UNL     1       3.325   5.088  19.337  0.00  0.00    +0.000 C 
ATOM      8  O   UNL     1       4.284   4.969  20.089  0.00  0.00    +0.000 OA
ATOM      9  N   UNL     1       2.575   3.960  19.068  0.00  0.00    +0.000 N 
ATOM     10  C   UNL     1       1.282   3.899  18.417  0.00  0.00    +0.000 C 
ATOM     11  C   UNL     1       0.505   2.967  19.329  0.00  0.00    +0.000 C 
ATOM     12  C   UNL     1       1.539   1.888  19.593  0.00  0.00    +0.000 C 
ATOM     13  C   UNL     1       2.814   2.718  19.799  0.00  0.00    +0.000 C 
BRANCH  13  14
ATOM     14  C   UNL     1       4.053   1.985  19.336  0.00  0.00    +0.000 C 
ATOM     15  O   UNL     1       3.996   1.249  18.363  0.00  0.00    +0.000 OA
BRANCH  14  16
ATOM     16  O   UNL     1       5.226   2.125  19.987  0.00  0.00    +0.000 OA
ATOM     17  H   UNL     1       6.066   2.211  19.514  0.00  0.00    +0.000 HD
ENDBRANCH  14  16
ENDBRANCH  13  14
ENDBRANCH   5   7
BRANCH   1  18
ATOM     18  O   UNL     1       0.924   9.272  20.101  0.00  0.00    +0.000 OA
BRANCH  18  21
ATOM     19  C   UNL     1      -0.787  12.467  19.539  0.00  0.00    +0.000 A 
ATOM     20  C   UNL     1       0.144  11.534  20.030  0.00  0.00    +0.000 A 
ATOM     21  C   UNL     1       0.040  10.189  19.640  0.00  0.00    +0.000 A 
ATOM     22  N   UNL     1      -0.940   9.818  18.767  0.00  0.00    +0.000 NA
ATOM     23  C   UNL     1      -1.842  10.699  18.259  0.00  0.00    +0.000 A 
ATOM     24  C   UNL     1      -1.783  12.042  18.648  0.00  0.00    +0.000 A 
BRANCH  23  25
ATOM     25  C   UNL     1      -2.874  10.231  17.280  0.00  0.00    +0.000 C 
ATOM     26  F   UNL     1      -3.684   9.264  17.848  0.00  0.00    +0.000 F 
ATOM     27  F   UNL     1      -3.660  11.296  16.880  0.00  0.00    +0.000 F 
ATOM     28  F   UNL     1      -2.248   9.689  16.170  0.00  0.00    +0.000 F 
ENDBRANCH  23  25
BRANCH  19  29
ATOM     29  C   UNL     1      -0.721  13.916  19.941  0.00  0.00    +0.000 C 
BRANCH  29  30
ATOM     30  N   UNL     1      -0.649  14.762  18.758  0.00  0.00    +0.000 NA
ATOM     31  H   UNL     1      -1.621  14.961  18.426  0.00  0.00    +0.000 HD
ATOM     32  H   UNL     1      -0.150  14.245  17.997  0.00  0.00    +0.000 HD
ENDBRANCH  29  30
ENDBRANCH  19  29
ENDBRANCH  18  21
ENDBRANCH   1  18
TORSDOF 8
ENDMDL
