MODEL 1
REMARK VINA RESULT:      -9.4      0.000      0.000
REMARK  Name = 
REMARK  6 active torsions:
REMARK  status: ('A' for Active; 'I' for Inactive)
REMARK    1  A    between atoms: C_1  and  O_2
REMARK    2  A    between atoms: O_2  and  C_3
REMARK    3  A    between atoms: C_7  and  C_8
REMARK    4  A    between atoms: C_11  and  C_12
REMARK    5  A    between atoms: N_13  and  N_14
REMARK    6  A    between atoms: C_15  and  C_16
REMARK                            x       y       z     vdW  Elec       q    Type
REMARK                         _______ _______ _______ _____ _____    ______ ____
ROOT
ATOM      1  N   UNL     1       4.862   5.454  17.563  0.00  0.00    +0.000 N 
ATOM      2  C   UNL     1       3.499   5.538  17.327  0.00  0.00    +0.000 A 
ATOM      3  N   UNL     1       2.945   6.542  17.969  0.00  0.00    +0.000 NA
ATOM      4  C   UNL     1       3.000   6.266  19.377  0.00  0.00    +0.000 A 
ATOM      5  C   UNL     1       1.877   6.543  20.157  0.00  0.00    +0.000 A 
ATOM      6  C   UNL     1       1.526   5.654  21.171  0.00  0.00    +0.000 A 
ATOM      7  C   UNL     1       2.319   4.526  21.412  0.00  0.00    +0.000 A 
ATOM      8  C   UNL     1       3.567   4.384  20.783  0.00  0.00    +0.000 A 
ATOM      9  C   UNL     1       3.954   5.317  19.816  0.00  0.00    +0.000 A 
ATOM     10  C   UNL     1       5.142   5.101  18.888  0.00  0.00    +0.000 A 
ATOM     11  O   UNL     1       6.170   4.571  19.292  0.00  0.00    +0.000 OA
ENDROOT
BRANCH   1  17
ATOM     12  C   UNL     1       7.210   4.449  13.349  0.00  0.00    +0.000 C 
ATOM     13  C   UNL     1       6.830   4.888  14.553  0.00  0.00    +0.000 C 
ATOM     14  N   UNL     1       7.626   5.738  15.291  0.00  0.00    +0.000 NA
ATOM     15  C   UNL     1       6.966   5.941  16.394  0.00  0.00    +0.000 C 
ATOM     16  C   UNL     1       7.529   6.877  17.410  0.00  0.00    +0.000 C 
ATOM     17  N   UNL     1       5.795   5.274  16.512  0.00  0.00    +0.000 N 
ATOM     18  C   UNL     1       5.552   4.637  15.307  0.00  0.00    +0.000 C 
ATOM     19  O   UNL     1       4.552   4.077  14.908  0.00  0.00    +0.000 OA
BRANCH  12  24
ATOM     20  C   UNL     1       4.407   3.040  11.275  0.00  0.00    +0.000 A 
ATOM     21  C   UNL     1       4.970   1.828  10.867  0.00  0.00    +0.000 A 
ATOM     22  C   UNL     1       6.285   1.505  11.207  0.00  0.00    +0.000 A 
ATOM     23  C   UNL     1       7.030   2.376  12.002  0.00  0.00    +0.000 A 
ATOM     24  C   UNL     1       6.458   3.566  12.459  0.00  0.00    +0.000 A 
ATOM     25  C   UNL     1       5.164   3.917  12.052  0.00  0.00    +0.000 A 
BRANCH  20  27
ATOM     26  C   UNL     1       2.925   3.933   9.645  0.00  0.00    +0.000 C 
ATOM     27  O   UNL     1       3.114   3.239  10.873  0.00  0.00    +0.000 OA
ENDBRANCH  20  27
ENDBRANCH  12  24
ENDBRANCH   1  17
BRANCH   2  28
ATOM     28  C   UNL     1       2.779   4.147  17.344  0.00  0.00    +0.000 A 
ATOM     29  C   UNL     1       3.529   2.957  17.471  0.00  0.00    +0.000 A 
ATOM     30  C   UNL     1       2.965   1.791  17.991  0.00  0.00    +0.000 A 
ATOM     31  C   UNL     1       1.630   1.780  18.368  0.00  0.00    +0.000 A 
ATOM     32  C   UNL     1       0.849   2.921  18.183  0.00  0.00    +0.000 A 
ATOM     33  C   UNL     1       1.412   4.096  17.662  0.00  0.00    +0.000 A 
ENDBRANCH   2  28
TORSDOF 4
ENDMDL
MODEL 2
REMARK VINA RESULT:      -8.9      0.894      1.555
REMARK  Name = 
REMARK  6 active torsions:
REMARK  status: ('A' for Active; 'I' for Inactive)
REMARK    1  A    between atoms: C_1  and  O_2
REMARK    2  A    between atoms: O_2  and  C_3
REMARK    3  A    between atoms: C_7  and  C_8
REMARK    4  A    between atoms: C_11  and  C_12
REMARK    5  A    between atoms: N_13  and  N_14
REMARK    6  A    between atoms: C_15  and  C_16
REMARK                            x       y       z     vdW  Elec       q    Type
REMARK                         _______ _______ _______ _____ _____    ______ ____
ROOT
ATOM      1  N   UNL     1       4.809   5.421  17.602  0.00  0.00    +0.000 N 
ATOM      2  C   UNL     1       3.444   5.545  17.399  0.00  0.00    +0.000 A 
ATOM      3  N   UNL     1       2.932   6.555  18.068  0.00  0.00    +0.000 NA
ATOM      4  C   UNL     1       3.013   6.257  19.470  0.00  0.00    +0.000 A 
ATOM      5  C   UNL     1       1.917   6.554  20.281  0.00  0.00    +0.000 A 
ATOM      6  C   UNL     1       1.566   5.660  21.291  0.00  0.00    +0.000 A 
ATOM      7  C   UNL     1       2.333   4.508  21.497  0.00  0.00    +0.000 A 
ATOM      8  C   UNL     1       3.562   4.342  20.837  0.00  0.00    +0.000 A 
ATOM      9  C   UNL     1       3.951   5.277  19.874  0.00  0.00    +0.000 A 
ATOM     10  C   UNL     1       5.110   5.042  18.914  0.00  0.00    +0.000 A 
ATOM     11  O   UNL     1       6.132   4.478  19.286  0.00  0.00    +0.000 OA
ENDROOT
BRANCH   1  17
ATOM     12  C   UNL     1       7.030   4.399  13.324  0.00  0.00    +0.000 C 
ATOM     13  C   UNL     1       6.689   4.838  14.540  0.00  0.00    +0.000 C 
ATOM     14  N   UNL     1       7.519   5.669  15.261  0.00  0.00    +0.000 NA
ATOM     15  C   UNL     1       6.891   5.877  16.382  0.00  0.00    +0.000 C 
ATOM     16  C   UNL     1       7.497   6.797  17.388  0.00  0.00    +0.000 C 
ATOM     17  N   UNL     1       5.711   5.230  16.526  0.00  0.00    +0.000 N 
ATOM     18  C   UNL     1       5.426   4.604  15.325  0.00  0.00    +0.000 C 
ATOM     19  O   UNL     1       4.407   4.065  14.948  0.00  0.00    +0.000 OA
BRANCH  12  24
ATOM     20  C   UNL     1       6.028   1.486  11.165  0.00  0.00    +0.000 A 
ATOM     21  C   UNL     1       4.798   1.936  10.678  0.00  0.00    +0.000 A 
ATOM     22  C   UNL     1       4.265   3.152  11.108  0.00  0.00    +0.000 A 
ATOM     23  C   UNL     1       4.985   3.951  11.996  0.00  0.00    +0.000 A 
ATOM     24  C   UNL     1       6.240   3.534  12.448  0.00  0.00    +0.000 A 
ATOM     25  C   UNL     1       6.736   2.280  12.070  0.00  0.00    +0.000 A 
BRANCH  20  27
ATOM     26  C   UNL     1       6.020  -0.881  11.382  0.00  0.00    +0.000 C 
ATOM     27  O   UNL     1       6.438   0.278  10.670  0.00  0.00    +0.000 OA
ENDBRANCH  20  27
ENDBRANCH  12  24
ENDBRANCH   1  17
BRANCH   2  28
ATOM     28  C   UNL     1       2.686   4.174  17.416  0.00  0.00    +0.000 A 
ATOM     29  C   UNL     1       3.405   2.962  17.514  0.00  0.00    +0.000 A 
ATOM     30  C   UNL     1       2.820   1.806  18.032  0.00  0.00    +0.000 A 
ATOM     31  C   UNL     1       1.493   1.827  18.436  0.00  0.00    +0.000 A 
ATOM     32  C   UNL     1       0.740   2.991  18.278  0.00  0.00    +0.000 A 
ATOM     33  C   UNL     1       1.325   4.156  17.759  0.00  0.00    +0.000 A 
ENDBRANCH   2  28
TORSDOF 4
ENDMDL
MODEL 3
REMARK VINA RESULT:      -8.6      5.831      8.856
REMARK  Name = 
REMARK  6 active torsions:
REMARK  status: ('A' for Active; 'I' for Inactive)
REMARK    1  A    between atoms: C_1  and  O_2
REMARK    2  A    between atoms: O_2  and  C_3
REMARK    3  A    between atoms: C_7  and  C_8
REMARK    4  A    between atoms: C_11  and  C_12
REMARK    5  A    between atoms: N_13  and  N_14
REMARK    6  A    between atoms: C_15  and  C_16
REMARK                            x       y       z     vdW  Elec       q    Type
REMARK                         _______ _______ _______ _____ _____    ______ ____
ROOT
ATOM      1  N   UNL     1       0.436  11.504  20.052  0.00  0.00    +0.000 N 
ATOM      2  C   UNL     1      -0.517  12.279  19.411  0.00  0.00    +0.000 A 
ATOM      3  N   UNL     1      -0.530  13.517  19.854  0.00  0.00    +0.000 NA
ATOM      4  C   UNL     1      -0.997  13.508  21.212  0.00  0.00    +0.000 A 
ATOM      5  C   UNL     1      -1.906  14.488  21.613  0.00  0.00    +0.000 A 
ATOM      6  C   UNL     1      -2.945  14.132  22.471  0.00  0.00    +0.000 A 
ATOM      7  C   UNL     1      -3.038  12.816  22.941  0.00  0.00    +0.000 A 
ATOM      8  C   UNL     1      -1.991  11.905  22.723  0.00  0.00    +0.000 A 
ATOM      9  C   UNL     1      -0.911  12.285  21.921  0.00  0.00    +0.000 A 
ATOM     10  C   UNL     1       0.119  11.294  21.398  0.00  0.00    +0.000 A 
ATOM     11  O   UNL     1       0.513  10.367  22.096  0.00  0.00    +0.000 OA
ENDROOT
BRANCH   1  17
ATOM     12  C   UNL     1       2.803   7.765  17.883  0.00  0.00    +0.000 C 
ATOM     13  C   UNL     1       2.338   8.954  18.282  0.00  0.00    +0.000 C 
ATOM     14  N   UNL     1       2.782  10.127  17.711  0.00  0.00    +0.000 NA
ATOM     15  C   UNL     1       2.143  11.068  18.341  0.00  0.00    +0.000 C 
ATOM     16  C   UNL     1       2.352  12.486  17.924  0.00  0.00    +0.000 C 
ATOM     17  N   UNL     1       1.320  10.660  19.334  0.00  0.00    +0.000 N 
ATOM     18  C   UNL     1       1.286   9.277  19.309  0.00  0.00    +0.000 C 
ATOM     19  O   UNL     1       0.558   8.503  19.894  0.00  0.00    +0.000 OA
BRANCH  12  24
ATOM     20  C   UNL     1       2.281   4.862  20.216  0.00  0.00    +0.000 A 
ATOM     21  C   UNL     1       1.770   3.908  19.332  0.00  0.00    +0.000 A 
ATOM     22  C   UNL     1       1.528   4.233  17.997  0.00  0.00    +0.000 A 
ATOM     23  C   UNL     1       1.845   5.507  17.525  0.00  0.00    +0.000 A 
ATOM     24  C   UNL     1       2.405   6.452  18.388  0.00  0.00    +0.000 A 
ATOM     25  C   UNL     1       2.576   6.141  19.744  0.00  0.00    +0.000 A 
BRANCH  20  27
ATOM     26  C   UNL     1       2.100   3.071  21.769  0.00  0.00    +0.000 C 
ATOM     27  O   UNL     1       2.468   4.419  21.497  0.00  0.00    +0.000 OA
ENDBRANCH  20  27
ENDBRANCH  12  24
ENDBRANCH   1  17
BRANCH   2  28
ATOM     28  C   UNL     1      -1.884  11.541  19.208  0.00  0.00    +0.000 A 
ATOM     29  C   UNL     1      -3.100  12.254  19.295  0.00  0.00    +0.000 A 
ATOM     30  C   UNL     1      -4.255  11.810  18.649  0.00  0.00    +0.000 A 
ATOM     31  C   UNL     1      -4.228  10.627  17.925  0.00  0.00    +0.000 A 
ATOM     32  C   UNL     1      -3.059   9.866  17.886  0.00  0.00    +0.000 A 
ATOM     33  C   UNL     1      -1.895  10.310  18.533  0.00  0.00    +0.000 A 
ENDBRANCH   2  28
TORSDOF 4
ENDMDL
MODEL 4
REMARK VINA RESULT:      -8.5      6.126      8.932
REMARK  Name = 
REMARK  6 active torsions:
REMARK  status: ('A' for Active; 'I' for Inactive)
REMARK    1  A    between atoms: C_1  and  O_2
REMARK    2  A    between atoms: O_2  and  C_3
REMARK    3  A    between atoms: C_7  and  C_8
REMARK    4  A    between atoms: C_11  and  C_12
REMARK    5  A    between atoms: N_13  and  N_14
REMARK    6  A    between atoms: C_15  and  C_16
REMARK                            x       y       z     vdW  Elec       q    Type
REMARK                         _______ _______ _______ _____ _____    ______ ____
ROOT
ATOM      1  N   UNL     1       0.086  11.861  19.991  0.00  0.00    +0.000 N 
ATOM      2  C   UNL     1      -0.911  12.521  19.290  0.00  0.00    +0.000 A 
ATOM      3  N   UNL     1      -1.035  13.775  19.666  0.00  0.00    +0.000 NA
ATOM      4  C   UNL     1      -1.533  13.798  21.012  0.00  0.00    +0.000 A 
ATOM      5  C   UNL     1      -2.529  14.719  21.341  0.00  0.00    +0.000 A 
ATOM      6  C   UNL     1      -3.555  14.323  22.196  0.00  0.00    +0.000 A 
ATOM      7  C   UNL     1      -3.553  13.031  22.735  0.00  0.00    +0.000 A 
ATOM      8  C   UNL     1      -2.431  12.199  22.587  0.00  0.00    +0.000 A 
ATOM      9  C   UNL     1      -1.366  12.625  21.787  0.00  0.00    +0.000 A 
ATOM     10  C   UNL     1      -0.245  11.696  21.340  0.00  0.00    +0.000 A 
ATOM     11  O   UNL     1       0.205  10.842  22.095  0.00  0.00    +0.000 OA
ENDROOT
BRANCH   1  17
ATOM     12  C   UNL     1       2.786   8.225  18.050  0.00  0.00    +0.000 C 
ATOM     13  C   UNL     1       2.226   9.391  18.387  0.00  0.00    +0.000 C 
ATOM     14  N   UNL     1       2.611  10.572  17.790  0.00  0.00    +0.000 NA
ATOM     15  C   UNL     1       1.885  11.488  18.361  0.00  0.00    +0.000 C 
ATOM     16  C   UNL     1       2.012  12.901  17.900  0.00  0.00    +0.000 C 
ATOM     17  N   UNL     1       1.053  11.057  19.338  0.00  0.00    +0.000 N 
ATOM     18  C   UNL     1       1.114   9.675  19.362  0.00  0.00    +0.000 C 
ATOM     19  O   UNL     1       0.419   8.872  19.949  0.00  0.00    +0.000 OA
BRANCH  12  24
ATOM     20  C   UNL     1       1.867   4.582  18.219  0.00  0.00    +0.000 A 
ATOM     21  C   UNL     1       1.713   4.417  19.597  0.00  0.00    +0.000 A 
ATOM     22  C   UNL     1       1.977   5.471  20.473  0.00  0.00    +0.000 A 
ATOM     23  C   UNL     1       2.353   6.715  19.968  0.00  0.00    +0.000 A 
ATOM     24  C   UNL     1       2.460   6.905  18.588  0.00  0.00    +0.000 A 
ATOM     25  C   UNL     1       2.264   5.823  17.719  0.00  0.00    +0.000 A 
BRANCH  20  27
ATOM     26  C   UNL     1       2.304   2.287  17.780  0.00  0.00    +0.000 C 
ATOM     27  O   UNL     1       1.581   3.473  17.470  0.00  0.00    +0.000 OA
ENDBRANCH  20  27
ENDBRANCH  12  24
ENDBRANCH   1  17
BRANCH   2  28
ATOM     28  C   UNL     1      -2.208  11.663  19.099  0.00  0.00    +0.000 A 
ATOM     29  C   UNL     1      -3.481  12.271  19.161  0.00  0.00    +0.000 A 
ATOM     30  C   UNL     1      -4.588  11.714  18.520  0.00  0.00    +0.000 A 
ATOM     31  C   UNL     1      -4.454  10.519  17.828  0.00  0.00    +0.000 A 
ATOM     32  C   UNL     1      -3.224   9.860  17.816  0.00  0.00    +0.000 A 
ATOM     33  C   UNL     1      -2.108  10.419  18.457  0.00  0.00    +0.000 A 
ENDBRANCH   2  28
TORSDOF 4
ENDMDL
MODEL 5
REMARK VINA RESULT:      -8.2      3.848      7.941
REMARK  Name = 
REMARK  6 active torsions:
REMARK  status: ('A' for Active; 'I' for Inactive)
REMARK    1  A    between atoms: C_1  and  O_2
REMARK    2  A    between atoms: O_2  and  C_3
REMARK    3  A    between atoms: C_7  and  C_8
REMARK    4  A    between atoms: C_11  and  C_12
REMARK    5  A    between atoms: N_13  and  N_14
REMARK    6  A    between atoms: C_15  and  C_16
REMARK                            x       y       z     vdW  Elec       q    Type
REMARK                         _______ _______ _______ _____ _____    ______ ____
ROOT
ATOM      1  N   UNL     1       3.736   6.642  18.870  0.00  0.00    +0.000 N 
ATOM      2  C   UNL     1       4.301   5.414  19.175  0.00  0.00    +0.000 A 
ATOM      3  N   UNL     1       5.615   5.459  19.177  0.00  0.00    +0.000 NA
ATOM      4  C   UNL     1       6.063   5.683  17.832  0.00  0.00    +0.000 A 
ATOM      5  C   UNL     1       7.157   4.955  17.362  0.00  0.00    +0.000 A 
ATOM      6  C   UNL     1       7.139   4.487  16.049  0.00  0.00    +0.000 A 
ATOM      7  C   UNL     1       6.051   4.785  15.220  0.00  0.00    +0.000 A 
ATOM      8  C   UNL     1       5.077   5.711  15.626  0.00  0.00    +0.000 A 
ATOM      9  C   UNL     1       5.133   6.237  16.920  0.00  0.00    +0.000 A 
ATOM     10  C   UNL     1       3.985   7.017  17.546  0.00  0.00    +0.000 A 
ATOM     11  O   UNL     1       3.318   7.800  16.880  0.00  0.00    +0.000 OA
ENDROOT
BRANCH   1  17
ATOM     12  C   UNL     1      -0.094   9.198  20.625  0.00  0.00    +0.000 C 
ATOM     13  C   UNL     1       0.870   8.306  20.377  0.00  0.00    +0.000 C 
ATOM     14  N   UNL     1       0.980   7.146  21.114  0.00  0.00    +0.000 NA
ATOM     15  C   UNL     1       2.018   6.535  20.622  0.00  0.00    +0.000 C 
ATOM     16  C   UNL     1       2.391   5.195  21.163  0.00  0.00    +0.000 C 
ATOM     17  N   UNL     1       2.670   7.185  19.630  0.00  0.00    +0.000 N 
ATOM     18  C   UNL     1       1.933   8.312  19.312  0.00  0.00    +0.000 C 
ATOM     19  O   UNL     1       2.046   9.082  18.381  0.00  0.00    +0.000 OA
BRANCH  12  24
ATOM     20  C   UNL     1      -1.425  11.661  18.114  0.00  0.00    +0.000 A 
ATOM     21  C   UNL     1      -0.704  12.805  18.465  0.00  0.00    +0.000 A 
ATOM     22  C   UNL     1       0.159  12.792  19.562  0.00  0.00    +0.000 A 
ATOM     23  C   UNL     1       0.343  11.615  20.287  0.00  0.00    +0.000 A 
ATOM     24  C   UNL     1      -0.335  10.452  19.912  0.00  0.00    +0.000 A 
ATOM     25  C   UNL     1      -1.255  10.492  18.856  0.00  0.00    +0.000 A 
BRANCH  20  27
ATOM     26  C   UNL     1      -2.537  10.625  16.287  0.00  0.00    +0.000 C 
ATOM     27  O   UNL     1      -2.240  11.806  17.024  0.00  0.00    +0.000 OA
ENDBRANCH  20  27
ENDBRANCH  12  24
ENDBRANCH   1  17
BRANCH   2  28
ATOM     28  C   UNL     1       3.593   4.211  18.464  0.00  0.00    +0.000 A 
ATOM     29  C   UNL     1       4.048   2.890  18.674  0.00  0.00    +0.000 A 
ATOM     30  C   UNL     1       3.202   1.792  18.509  0.00  0.00    +0.000 A 
ATOM     31  C   UNL     1       1.891   1.987  18.101  0.00  0.00    +0.000 A 
ATOM     32  C   UNL     1       1.440   3.276  17.813  0.00  0.00    +0.000 A 
ATOM     33  C   UNL     1       2.286   4.383  17.980  0.00  0.00    +0.000 A 
ENDBRANCH   2  28
TORSDOF 4
ENDMDL
MODEL 6
REMARK VINA RESULT:      -8.2      5.326      8.251
REMARK  Name = 
REMARK  6 active torsions:
REMARK  status: ('A' for Active; 'I' for Inactive)
REMARK    1  A    between atoms: C_1  and  O_2
REMARK    2  A    between atoms: O_2  and  C_3
REMARK    3  A    between atoms: C_7  and  C_8
REMARK    4  A    between atoms: C_11  and  C_12
REMARK    5  A    between atoms: N_13  and  N_14
REMARK    6  A    between atoms: C_15  and  C_16
REMARK                            x       y       z     vdW  Elec       q    Type
REMARK                         _______ _______ _______ _____ _____    ______ ____
ROOT
ATOM      1  N   UNL     1       0.847  10.904  20.227  0.00  0.00    +0.000 N 
ATOM      2  C   UNL     1      -0.027  11.884  19.785  0.00  0.00    +0.000 A 
ATOM      3  N   UNL     1       0.082  12.996  20.479  0.00  0.00    +0.000 NA
ATOM      4  C   UNL     1      -0.382  12.744  21.814  0.00  0.00    +0.000 A 
ATOM      5  C   UNL     1      -1.191  13.700  22.432  0.00  0.00    +0.000 A 
ATOM      6  C   UNL     1      -2.258  13.271  23.219  0.00  0.00    +0.000 A 
ATOM      7  C   UNL     1      -2.478  11.901  23.404  0.00  0.00    +0.000 A 
ATOM      8  C   UNL     1      -1.526  10.961  22.976  0.00  0.00    +0.000 A 
ATOM      9  C   UNL     1      -0.415  11.397  22.248  0.00  0.00    +0.000 A 
ATOM     10  C   UNL     1       0.513  10.445  21.506  0.00  0.00    +0.000 A 
ATOM     11  O   UNL     1       0.815   9.358  21.984  0.00  0.00    +0.000 OA
ENDROOT
BRANCH   1  17
ATOM     12  C   UNL     1       3.062   7.416  17.542  0.00  0.00    +0.000 C 
ATOM     13  C   UNL     1       2.581   8.553  18.054  0.00  0.00    +0.000 C 
ATOM     14  N   UNL     1       2.797   9.767  17.437  0.00  0.00    +0.000 NA
ATOM     15  C   UNL     1       2.215  10.641  18.205  0.00  0.00    +0.000 C 
ATOM     16  C   UNL     1       2.209  12.074  17.791  0.00  0.00    +0.000 C 
ATOM     17  N   UNL     1       1.643  10.151  19.329  0.00  0.00    +0.000 N 
ATOM     18  C   UNL     1       1.727   8.770  19.275  0.00  0.00    +0.000 C 
ATOM     19  O   UNL     1       1.201   7.928  19.972  0.00  0.00    +0.000 OA
BRANCH  12  24
ATOM     20  C   UNL     1       3.805   4.148  19.247  0.00  0.00    +0.000 A 
ATOM     21  C   UNL     1       2.619   3.451  19.002  0.00  0.00    +0.000 A 
ATOM     22  C   UNL     1       1.555   4.070  18.345  0.00  0.00    +0.000 A 
ATOM     23  C   UNL     1       1.689   5.380  17.887  0.00  0.00    +0.000 A 
ATOM     24  C   UNL     1       2.890   6.068  18.081  0.00  0.00    +0.000 A 
ATOM     25  C   UNL     1       3.928   5.466  18.805  0.00  0.00    +0.000 A 
BRANCH  20  27
ATOM     26  C   UNL     1       4.546   2.032  20.039  0.00  0.00    +0.000 C 
ATOM     27  O   UNL     1       4.770   3.431  19.902  0.00  0.00    +0.000 OA
ENDBRANCH  20  27
ENDBRANCH  12  24
ENDBRANCH   1  17
BRANCH   2  28
ATOM     28  C   UNL     1      -1.460  11.340  19.461  0.00  0.00    +0.000 A 
ATOM     29  C   UNL     1      -2.585  12.188  19.559  0.00  0.00    +0.000 A 
ATOM     30  C   UNL     1      -3.748  11.944  18.829  0.00  0.00    +0.000 A 
ATOM     31  C   UNL     1      -3.825  10.830  18.006  0.00  0.00    +0.000 A 
ATOM     32  C   UNL     1      -2.755   9.936  17.951  0.00  0.00    +0.000 A 
ATOM     33  C   UNL     1      -1.583  10.178  18.682  0.00  0.00    +0.000 A 
ENDBRANCH   2  28
TORSDOF 4
ENDMDL
MODEL 7
REMARK VINA RESULT:      -8.1      1.331      2.752
REMARK  Name = 
REMARK  6 active torsions:
REMARK  status: ('A' for Active; 'I' for Inactive)
REMARK    1  A    between atoms: C_1  and  O_2
REMARK    2  A    between atoms: O_2  and  C_3
REMARK    3  A    between atoms: C_7  and  C_8
REMARK    4  A    between atoms: C_11  and  C_12
REMARK    5  A    between atoms: N_13  and  N_14
REMARK    6  A    between atoms: C_15  and  C_16
REMARK                            x       y       z     vdW  Elec       q    Type
REMARK                         _______ _______ _______ _____ _____    ______ ____
ROOT
ATOM      1  N   UNL     1       4.724   4.029  18.050  0.00  0.00    +0.000 N 
ATOM      2  C   UNL     1       4.516   4.903  19.105  0.00  0.00    +0.000 A 
ATOM      3  N   UNL     1       4.561   4.295  20.270  0.00  0.00    +0.000 NA
ATOM      4  C   UNL     1       3.430   3.416  20.366  0.00  0.00    +0.000 A 
ATOM      5  C   UNL     1       2.725   3.363  21.570  0.00  0.00    +0.000 A 
ATOM      6  C   UNL     1       1.336   3.266  21.532  0.00  0.00    +0.000 A 
ATOM      7  C   UNL     1       0.678   3.188  20.299  0.00  0.00    +0.000 A 
ATOM      8  C   UNL     1       1.406   3.004  19.112  0.00  0.00    +0.000 A 
ATOM      9  C   UNL     1       2.803   3.029  19.158  0.00  0.00    +0.000 A 
ATOM     10  C   UNL     1       3.669   3.121  17.909  0.00  0.00    +0.000 A 
ATOM     11  O   UNL     1       3.364   2.523  16.884  0.00  0.00    +0.000 OA
ENDROOT
BRANCH   1  17
ATOM     12  C   UNL     1       7.049   4.596  13.742  0.00  0.00    +0.000 C 
ATOM     13  C   UNL     1       6.624   4.656  15.009  0.00  0.00    +0.000 C 
ATOM     14  N   UNL     1       7.200   5.516  15.919  0.00  0.00    +0.000 NA
ATOM     15  C   UNL     1       6.564   5.298  17.033  0.00  0.00    +0.000 C 
ATOM     16  C   UNL     1       6.906   6.119  18.231  0.00  0.00    +0.000 C 
ATOM     17  N   UNL     1       5.619   4.331  16.993  0.00  0.00    +0.000 N 
ATOM     18  C   UNL     1       5.496   3.917  15.678  0.00  0.00    +0.000 C 
ATOM     19  O   UNL     1       4.664   3.204  15.158  0.00  0.00    +0.000 OA
BRANCH  12  24
ATOM     20  C   UNL     1       4.648   3.038  11.302  0.00  0.00    +0.000 A 
ATOM     21  C   UNL     1       5.458   2.051  10.736  0.00  0.00    +0.000 A 
ATOM     22  C   UNL     1       6.802   1.941  11.096  0.00  0.00    +0.000 A 
ATOM     23  C   UNL     1       7.332   2.792  12.066  0.00  0.00    +0.000 A 
ATOM     24  C   UNL     1       6.517   3.748  12.676  0.00  0.00    +0.000 A 
ATOM     25  C   UNL     1       5.189   3.901  12.257  0.00  0.00    +0.000 A 
BRANCH  20  27
ATOM     26  C   UNL     1       3.028   3.976   9.837  0.00  0.00    +0.000 C 
ATOM     27  O   UNL     1       3.352   3.043  10.862  0.00  0.00    +0.000 OA
ENDBRANCH  20  27
ENDBRANCH  12  24
ENDBRANCH   1  17
BRANCH   2  28
ATOM     28  C   UNL     1       3.366   5.934  18.841  0.00  0.00    +0.000 A 
ATOM     29  C   UNL     1       2.601   6.439  19.915  0.00  0.00    +0.000 A 
ATOM     30  C   UNL     1       1.954   7.673  19.834  0.00  0.00    +0.000 A 
ATOM     31  C   UNL     1       2.034   8.417  18.665  0.00  0.00    +0.000 A 
ATOM     32  C   UNL     1       2.721   7.905  17.564  0.00  0.00    +0.000 A 
ATOM     33  C   UNL     1       3.374   6.666  17.643  0.00  0.00    +0.000 A 
ENDBRANCH   2  28
TORSDOF 4
ENDMDL
MODEL 8
REMARK VINA RESULT:      -8.0      4.055      8.249
REMARK  Name = 
REMARK  6 active torsions:
REMARK  status: ('A' for Active; 'I' for Inactive)
REMARK    1  A    between atoms: C_1  and  O_2
REMARK    2  A    between atoms: O_2  and  C_3
REMARK    3  A    between atoms: C_7  and  C_8
REMARK    4  A    between atoms: C_11  and  C_12
REMARK    5  A    between atoms: N_13  and  N_14
REMARK    6  A    between atoms: C_15  and  C_16
REMARK                            x       y       z     vdW  Elec       q    Type
REMARK                         _______ _______ _______ _____ _____    ______ ____
ROOT
ATOM      1  N   UNL     1       3.741   6.695  18.812  0.00  0.00    +0.000 N 
ATOM      2  C   UNL     1       4.264   5.461  19.164  0.00  0.00    +0.000 A 
ATOM      3  N   UNL     1       5.579   5.467  19.187  0.00  0.00    +0.000 NA
ATOM      4  C   UNL     1       6.055   5.635  17.843  0.00  0.00    +0.000 A 
ATOM      5  C   UNL     1       7.134   4.860  17.414  0.00  0.00    +0.000 A 
ATOM      6  C   UNL     1       7.122   4.352  16.116  0.00  0.00    +0.000 A 
ATOM      7  C   UNL     1       6.057   4.655  15.260  0.00  0.00    +0.000 A 
ATOM      8  C   UNL     1       5.104   5.621  15.622  0.00  0.00    +0.000 A 
ATOM      9  C   UNL     1       5.156   6.187  16.899  0.00  0.00    +0.000 A 
ATOM     10  C   UNL     1       4.022   7.020  17.481  0.00  0.00    +0.000 A 
ATOM     11  O   UNL     1       3.389   7.801  16.780  0.00  0.00    +0.000 OA
ENDROOT
BRANCH   1  17
ATOM     12  C   UNL     1      -0.030   9.424  20.427  0.00  0.00    +0.000 C 
ATOM     13  C   UNL     1       0.906   8.493  20.220  0.00  0.00    +0.000 C 
ATOM     14  N   UNL     1       0.962   7.348  20.986  0.00  0.00    +0.000 NA
ATOM     15  C   UNL     1       1.987   6.690  20.530  0.00  0.00    +0.000 C 
ATOM     16  C   UNL     1       2.302   5.352  21.111  0.00  0.00    +0.000 C 
ATOM     17  N   UNL     1       2.681   7.292  19.537  0.00  0.00    +0.000 N 
ATOM     18  C   UNL     1       1.990   8.437  19.177  0.00  0.00    +0.000 C 
ATOM     19  O   UNL     1       2.148   9.179  18.231  0.00  0.00    +0.000 OA
BRANCH  12  24
ATOM     20  C   UNL     1       0.354  12.999  19.325  0.00  0.00    +0.000 A 
ATOM     21  C   UNL     1      -0.641  13.078  18.347  0.00  0.00    +0.000 A 
ATOM     22  C   UNL     1      -1.386  11.950  17.999  0.00  0.00    +0.000 A 
ATOM     23  C   UNL     1      -1.170  10.743  18.664  0.00  0.00    +0.000 A 
ATOM     24  C   UNL     1      -0.213  10.668  19.679  0.00  0.00    +0.000 A 
ATOM     25  C   UNL     1       0.581  11.784  19.973  0.00  0.00    +0.000 A 
BRANCH  20  27
ATOM     26  C   UNL     1       0.401  15.364  19.093  0.00  0.00    +0.000 C 
ATOM     27  O   UNL     1       1.014  14.173  19.571  0.00  0.00    +0.000 OA
ENDBRANCH  20  27
ENDBRANCH  12  24
ENDBRANCH   1  17
BRANCH   2  28
ATOM     28  C   UNL     1       3.532   4.257  18.480  0.00  0.00    +0.000 A 
ATOM     29  C   UNL     1       3.977   2.934  18.698  0.00  0.00    +0.000 A 
ATOM     30  C   UNL     1       3.117   1.843  18.560  0.00  0.00    +0.000 A 
ATOM     31  C   UNL     1       1.801   2.048  18.172  0.00  0.00    +0.000 A 
ATOM     32  C   UNL     1       1.359   3.338  17.877  0.00  0.00    +0.000 A 
ATOM     33  C   UNL     1       2.219   4.438  18.016  0.00  0.00    +0.000 A 
ENDBRANCH   2  28
TORSDOF 4
ENDMDL
MODEL 9
REMARK VINA RESULT:      -7.7      8.787     12.248
REMARK  Name = 
REMARK  6 active torsions:
REMARK  status: ('A' for Active; 'I' for Inactive)
REMARK    1  A    between atoms: C_1  and  O_2
REMARK    2  A    between atoms: O_2  and  C_3
REMARK    3  A    between atoms: C_7  and  C_8
REMARK    4  A    between atoms: C_11  and  C_12
REMARK    5  A    between atoms: N_13  and  N_14
REMARK    6  A    between atoms: C_15  and  C_16
REMARK                            x       y       z     vdW  Elec       q    Type
REMARK                         _______ _______ _______ _____ _____    ______ ____
ROOT
ATOM      1  N   UNL     1       0.510  12.447  19.842  0.00  0.00    +0.000 N 
ATOM      2  C   UNL     1       1.454  13.194  19.156  0.00  0.00    +0.000 A 
ATOM      3  N   UNL     1       2.641  13.133  19.719  0.00  0.00    +0.000 NA
ATOM      4  C   UNL     1       2.575  13.803  20.988  0.00  0.00    +0.000 A 
ATOM      5  C   UNL     1       3.627  14.644  21.355  0.00  0.00    +0.000 A 
ATOM      6  C   UNL     1       3.335  15.837  22.014  0.00  0.00    +0.000 A 
ATOM      7  C   UNL     1       2.007  16.152  22.326  0.00  0.00    +0.000 A 
ATOM      8  C   UNL     1       0.991  15.196  22.166  0.00  0.00    +0.000 A 
ATOM      9  C   UNL     1       1.295  13.969  21.570  0.00  0.00    +0.000 A 
ATOM     10  C   UNL     1       0.228  12.990  21.100  0.00  0.00    +0.000 A 
ATOM     11  O   UNL     1      -0.799  12.818  21.746  0.00  0.00    +0.000 OA
ENDROOT
BRANCH   1  17
ATOM     12  C   UNL     1      -3.278  10.248  17.584  0.00  0.00    +0.000 C 
ATOM     13  C   UNL     1      -2.087  10.610  18.071  0.00  0.00    +0.000 C 
ATOM     14  N   UNL     1      -0.945   9.896  17.778  0.00  0.00    +0.000 NA
ATOM     15  C   UNL     1       0.006  10.508  18.421  0.00  0.00    +0.000 C 
ATOM     16  C   UNL     1       1.408  10.019  18.274  0.00  0.00    +0.000 C 
ATOM     17  N   UNL     1      -0.376  11.566  19.174  0.00  0.00    +0.000 N 
ATOM     18  C   UNL     1      -1.719  11.792  18.928  0.00  0.00    +0.000 C 
ATOM     19  O   UNL     1      -2.425  12.726  19.246  0.00  0.00    +0.000 OA
BRANCH  12  24
ATOM     20  C   UNL     1      -6.620  11.148  19.054  0.00  0.00    +0.000 A 
ATOM     21  C   UNL     1      -7.052  12.115  18.143  0.00  0.00    +0.000 A 
ATOM     22  C   UNL     1      -6.227  12.523  17.094  0.00  0.00    +0.000 A 
ATOM     23  C   UNL     1      -4.977  11.929  16.923  0.00  0.00    +0.000 A 
ATOM     24  C   UNL     1      -4.557  10.924  17.799  0.00  0.00    +0.000 A 
ATOM     25  C   UNL     1      -5.360  10.571  18.891  0.00  0.00    +0.000 A 
BRANCH  20  27
ATOM     26  C   UNL     1      -7.596   9.474  20.430  0.00  0.00    +0.000 C 
ATOM     27  O   UNL     1      -7.521  10.839  20.037  0.00  0.00    +0.000 OA
ENDBRANCH  20  27
ENDBRANCH  12  24
ENDBRANCH   1  17
BRANCH   2  28
ATOM     28  C   UNL     1       0.919  14.589  18.683  0.00  0.00    +0.000 A 
ATOM     29  C   UNL     1      -0.410  14.975  18.963  0.00  0.00    +0.000 A 
ATOM     30  C   UNL     1      -0.779  16.319  19.036  0.00  0.00    +0.000 A 
ATOM     31  C   UNL     1       0.166  17.307  18.801  0.00  0.00    +0.000 A 
ATOM     32  C   UNL     1       1.468  16.950  18.448  0.00  0.00    +0.000 A 
ATOM     33  C   UNL     1       1.844  15.600  18.376  0.00  0.00    +0.000 A 
ENDBRANCH   2  28
TORSDOF 4
ENDMDL
