MODEL 1
REMARK VINA RESULT:      -7.4      0.000      0.000
REMARK  Name = 
REMARK  6 active torsions:
REMARK  status: ('A' for Active; 'I' for Inactive)
REMARK    1  A    between atoms: C_1  and  C_2
REMARK    2  A    between atoms: C_4  and  C_5
REMARK    3  A    between atoms: C_11  and  C_12
REMARK    4  A    between atoms: C_17  and  C_18
REMARK    5  A    between atoms: C_17  and  C_19
REMARK    6  A    between atoms: C_19  and  O_21
REMARK                            x       y       z     vdW  Elec       q    Type
REMARK                         _______ _______ _______ _____ _____    ______ ____
ROOT
ATOM      1  C   UNL     1       2.808   5.115  17.844  0.00  0.00    +0.000 C 
ATOM      2  O   UNL     1       1.988   4.287  17.455  0.00  0.00    +0.000 OA
ATOM      3  N   UNL     1       4.114   5.157  17.349  0.00  0.00    +0.000 N 
ATOM      4  C   UNL     1       4.526   4.286  16.266  0.00  0.00    +0.000 C 
ATOM      5  C   UNL     1       5.988   3.973  16.554  0.00  0.00    +0.000 C 
ATOM      6  C   UNL     1       6.524   5.217  17.278  0.00  0.00    +0.000 C 
ATOM      7  C   UNL     1       7.094   6.251  16.294  0.00  0.00    +0.000 C 
ATOM      8  C   UNL     1       5.274   5.760  18.006  0.00  0.00    +0.000 C 
ENDROOT
BRANCH   1  15
ATOM      9  C   UNL     1       2.019   4.426  20.712  0.00  0.00    +0.000 C 
ATOM     10  C   UNL     1       2.023   5.819  20.157  0.00  0.00    +0.000 A 
ATOM     11  N   UNL     1       1.593   6.768  21.044  0.00  0.00    +0.000 NA
ATOM     12  C   UNL     1       1.486   8.064  20.638  0.00  0.00    +0.000 A 
ATOM     13  C   UNL     1       1.785   8.439  19.333  0.00  0.00    +0.000 A 
ATOM     14  C   UNL     1       2.200   7.462  18.430  0.00  0.00    +0.000 A 
ATOM     15  C   UNL     1       2.368   6.140  18.842  0.00  0.00    +0.000 A 
BRANCH  12  16
ATOM     16  C   UNL     1       1.008   9.126  21.619  0.00  0.00    +0.000 C 
ATOM     17  F   UNL     1      -0.272   8.959  22.058  0.00  0.00    +0.000 F 
ATOM     18  F   UNL     1       1.784   9.181  22.742  0.00  0.00    +0.000 F 
ATOM     19  F   UNL     1       1.056  10.382  21.086  0.00  0.00    +0.000 F 
ENDBRANCH  12  16
ENDBRANCH   1  15
BRANCH   6  20
ATOM     20  C   UNL     1       7.591   4.873  18.306  0.00  0.00    +0.000 C 
ATOM     21  O   UNL     1       7.660   5.364  19.422  0.00  0.00    +0.000 OA
BRANCH  20  22
ATOM     22  O   UNL     1       8.518   3.990  17.870  0.00  0.00    +0.000 OA
ATOM     23  H   UNL     1       8.360   3.617  16.985  0.00  0.00    +0.000 HD
ENDBRANCH  20  22
ENDBRANCH   6  20
TORSDOF 4
ENDMDL
MODEL 2
REMARK VINA RESULT:      -7.1      1.297      1.637
REMARK  Name = 
REMARK  6 active torsions:
REMARK  status: ('A' for Active; 'I' for Inactive)
REMARK    1  A    between atoms: C_1  and  C_2
REMARK    2  A    between atoms: C_4  and  C_5
REMARK    3  A    between atoms: C_11  and  C_12
REMARK    4  A    between atoms: C_17  and  C_18
REMARK    5  A    between atoms: C_17  and  C_19
REMARK    6  A    between atoms: C_19  and  O_21
REMARK                            x       y       z     vdW  Elec       q    Type
REMARK                         _______ _______ _______ _____ _____    ______ ____
ROOT
ATOM      1  C   UNL     1       2.970   5.795  17.931  0.00  0.00    +0.000 C 
ATOM      2  O   UNL     1       2.230   4.854  17.657  0.00  0.00    +0.000 OA
ATOM      3  N   UNL     1       4.338   5.775  17.640  0.00  0.00    +0.000 N 
ATOM      4  C   UNL     1       4.922   4.676  16.897  0.00  0.00    +0.000 C 
ATOM      5  C   UNL     1       6.325   4.524  17.469  0.00  0.00    +0.000 C 
ATOM      6  C   UNL     1       6.728   5.938  17.911  0.00  0.00    +0.000 C 
ATOM      7  C   UNL     1       7.433   6.711  16.785  0.00  0.00    +0.000 C 
ATOM      8  C   UNL     1       5.375   6.586  18.278  0.00  0.00    +0.000 C 
ENDROOT
BRANCH   1  15
ATOM      9  C   UNL     1       2.013   5.910  20.828  0.00  0.00    +0.000 C 
ATOM     10  C   UNL     1       1.948   7.069  19.879  0.00  0.00    +0.000 A 
ATOM     11  N   UNL     1       1.372   8.189  20.414  0.00  0.00    +0.000 NA
ATOM     12  C   UNL     1       1.194   9.289  19.631  0.00  0.00    +0.000 A 
ATOM     13  C   UNL     1       1.564   9.289  18.291  0.00  0.00    +0.000 A 
ATOM     14  C   UNL     1       2.129   8.136  17.748  0.00  0.00    +0.000 A 
ATOM     15  C   UNL     1       2.370   7.020  18.548  0.00  0.00    +0.000 A 
BRANCH  12  16
ATOM     16  C   UNL     1       0.554  10.539  20.218  0.00  0.00    +0.000 C 
ATOM     17  F   UNL     1       0.601  10.615  21.579  0.00  0.00    +0.000 F 
ATOM     18  F   UNL     1       1.139  11.685  19.761  0.00  0.00    +0.000 F 
ATOM     19  F   UNL     1      -0.766  10.650  19.886  0.00  0.00    +0.000 F 
ENDBRANCH  12  16
ENDBRANCH   1  15
BRANCH   6  20
ATOM     20  C   UNL     1       7.627   5.926  19.138  0.00  0.00    +0.000 C 
ATOM     21  O   UNL     1       7.511   5.146  20.071  0.00  0.00    +0.000 OA
BRANCH  20  22
ATOM     22  O   UNL     1       8.565   6.899  19.151  0.00  0.00    +0.000 OA
ATOM     23  H   UNL     1       9.413   6.671  18.729  0.00  0.00    +0.000 HD
ENDBRANCH  20  22
ENDBRANCH   6  20
TORSDOF 4
ENDMDL
MODEL 3
REMARK VINA RESULT:      -7.0      0.819      1.276
REMARK  Name = 
REMARK  6 active torsions:
REMARK  status: ('A' for Active; 'I' for Inactive)
REMARK    1  A    between atoms: C_1  and  C_2
REMARK    2  A    between atoms: C_4  and  C_5
REMARK    3  A    between atoms: C_11  and  C_12
REMARK    4  A    between atoms: C_17  and  C_18
REMARK    5  A    between atoms: C_17  and  C_19
REMARK    6  A    between atoms: C_19  and  O_21
REMARK                            x       y       z     vdW  Elec       q    Type
REMARK                         _______ _______ _______ _____ _____    ______ ____
ROOT
ATOM      1  C   UNL     1       3.284   5.426  17.956  0.00  0.00    +0.000 C 
ATOM      2  O   UNL     1       2.658   4.468  17.510  0.00  0.00    +0.000 OA
ATOM      3  N   UNL     1       4.605   5.690  17.580  0.00  0.00    +0.000 N 
ATOM      4  C   UNL     1       5.258   4.898  16.558  0.00  0.00    +0.000 C 
ATOM      5  C   UNL     1       6.719   4.842  16.983  0.00  0.00    +0.000 C 
ATOM      6  C   UNL     1       6.965   6.164  17.727  0.00  0.00    +0.000 C 
ATOM      7  C   UNL     1       7.439   7.276  16.778  0.00  0.00    +0.000 C 
ATOM      8  C   UNL     1       5.578   6.487  18.327  0.00  0.00    +0.000 C 
ENDROOT
BRANCH   1  15
ATOM      9  C   UNL     1       2.314   4.611  20.734  0.00  0.00    +0.000 C 
ATOM     10  C   UNL     1       2.157   5.989  20.164  0.00  0.00    +0.000 A 
ATOM     11  N   UNL     1       1.491   6.855  20.987  0.00  0.00    +0.000 NA
ATOM     12  C   UNL     1       1.226   8.119  20.556  0.00  0.00    +0.000 A 
ATOM     13  C   UNL     1       1.598   8.542  19.285  0.00  0.00    +0.000 A 
ATOM     14  C   UNL     1       2.255   7.646  18.444  0.00  0.00    +0.000 A 
ATOM     15  C   UNL     1       2.585   6.366  18.888  0.00  0.00    +0.000 A 
BRANCH  12  16
ATOM     16  C   UNL     1       0.485   9.089  21.467  0.00  0.00    +0.000 C 
ATOM     17  F   UNL     1       0.188  10.291  20.895  0.00  0.00    +0.000 F 
ATOM     18  F   UNL     1      -0.705   8.581  21.906  0.00  0.00    +0.000 F 
ATOM     19  F   UNL     1       1.193   9.381  22.598  0.00  0.00    +0.000 F 
ENDBRANCH  12  16
ENDBRANCH   1  15
BRANCH   6  20
ATOM     20  C   UNL     1       7.975   6.012  18.854  0.00  0.00    +0.000 C 
ATOM     21  O   UNL     1       8.176   4.975  19.468  0.00  0.00    +0.000 OA
BRANCH  20  22
ATOM     22  O   UNL     1       8.625   7.153  19.176  0.00  0.00    +0.000 OA
ATOM     23  H   UNL     1       9.322   7.429  18.554  0.00  0.00    +0.000 HD
ENDBRANCH  20  22
ENDBRANCH   6  20
TORSDOF 4
ENDMDL
MODEL 4
REMARK VINA RESULT:      -7.0      3.969      6.095
REMARK  Name = 
REMARK  6 active torsions:
REMARK  status: ('A' for Active; 'I' for Inactive)
REMARK    1  A    between atoms: C_1  and  C_2
REMARK    2  A    between atoms: C_4  and  C_5
REMARK    3  A    between atoms: C_11  and  C_12
REMARK    4  A    between atoms: C_17  and  C_18
REMARK    5  A    between atoms: C_17  and  C_19
REMARK    6  A    between atoms: C_19  and  O_21
REMARK                            x       y       z     vdW  Elec       q    Type
REMARK                         _______ _______ _______ _____ _____    ______ ____
ROOT
ATOM      1  C   UNL     1       5.280   4.065  17.165  0.00  0.00    +0.000 C 
ATOM      2  O   UNL     1       5.440   3.485  16.095  0.00  0.00    +0.000 OA
ATOM      3  N   UNL     1       4.451   3.556  18.170  0.00  0.00    +0.000 N 
ATOM      4  C   UNL     1       3.826   2.257  18.029  0.00  0.00    +0.000 C 
ATOM      5  C   UNL     1       2.486   2.391  18.737  0.00  0.00    +0.000 C 
ATOM      6  C   UNL     1       2.728   3.421  19.851  0.00  0.00    +0.000 C 
ATOM      7  C   UNL     1       3.182   2.753  21.159  0.00  0.00    +0.000 C 
ATOM      8  C   UNL     1       3.838   4.317  19.259  0.00  0.00    +0.000 C 
ENDROOT
BRANCH   1  15
ATOM      9  C   UNL     1       4.735   6.669  15.667  0.00  0.00    +0.000 C 
ATOM     10  C   UNL     1       5.778   6.521  16.735  0.00  0.00    +0.000 A 
ATOM     11  N   UNL     1       6.509   7.656  16.955  0.00  0.00    +0.000 NA
ATOM     12  C   UNL     1       7.532   7.630  17.853  0.00  0.00    +0.000 A 
ATOM     13  C   UNL     1       7.864   6.465  18.536  0.00  0.00    +0.000 A 
ATOM     14  C   UNL     1       7.129   5.307  18.289  0.00  0.00    +0.000 A 
ATOM     15  C   UNL     1       6.043   5.329  17.414  0.00  0.00    +0.000 A 
BRANCH  12  16
ATOM     16  C   UNL     1       8.350   8.889  18.104  0.00  0.00    +0.000 C 
ATOM     17  F   UNL     1       7.611  10.023  18.274  0.00  0.00    +0.000 F 
ATOM     18  F   UNL     1       9.134   8.785  19.218  0.00  0.00    +0.000 F 
ATOM     19  F   UNL     1       9.212   9.160  17.079  0.00  0.00    +0.000 F 
ENDBRANCH  12  16
ENDBRANCH   1  15
BRANCH   6  20
ATOM     20  C   UNL     1       1.497   4.269  20.132  0.00  0.00    +0.000 C 
ATOM     21  O   UNL     1       1.520   5.472  20.345  0.00  0.00    +0.000 OA
BRANCH  20  22
ATOM     22  O   UNL     1       0.339   3.572  20.178  0.00  0.00    +0.000 OA
ATOM     23  H   UNL     1       0.426   2.606  20.079  0.00  0.00    +0.000 HD
ENDBRANCH  20  22
ENDBRANCH   6  20
TORSDOF 4
ENDMDL
MODEL 5
REMARK VINA RESULT:      -6.9      0.659      1.498
REMARK  Name = 
REMARK  6 active torsions:
REMARK  status: ('A' for Active; 'I' for Inactive)
REMARK    1  A    between atoms: C_1  and  C_2
REMARK    2  A    between atoms: C_4  and  C_5
REMARK    3  A    between atoms: C_11  and  C_12
REMARK    4  A    between atoms: C_17  and  C_18
REMARK    5  A    between atoms: C_17  and  C_19
REMARK    6  A    between atoms: C_19  and  O_21
REMARK                            x       y       z     vdW  Elec       q    Type
REMARK                         _______ _______ _______ _____ _____    ______ ____
ROOT
ATOM      1  C   UNL     1       2.726   5.147  17.896  0.00  0.00    +0.000 C 
ATOM      2  O   UNL     1       1.911   4.325  17.483  0.00  0.00    +0.000 OA
ATOM      3  N   UNL     1       4.039   5.195  17.417  0.00  0.00    +0.000 N 
ATOM      4  C   UNL     1       4.464   4.341  16.327  0.00  0.00    +0.000 C 
ATOM      5  C   UNL     1       5.922   4.023  16.628  0.00  0.00    +0.000 C 
ATOM      6  C   UNL     1       6.450   5.255  17.379  0.00  0.00    +0.000 C 
ATOM      7  C   UNL     1       7.033   6.304  16.419  0.00  0.00    +0.000 C 
ATOM      8  C   UNL     1       5.191   5.787  18.099  0.00  0.00    +0.000 C 
ENDROOT
BRANCH   1  15
ATOM      9  C   UNL     1       2.622   8.145  17.327  0.00  0.00    +0.000 C 
ATOM     10  C   UNL     1       2.216   7.526  18.631  0.00  0.00    +0.000 A 
ATOM     11  N   UNL     1       1.831   8.435  19.577  0.00  0.00    +0.000 NA
ATOM     12  C   UNL     1       1.503   8.004  20.826  0.00  0.00    +0.000 A 
ATOM     13  C   UNL     1       1.573   6.657  21.167  0.00  0.00    +0.000 A 
ATOM     14  C   UNL     1       1.988   5.740  20.203  0.00  0.00    +0.000 A 
ATOM     15  C   UNL     1       2.275   6.157  18.904  0.00  0.00    +0.000 A 
BRANCH  12  16
ATOM     16  C   UNL     1       1.073   9.010  21.885  0.00  0.00    +0.000 C 
ATOM     17  F   UNL     1      -0.141   8.754  22.452  0.00  0.00    +0.000 F 
ATOM     18  F   UNL     1       1.960   9.082  22.922  0.00  0.00    +0.000 F 
ATOM     19  F   UNL     1       0.991  10.280  21.391  0.00  0.00    +0.000 F 
ENDBRANCH  12  16
ENDBRANCH   1  15
BRANCH   6  20
ATOM     20  C   UNL     1       7.504   4.894  18.414  0.00  0.00    +0.000 C 
ATOM     21  O   UNL     1       7.537   5.340  19.551  0.00  0.00    +0.000 OA
BRANCH  20  22
ATOM     22  O   UNL     1       8.461   4.053  17.963  0.00  0.00    +0.000 OA
ATOM     23  H   UNL     1       9.373   4.274  18.225  0.00  0.00    +0.000 HD
ENDBRANCH  20  22
ENDBRANCH   6  20
TORSDOF 4
ENDMDL
MODEL 6
REMARK VINA RESULT:      -6.8      1.045      1.998
REMARK  Name = 
REMARK  6 active torsions:
REMARK  status: ('A' for Active; 'I' for Inactive)
REMARK    1  A    between atoms: C_1  and  C_2
REMARK    2  A    between atoms: C_4  and  C_5
REMARK    3  A    between atoms: C_11  and  C_12
REMARK    4  A    between atoms: C_17  and  C_18
REMARK    5  A    between atoms: C_17  and  C_19
REMARK    6  A    between atoms: C_19  and  O_21
REMARK                            x       y       z     vdW  Elec       q    Type
REMARK                         _______ _______ _______ _____ _____    ______ ____
ROOT
ATOM      1  C   UNL     1       3.253   5.308  18.037  0.00  0.00    +0.000 C 
ATOM      2  O   UNL     1       2.661   4.327  17.594  0.00  0.00    +0.000 OA
ATOM      3  N   UNL     1       4.570   5.607  17.676  0.00  0.00    +0.000 N 
ATOM      4  C   UNL     1       5.260   4.824  16.671  0.00  0.00    +0.000 C 
ATOM      5  C   UNL     1       6.716   4.816  17.115  0.00  0.00    +0.000 C 
ATOM      6  C   UNL     1       6.913   6.151  17.848  0.00  0.00    +0.000 C 
ATOM      7  C   UNL     1       7.367   7.267  16.894  0.00  0.00    +0.000 C 
ATOM      8  C   UNL     1       5.510   6.440  18.427  0.00  0.00    +0.000 C 
ENDROOT
BRANCH   1  15
ATOM      9  C   UNL     1       2.750   8.248  17.382  0.00  0.00    +0.000 C 
ATOM     10  C   UNL     1       2.275   7.577  18.637  0.00  0.00    +0.000 A 
ATOM     11  N   UNL     1       1.626   8.416  19.500  0.00  0.00    +0.000 NA
ATOM     12  C   UNL     1       1.206   7.942  20.706  0.00  0.00    +0.000 A 
ATOM     13  C   UNL     1       1.443   6.626  21.087  0.00  0.00    +0.000 A 
ATOM     14  C   UNL     1       2.126   5.784  20.211  0.00  0.00    +0.000 A 
ATOM     15  C   UNL     1       2.514   6.236  18.950  0.00  0.00    +0.000 A 
BRANCH  12  16
ATOM     16  C   UNL     1       0.482   8.870  21.672  0.00  0.00    +0.000 C 
ATOM     17  F   UNL     1       1.165   9.135  22.823  0.00  0.00    +0.000 F 
ATOM     18  F   UNL     1       0.205  10.086  21.115  0.00  0.00    +0.000 F 
ATOM     19  F   UNL     1      -0.726   8.369  22.065  0.00  0.00    +0.000 F 
ENDBRANCH  12  16
ENDBRANCH   1  15
BRANCH   6  20
ATOM     20  C   UNL     1       7.912   6.042  18.990  0.00  0.00    +0.000 C 
ATOM     21  O   UNL     1       8.017   5.072  19.726  0.00  0.00    +0.000 OA
BRANCH  20  22
ATOM     22  O   UNL     1       8.671   7.145  19.174  0.00  0.00    +0.000 OA
ATOM     23  H   UNL     1       9.628   7.024  19.043  0.00  0.00    +0.000 HD
ENDBRANCH  20  22
ENDBRANCH   6  20
TORSDOF 4
ENDMDL
MODEL 7
REMARK VINA RESULT:      -6.7      5.176      7.739
REMARK  Name = 
REMARK  6 active torsions:
REMARK  status: ('A' for Active; 'I' for Inactive)
REMARK    1  A    between atoms: C_1  and  C_2
REMARK    2  A    between atoms: C_4  and  C_5
REMARK    3  A    between atoms: C_11  and  C_12
REMARK    4  A    between atoms: C_17  and  C_18
REMARK    5  A    between atoms: C_17  and  C_19
REMARK    6  A    between atoms: C_19  and  O_21
REMARK                            x       y       z     vdW  Elec       q    Type
REMARK                         _______ _______ _______ _____ _____    ______ ____
ROOT
ATOM      1  C   UNL     1       5.904   4.519  18.145  0.00  0.00    +0.000 C 
ATOM      2  O   UNL     1       6.815   4.597  18.965  0.00  0.00    +0.000 OA
ATOM      3  N   UNL     1       4.560   4.487  18.529  0.00  0.00    +0.000 N 
ATOM      4  C   UNL     1       4.180   4.656  19.917  0.00  0.00    +0.000 C 
ATOM      5  C   UNL     1       2.945   3.783  20.091  0.00  0.00    +0.000 C 
ATOM      6  C   UNL     1       2.259   3.789  18.716  0.00  0.00    +0.000 C 
ATOM      7  C   UNL     1       1.246   4.937  18.587  0.00  0.00    +0.000 C 
ATOM      8  C   UNL     1       3.442   3.968  17.739  0.00  0.00    +0.000 C 
ENDROOT
BRANCH   1  15
ATOM      9  C   UNL     1       7.428   6.785  16.780  0.00  0.00    +0.000 C 
ATOM     10  C   UNL     1       6.962   5.546  16.074  0.00  0.00    +0.000 A 
ATOM     11  N   UNL     1       7.241   5.535  14.735  0.00  0.00    +0.000 NA
ATOM     12  C   UNL     1       6.809   4.495  13.970  0.00  0.00    +0.000 A 
ATOM     13  C   UNL     1       6.069   3.453  14.518  0.00  0.00    +0.000 A 
ATOM     14  C   UNL     1       5.770   3.484  15.879  0.00  0.00    +0.000 A 
ATOM     15  C   UNL     1       6.251   4.512  16.689  0.00  0.00    +0.000 A 
BRANCH  12  16
ATOM     16  C   UNL     1       7.115   4.475  12.479  0.00  0.00    +0.000 C 
ATOM     17  F   UNL     1       7.802   3.376  12.054  0.00  0.00    +0.000 F 
ATOM     18  F   UNL     1       5.983   4.524  11.716  0.00  0.00    +0.000 F 
ATOM     19  F   UNL     1       7.861   5.551  12.088  0.00  0.00    +0.000 F 
ENDBRANCH  12  16
ENDBRANCH   1  15
BRANCH   6  20
ATOM     20  C   UNL     1       1.557   2.474  18.415  0.00  0.00    +0.000 C 
ATOM     21  O   UNL     1       0.348   2.306  18.475  0.00  0.00    +0.000 OA
BRANCH  20  22
ATOM     22  O   UNL     1       2.391   1.454  18.113  0.00  0.00    +0.000 OA
ATOM     23  H   UNL     1       2.270   0.642  18.639  0.00  0.00    +0.000 HD
ENDBRANCH  20  22
ENDBRANCH   6  20
TORSDOF 4
ENDMDL
MODEL 8
REMARK VINA RESULT:      -6.7      3.971      6.121
REMARK  Name = 
REMARK  6 active torsions:
REMARK  status: ('A' for Active; 'I' for Inactive)
REMARK    1  A    between atoms: C_1  and  C_2
REMARK    2  A    between atoms: C_4  and  C_5
REMARK    3  A    between atoms: C_11  and  C_12
REMARK    4  A    between atoms: C_17  and  C_18
REMARK    5  A    between atoms: C_17  and  C_19
REMARK    6  A    between atoms: C_19  and  O_21
REMARK                            x       y       z     vdW  Elec       q    Type
REMARK                         _______ _______ _______ _____ _____    ______ ____
ROOT
ATOM      1  C   UNL     1       5.347   4.081  17.121  0.00  0.00    +0.000 C 
ATOM      2  O   UNL     1       5.513   3.511  16.046  0.00  0.00    +0.000 OA
ATOM      3  N   UNL     1       4.520   3.558  18.120  0.00  0.00    +0.000 N 
ATOM      4  C   UNL     1       3.905   2.255  17.967  0.00  0.00    +0.000 C 
ATOM      5  C   UNL     1       2.562   2.374  18.674  0.00  0.00    +0.000 C 
ATOM      6  C   UNL     1       2.795   3.396  19.797  0.00  0.00    +0.000 C 
ATOM      7  C   UNL     1       3.252   2.721  21.100  0.00  0.00    +0.000 C 
ATOM      8  C   UNL     1       3.900   4.304  19.215  0.00  0.00    +0.000 C 
ENDROOT
BRANCH   1  15
ATOM      9  C   UNL     1       4.823   6.679  15.605  0.00  0.00    +0.000 C 
ATOM     10  C   UNL     1       5.844   6.537  16.694  0.00  0.00    +0.000 A 
ATOM     11  N   UNL     1       6.567   7.676  16.925  0.00  0.00    +0.000 NA
ATOM     12  C   UNL     1       7.571   7.656  17.845  0.00  0.00    +0.000 A 
ATOM     13  C   UNL     1       7.894   6.494  18.538  0.00  0.00    +0.000 A 
ATOM     14  C   UNL     1       7.168   5.333  18.279  0.00  0.00    +0.000 A 
ATOM     15  C   UNL     1       6.100   5.348  17.382  0.00  0.00    +0.000 A 
BRANCH  12  16
ATOM     16  C   UNL     1       8.380   8.919  18.108  0.00  0.00    +0.000 C 
ATOM     17  F   UNL     1       9.144   8.879  19.237  0.00  0.00    +0.000 F 
ATOM     18  F   UNL     1       9.240   9.207  17.086  0.00  0.00    +0.000 F 
ATOM     19  F   UNL     1       7.588  10.024  18.236  0.00  0.00    +0.000 F 
ENDBRANCH  12  16
ENDBRANCH   1  15
BRANCH   6  20
ATOM     20  C   UNL     1       1.557   4.232  20.082  0.00  0.00    +0.000 C 
ATOM     21  O   UNL     1       0.410   3.847  19.919  0.00  0.00    +0.000 OA
BRANCH  20  22
ATOM     22  O   UNL     1       1.821   5.491  20.499  0.00  0.00    +0.000 OA
ATOM     23  H   UNL     1       2.480   5.979  19.973  0.00  0.00    +0.000 HD
ENDBRANCH  20  22
ENDBRANCH   6  20
TORSDOF 4
ENDMDL
MODEL 9
REMARK VINA RESULT:      -6.7      5.383      7.287
REMARK  Name = 
REMARK  6 active torsions:
REMARK  status: ('A' for Active; 'I' for Inactive)
REMARK    1  A    between atoms: C_1  and  C_2
REMARK    2  A    between atoms: C_4  and  C_5
REMARK    3  A    between atoms: C_11  and  C_12
REMARK    4  A    between atoms: C_17  and  C_18
REMARK    5  A    between atoms: C_17  and  C_19
REMARK    6  A    between atoms: C_19  and  O_21
REMARK                            x       y       z     vdW  Elec       q    Type
REMARK                         _______ _______ _______ _____ _____    ______ ____
ROOT
ATOM      1  C   UNL     1       4.538   5.799  17.562  0.00  0.00    +0.000 C 
ATOM      2  O   UNL     1       4.345   6.951  17.941  0.00  0.00    +0.000 OA
ATOM      3  N   UNL     1       3.915   4.703  18.165  0.00  0.00    +0.000 N 
ATOM      4  C   UNL     1       2.922   4.893  19.203  0.00  0.00    +0.000 C 
ATOM      5  C   UNL     1       3.102   3.703  20.135  0.00  0.00    +0.000 C 
ATOM      6  C   UNL     1       3.599   2.564  19.233  0.00  0.00    +0.000 C 
ATOM      7  C   UNL     1       2.436   1.743  18.654  0.00  0.00    +0.000 C 
ATOM      8  C   UNL     1       4.369   3.313  18.122  0.00  0.00    +0.000 C 
ENDROOT
BRANCH   1  15
ATOM      9  C   UNL     1       7.494   6.566  17.531  0.00  0.00    +0.000 C 
ATOM     10  C   UNL     1       6.786   5.917  16.379  0.00  0.00    +0.000 A 
ATOM     11  N   UNL     1       7.576   5.735  15.277  0.00  0.00    +0.000 NA
ATOM     12  C   UNL     1       7.031   5.216  14.142  0.00  0.00    +0.000 A 
ATOM     13  C   UNL     1       5.682   4.889  14.072  0.00  0.00    +0.000 A 
ATOM     14  C   UNL     1       4.879   5.099  15.192  0.00  0.00    +0.000 A 
ATOM     15  C   UNL     1       5.431   5.577  16.380  0.00  0.00    +0.000 A 
BRANCH  12  16
ATOM     16  C   UNL     1       7.904   5.010  12.911  0.00  0.00    +0.000 C 
ATOM     17  F   UNL     1       7.609   3.893  12.186  0.00  0.00    +0.000 F 
ATOM     18  F   UNL     1       7.820   6.055  12.035  0.00  0.00    +0.000 F 
ATOM     19  F   UNL     1       9.229   4.908  13.226  0.00  0.00    +0.000 F 
ENDBRANCH  12  16
ENDBRANCH   1  15
BRANCH   6  20
ATOM     20  C   UNL     1       4.552   1.627  19.958  0.00  0.00    +0.000 C 
ATOM     21  O   UNL     1       5.087   1.876  21.028  0.00  0.00    +0.000 OA
BRANCH  20  22
ATOM     22  O   UNL     1       4.816   0.479  19.294  0.00  0.00    +0.000 OA
ATOM     23  H   UNL     1       5.602   0.496  18.720  0.00  0.00    +0.000 HD
ENDBRANCH  20  22
ENDBRANCH   6  20
TORSDOF 4
ENDMDL
