MODEL 1
REMARK VINA RESULT:      -7.8      0.000      0.000
REMARK  Name = 
REMARK  3 active torsions:
REMARK  status: ('A' for Active; 'I' for Inactive)
REMARK    1  A    between atoms: C_2  and  C_3
REMARK    2  A    between atoms: C_6  and  C_7
REMARK    3  A    between atoms: C_12  and  N_13
REMARK                            x       y       z     vdW  Elec       q    Type
REMARK                         _______ _______ _______ _____ _____    ______ ____
ROOT
ATOM      1  C   UNL     1       1.562   8.096  20.155  0.00  0.00    +0.000 C 
ATOM      2  O   UNL     1       1.878   8.238  18.978  0.00  0.00    +0.000 OA
ATOM      3  N   UNL     1       1.722   6.923  20.867  0.00  0.00    +0.000 N 
ATOM      4  C   UNL     1       2.261   5.774  20.263  0.00  0.00    +0.000 A 
ATOM      5  C   UNL     1       3.428   5.825  19.526  0.00  0.00    +0.000 A 
ATOM      6  C   UNL     1       3.873   4.655  18.934  0.00  0.00    +0.000 A 
ATOM      7  N   UNL     1       3.132   3.537  19.027  0.00  0.00    +0.000 NA
ATOM      8  C   UNL     1       2.029   3.587  19.789  0.00  0.00    +0.000 A 
ATOM      9  N   UNL     1       1.576   4.645  20.473  0.00  0.00    +0.000 NA
ATOM     10  H   UNL     1       1.044   6.709  21.584  0.00  0.00    +0.000 HD
ENDROOT
BRANCH   1  14
ATOM     11  C   UNL     1      -0.475  11.272  22.241  0.00  0.00    +0.000 A 
ATOM     12  C   UNL     1      -0.300  10.019  22.831  0.00  0.00    +0.000 A 
ATOM     13  C   UNL     1       0.388   9.015  22.142  0.00  0.00    +0.000 A 
ATOM     14  C   UNL     1       0.906   9.245  20.856  0.00  0.00    +0.000 A 
ATOM     15  C   UNL     1       0.732  10.506  20.271  0.00  0.00    +0.000 A 
ATOM     16  C   UNL     1       0.045  11.514  20.964  0.00  0.00    +0.000 A 
BRANCH  11  18
ATOM     17  N   UNL     1      -1.786  13.126  23.493  0.00  0.00    +0.000 NA
ATOM     18  C   UNL     1      -1.200  12.301  22.937  0.00  0.00    +0.000 C 
ENDBRANCH  11  18
ENDBRANCH   1  14
BRANCH   6  19
ATOM     19  N   UNL     1       5.069   4.609  18.246  0.00  0.00    +0.000 N 
ATOM     20  C   UNL     1       6.285   5.143  18.851  0.00  0.00    +0.000 C 
ATOM     21  C   UNL     1       6.895   6.239  17.978  0.00  0.00    +0.000 C 
ATOM     22  C   UNL     1       7.044   5.789  16.525  0.00  0.00    +0.000 C 
ATOM     23  C   UNL     1       5.718   5.267  15.980  0.00  0.00    +0.000 C 
ATOM     24  C   UNL     1       5.147   4.155  16.863  0.00  0.00    +0.000 C 
ENDBRANCH   6  19
TORSDOF 3
ENDMDL
MODEL 2
REMARK VINA RESULT:      -7.7      0.198      1.025
REMARK  Name = 
REMARK  3 active torsions:
REMARK  status: ('A' for Active; 'I' for Inactive)
REMARK    1  A    between atoms: C_2  and  C_3
REMARK    2  A    between atoms: C_6  and  C_7
REMARK    3  A    between atoms: C_12  and  N_13
REMARK                            x       y       z     vdW  Elec       q    Type
REMARK                         _______ _______ _______ _____ _____    ______ ____
ROOT
ATOM      1  C   UNL     1       1.518   7.959  20.213  0.00  0.00    +0.000 C 
ATOM      2  O   UNL     1       1.878   8.155  19.057  0.00  0.00    +0.000 OA
ATOM      3  N   UNL     1       1.690   6.766  20.889  0.00  0.00    +0.000 N 
ATOM      4  C   UNL     1       2.294   5.660  20.268  0.00  0.00    +0.000 A 
ATOM      5  C   UNL     1       3.488   5.777  19.585  0.00  0.00    +0.000 A 
ATOM      6  C   UNL     1       3.999   4.647  18.971  0.00  0.00    +0.000 A 
ATOM      7  N   UNL     1       3.295   3.502  18.991  0.00  0.00    +0.000 NA
ATOM      8  C   UNL     1       2.160   3.486  19.707  0.00  0.00    +0.000 A 
ATOM      9  N   UNL     1       1.642   4.501  20.408  0.00  0.00    +0.000 NA
ATOM     10  H   UNL     1       0.990   6.503  21.568  0.00  0.00    +0.000 HD
ENDROOT
BRANCH   1  14
ATOM     11  C   UNL     1      -0.425  11.260  22.193  0.00  0.00    +0.000 A 
ATOM     12  C   UNL     1       0.049  11.381  20.887  0.00  0.00    +0.000 A 
ATOM     13  C   UNL     1       0.652  10.287  20.259  0.00  0.00    +0.000 A 
ATOM     14  C   UNL     1       0.793   9.058  20.926  0.00  0.00    +0.000 A 
ATOM     15  C   UNL     1       0.310   8.939  22.236  0.00  0.00    +0.000 A 
ATOM     16  C   UNL     1      -0.297  10.037  22.864  0.00  0.00    +0.000 A 
BRANCH  11  18
ATOM     17  N   UNL     1      -1.515  13.293  23.377  0.00  0.00    +0.000 NA
ATOM     18  C   UNL     1      -1.026  12.389  22.850  0.00  0.00    +0.000 C 
ENDBRANCH  11  18
ENDBRANCH   1  14
BRANCH   6  19
ATOM     19  N   UNL     1       5.223   4.666  18.334  0.00  0.00    +0.000 N 
ATOM     20  C   UNL     1       6.387   5.247  18.998  0.00  0.00    +0.000 C 
ATOM     21  C   UNL     1       6.981   6.383  18.166  0.00  0.00    +0.000 C 
ATOM     22  C   UNL     1       7.211   5.964  16.715  0.00  0.00    +0.000 C 
ATOM     23  C   UNL     1       5.935   5.391  16.107  0.00  0.00    +0.000 C 
ATOM     24  C   UNL     1       5.381   4.240  16.949  0.00  0.00    +0.000 C 
ENDBRANCH   6  19
TORSDOF 3
ENDMDL
MODEL 3
REMARK VINA RESULT:      -7.6      0.937      1.100
REMARK  Name = 
REMARK  3 active torsions:
REMARK  status: ('A' for Active; 'I' for Inactive)
REMARK    1  A    between atoms: C_2  and  C_3
REMARK    2  A    between atoms: C_6  and  C_7
REMARK    3  A    between atoms: C_12  and  N_13
REMARK                            x       y       z     vdW  Elec       q    Type
REMARK                         _______ _______ _______ _____ _____    ______ ____
ROOT
ATOM      1  C   UNL     1       1.246   8.682  20.235  0.00  0.00    +0.000 C 
ATOM      2  O   UNL     1       1.386   8.808  19.022  0.00  0.00    +0.000 OA
ATOM      3  N   UNL     1       1.580   7.542  20.941  0.00  0.00    +0.000 N 
ATOM      4  C   UNL     1       2.104   6.412  20.291  0.00  0.00    +0.000 A 
ATOM      5  C   UNL     1       3.151   6.513  19.397  0.00  0.00    +0.000 A 
ATOM      6  C   UNL     1       3.585   5.357  18.772  0.00  0.00    +0.000 A 
ATOM      7  N   UNL     1       2.939   4.198  18.991  0.00  0.00    +0.000 NA
ATOM      8  C   UNL     1       1.952   4.202  19.900  0.00  0.00    +0.000 A 
ATOM      9  N   UNL     1       1.531   5.250  20.619  0.00  0.00    +0.000 NA
ATOM     10  H   UNL     1       1.024   7.309  21.750  0.00  0.00    +0.000 HD
ENDROOT
BRANCH   1  14
ATOM     11  C   UNL     1      -0.724  11.803  22.464  0.00  0.00    +0.000 A 
ATOM     12  C   UNL     1      -0.738  10.480  22.909  0.00  0.00    +0.000 A 
ATOM     13  C   UNL     1      -0.069   9.492  22.180  0.00  0.00    +0.000 A 
ATOM     14  C   UNL     1       0.621   9.809  20.997  0.00  0.00    +0.000 A 
ATOM     15  C   UNL     1       0.637  11.138  20.558  0.00  0.00    +0.000 A 
ATOM     16  C   UNL     1      -0.032  12.130  21.291  0.00  0.00    +0.000 A 
BRANCH  11  18
ATOM     17  N   UNL     1      -1.994  13.637  23.785  0.00  0.00    +0.000 NA
ATOM     18  C   UNL     1      -1.428  12.818  23.199  0.00  0.00    +0.000 C 
ENDBRANCH  11  18
ENDBRANCH   1  14
BRANCH   6  19
ATOM     19  N   UNL     1       4.674   5.364  17.924  0.00  0.00    +0.000 N 
ATOM     20  C   UNL     1       5.127   6.613  17.320  0.00  0.00    +0.000 C 
ATOM     21  C   UNL     1       5.114   6.520  15.794  0.00  0.00    +0.000 C 
ATOM     22  C   UNL     1       5.835   5.268  15.297  0.00  0.00    +0.000 C 
ATOM     23  C   UNL     1       5.278   4.017  15.971  0.00  0.00    +0.000 C 
ATOM     24  C   UNL     1       5.328   4.132  17.496  0.00  0.00    +0.000 C 
ENDBRANCH   6  19
TORSDOF 3
ENDMDL
MODEL 4
REMARK VINA RESULT:      -7.5      5.336      7.373
REMARK  Name = 
REMARK  3 active torsions:
REMARK  status: ('A' for Active; 'I' for Inactive)
REMARK    1  A    between atoms: C_2  and  C_3
REMARK    2  A    between atoms: C_6  and  C_7
REMARK    3  A    between atoms: C_12  and  N_13
REMARK                            x       y       z     vdW  Elec       q    Type
REMARK                         _______ _______ _______ _____ _____    ______ ____
ROOT
ATOM      1  C   UNL     1       7.927   7.982  18.099  0.00  0.00    +0.000 C 
ATOM      2  O   UNL     1       8.068   7.188  19.023  0.00  0.00    +0.000 OA
ATOM      3  N   UNL     1       7.332   7.672  16.891  0.00  0.00    +0.000 N 
ATOM      4  C   UNL     1       6.848   6.379  16.631  0.00  0.00    +0.000 A 
ATOM      5  C   UNL     1       6.036   5.716  17.530  0.00  0.00    +0.000 A 
ATOM      6  C   UNL     1       5.631   4.431  17.215  0.00  0.00    +0.000 A 
ATOM      7  N   UNL     1       6.090   3.843  16.096  0.00  0.00    +0.000 NA
ATOM      8  C   UNL     1       6.852   4.584  15.276  0.00  0.00    +0.000 A 
ATOM      9  N   UNL     1       7.213   5.860  15.454  0.00  0.00    +0.000 NA
ATOM     10  H   UNL     1       7.672   8.139  16.064  0.00  0.00    +0.000 HD
ENDROOT
BRANCH   1  14
ATOM     11  C   UNL     1       9.501  11.940  18.769  0.00  0.00    +0.000 A 
ATOM     12  C   UNL     1       9.845  10.877  19.605  0.00  0.00    +0.000 A 
ATOM     13  C   UNL     1       9.340   9.598  19.349  0.00  0.00    +0.000 A 
ATOM     14  C   UNL     1       8.485   9.363  18.259  0.00  0.00    +0.000 A 
ATOM     15  C   UNL     1       8.148  10.431  17.419  0.00  0.00    +0.000 A 
ATOM     16  C   UNL     1       8.657  11.714  17.675  0.00  0.00    +0.000 A 
BRANCH  11  18
ATOM     17  N   UNL     1      10.405  14.322  19.253  0.00  0.00    +0.000 NA
ATOM     18  C   UNL     1      10.001  13.261  19.040  0.00  0.00    +0.000 C 
ENDBRANCH  11  18
ENDBRANCH   1  14
BRANCH   6  19
ATOM     19  N   UNL     1       4.758   3.733  18.025  0.00  0.00    +0.000 N 
ATOM     20  C   UNL     1       3.811   2.787  17.443  0.00  0.00    +0.000 C 
ATOM     21  C   UNL     1       2.373   3.164  17.796  0.00  0.00    +0.000 C 
ATOM     22  C   UNL     1       2.202   3.404  19.295  0.00  0.00    +0.000 C 
ATOM     23  C   UNL     1       3.221   4.419  19.802  0.00  0.00    +0.000 C 
ATOM     24  C   UNL     1       4.651   4.000  19.455  0.00  0.00    +0.000 C 
ENDBRANCH   6  19
TORSDOF 3
ENDMDL
MODEL 5
REMARK VINA RESULT:      -7.5      0.905      1.485
REMARK  Name = 
REMARK  3 active torsions:
REMARK  status: ('A' for Active; 'I' for Inactive)
REMARK    1  A    between atoms: C_2  and  C_3
REMARK    2  A    between atoms: C_6  and  C_7
REMARK    3  A    between atoms: C_12  and  N_13
REMARK                            x       y       z     vdW  Elec       q    Type
REMARK                         _______ _______ _______ _____ _____    ______ ____
ROOT
ATOM      1  C   UNL     1       1.177   8.583  20.206  0.00  0.00    +0.000 C 
ATOM      2  O   UNL     1       1.328   8.726  18.996  0.00  0.00    +0.000 OA
ATOM      3  N   UNL     1       1.547   7.452  20.907  0.00  0.00    +0.000 N 
ATOM      4  C   UNL     1       2.125   6.349  20.255  0.00  0.00    +0.000 A 
ATOM      5  C   UNL     1       3.180   6.501  19.376  0.00  0.00    +0.000 A 
ATOM      6  C   UNL     1       3.669   5.368  18.748  0.00  0.00    +0.000 A 
ATOM      7  N   UNL     1       3.067   4.183  18.948  0.00  0.00    +0.000 NA
ATOM      8  C   UNL     1       2.068   4.139  19.843  0.00  0.00    +0.000 A 
ATOM      9  N   UNL     1       1.595   5.162  20.565  0.00  0.00    +0.000 NA
ATOM     10  H   UNL     1       0.990   7.189  21.706  0.00  0.00    +0.000 HD
ENDROOT
BRANCH   1  14
ATOM     11  C   UNL     1      -0.625  11.861  22.350  0.00  0.00    +0.000 A 
ATOM     12  C   UNL     1      -0.065  12.048  21.086  0.00  0.00    +0.000 A 
ATOM     13  C   UNL     1       0.489  10.962  20.402  0.00  0.00    +0.000 A 
ATOM     14  C   UNL     1       0.496   9.677  20.969  0.00  0.00    +0.000 A 
ATOM     15  C   UNL     1      -0.073   9.492  22.235  0.00  0.00    +0.000 A 
ATOM     16  C   UNL     1      -0.632  10.582  22.921  0.00  0.00    +0.000 A 
BRANCH  11  18
ATOM     17  N   UNL     1      -1.624  13.872  23.646  0.00  0.00    +0.000 NA
ATOM     18  C   UNL     1      -1.178  12.978  23.067  0.00  0.00    +0.000 C 
ENDBRANCH  11  18
ENDBRANCH   1  14
BRANCH   6  19
ATOM     19  N   UNL     1       4.768   5.427  17.915  0.00  0.00    +0.000 N 
ATOM     20  C   UNL     1       5.119   6.677  17.248  0.00  0.00    +0.000 C 
ATOM     21  C   UNL     1       5.142   6.500  15.730  0.00  0.00    +0.000 C 
ATOM     22  C   UNL     1       5.980   5.292  15.313  0.00  0.00    +0.000 C 
ATOM     23  C   UNL     1       5.524   4.036  16.049  0.00  0.00    +0.000 C 
ATOM     24  C   UNL     1       5.536   4.238  17.565  0.00  0.00    +0.000 C 
ENDBRANCH   6  19
TORSDOF 3
ENDMDL
MODEL 6
REMARK VINA RESULT:      -7.5      0.968      1.399
REMARK  Name = 
REMARK  3 active torsions:
REMARK  status: ('A' for Active; 'I' for Inactive)
REMARK    1  A    between atoms: C_2  and  C_3
REMARK    2  A    between atoms: C_6  and  C_7
REMARK    3  A    between atoms: C_12  and  N_13
REMARK                            x       y       z     vdW  Elec       q    Type
REMARK                         _______ _______ _______ _____ _____    ______ ____
ROOT
ATOM      1  C   UNL     1       1.393   8.482  19.827  0.00  0.00    +0.000 C 
ATOM      2  O   UNL     1       1.534   8.698  18.627  0.00  0.00    +0.000 OA
ATOM      3  N   UNL     1       1.871   7.359  20.476  0.00  0.00    +0.000 N 
ATOM      4  C   UNL     1       2.559   6.353  19.777  0.00  0.00    +0.000 A 
ATOM      5  C   UNL     1       3.597   6.651  18.916  0.00  0.00    +0.000 A 
ATOM      6  C   UNL     1       4.198   5.605  18.238  0.00  0.00    +0.000 A 
ATOM      7  N   UNL     1       3.717   4.357  18.375  0.00  0.00    +0.000 NA
ATOM      8  C   UNL     1       2.724   4.171  19.258  0.00  0.00    +0.000 A 
ATOM      9  N   UNL     1       2.148   5.105  20.024  0.00  0.00    +0.000 NA
ATOM     10  H   UNL     1       1.340   7.003  21.257  0.00  0.00    +0.000 HD
ENDROOT
BRANCH   1  14
ATOM     11  C   UNL     1      -0.984  11.146  22.243  0.00  0.00    +0.000 A 
ATOM     12  C   UNL     1      -0.440   9.979  22.780  0.00  0.00    +0.000 A 
ATOM     13  C   UNL     1       0.350   9.146  21.981  0.00  0.00    +0.000 A 
ATOM     14  C   UNL     1       0.604   9.464  20.636  0.00  0.00    +0.000 A 
ATOM     15  C   UNL     1       0.060  10.639  20.103  0.00  0.00    +0.000 A 
ATOM     16  C   UNL     1      -0.729  11.477  20.907  0.00  0.00    +0.000 A 
BRANCH  11  18
ATOM     17  N   UNL     1      -2.480  12.680  23.704  0.00  0.00    +0.000 NA
ATOM     18  C   UNL     1      -1.813  11.995  23.056  0.00  0.00    +0.000 C 
ENDBRANCH  11  18
ENDBRANCH   1  14
BRANCH   6  19
ATOM     19  N   UNL     1       5.290   5.813  17.419  0.00  0.00    +0.000 N 
ATOM     20  C   UNL     1       5.100   6.199  16.024  0.00  0.00    +0.000 C 
ATOM     21  C   UNL     1       5.757   5.190  15.083  0.00  0.00    +0.000 C 
ATOM     22  C   UNL     1       7.205   4.906  15.478  0.00  0.00    +0.000 C 
ATOM     23  C   UNL     1       7.296   4.493  16.944  0.00  0.00    +0.000 C 
ATOM     24  C   UNL     1       6.652   5.535  17.861  0.00  0.00    +0.000 C 
ENDBRANCH   6  19
TORSDOF 3
ENDMDL
MODEL 7
REMARK VINA RESULT:      -7.4      5.440      7.487
REMARK  Name = 
REMARK  3 active torsions:
REMARK  status: ('A' for Active; 'I' for Inactive)
REMARK    1  A    between atoms: C_2  and  C_3
REMARK    2  A    between atoms: C_6  and  C_7
REMARK    3  A    between atoms: C_12  and  N_13
REMARK                            x       y       z     vdW  Elec       q    Type
REMARK                         _______ _______ _______ _____ _____    ______ ____
ROOT
ATOM      1  C   UNL     1       7.883   7.913  18.122  0.00  0.00    +0.000 C 
ATOM      2  O   UNL     1       7.946   7.107  19.045  0.00  0.00    +0.000 OA
ATOM      3  N   UNL     1       7.364   7.625  16.874  0.00  0.00    +0.000 N 
ATOM      4  C   UNL     1       6.873   6.344  16.569  0.00  0.00    +0.000 A 
ATOM      5  C   UNL     1       5.989   5.691  17.405  0.00  0.00    +0.000 A 
ATOM      6  C   UNL     1       5.581   4.417  17.050  0.00  0.00    +0.000 A 
ATOM      7  N   UNL     1       6.103   3.829  15.959  0.00  0.00    +0.000 NA
ATOM      8  C   UNL     1       6.932   4.561  15.199  0.00  0.00    +0.000 A 
ATOM      9  N   UNL     1       7.306   5.828  15.414  0.00  0.00    +0.000 NA
ATOM     10  H   UNL     1       7.768   8.092  16.075  0.00  0.00    +0.000 HD
ENDROOT
BRANCH   1  14
ATOM     11  C   UNL     1       9.552  11.868  18.520  0.00  0.00    +0.000 A 
ATOM     12  C   UNL     1       8.586  11.588  17.552  0.00  0.00    +0.000 A 
ATOM     13  C   UNL     1       8.042  10.303  17.463  0.00  0.00    +0.000 A 
ATOM     14  C   UNL     1       8.456   9.280  18.333  0.00  0.00    +0.000 A 
ATOM     15  C   UNL     1       9.421   9.568  19.306  0.00  0.00    +0.000 A 
ATOM     16  C   UNL     1       9.965  10.859  19.398  0.00  0.00    +0.000 A 
BRANCH  11  18
ATOM     17  N   UNL     1      10.589  14.240  18.674  0.00  0.00    +0.000 NA
ATOM     18  C   UNL     1      10.128  13.183  18.602  0.00  0.00    +0.000 C 
ENDBRANCH  11  18
ENDBRANCH   1  14
BRANCH   6  19
ATOM     19  N   UNL     1       4.642   3.730  17.793  0.00  0.00    +0.000 N 
ATOM     20  C   UNL     1       3.477   3.140  17.142  0.00  0.00    +0.000 C 
ATOM     21  C   UNL     1       2.181   3.691  17.734  0.00  0.00    +0.000 C 
ATOM     22  C   UNL     1       2.174   3.609  19.259  0.00  0.00    +0.000 C 
ATOM     23  C   UNL     1       3.419   4.268  19.844  0.00  0.00    +0.000 C 
ATOM     24  C   UNL     1       4.699   3.677  19.250  0.00  0.00    +0.000 C 
ENDBRANCH   6  19
TORSDOF 3
ENDMDL
MODEL 8
REMARK VINA RESULT:      -7.2      5.974      7.381
REMARK  Name = 
REMARK  3 active torsions:
REMARK  status: ('A' for Active; 'I' for Inactive)
REMARK    1  A    between atoms: C_2  and  C_3
REMARK    2  A    between atoms: C_6  and  C_7
REMARK    3  A    between atoms: C_12  and  N_13
REMARK                            x       y       z     vdW  Elec       q    Type
REMARK                         _______ _______ _______ _____ _____    ______ ____
ROOT
ATOM      1  C   UNL     1       7.923   8.070  18.182  0.00  0.00    +0.000 C 
ATOM      2  O   UNL     1       7.905   7.313  19.147  0.00  0.00    +0.000 OA
ATOM      3  N   UNL     1       7.440   7.743  16.929  0.00  0.00    +0.000 N 
ATOM      4  C   UNL     1       6.894   6.475  16.668  0.00  0.00    +0.000 A 
ATOM      5  C   UNL     1       5.944   5.913  17.498  0.00  0.00    +0.000 A 
ATOM      6  C   UNL     1       5.483   4.645  17.191  0.00  0.00    +0.000 A 
ATOM      7  N   UNL     1       6.016   3.974  16.155  0.00  0.00    +0.000 NA
ATOM      8  C   UNL     1       6.913   4.621  15.395  0.00  0.00    +0.000 A 
ATOM      9  N   UNL     1       7.345   5.877  15.561  0.00  0.00    +0.000 NA
ATOM     10  H   UNL     1       7.901   8.146  16.126  0.00  0.00    +0.000 HD
ENDROOT
BRANCH   1  14
ATOM     11  C   UNL     1       9.708  11.935  18.864  0.00  0.00    +0.000 A 
ATOM     12  C   UNL     1       9.923  10.876  19.747  0.00  0.00    +0.000 A 
ATOM     13  C   UNL     1       9.353   9.626  19.488  0.00  0.00    +0.000 A 
ATOM     14  C   UNL     1       8.560   9.415  18.347  0.00  0.00    +0.000 A 
ATOM     15  C   UNL     1       8.352  10.479  17.461  0.00  0.00    +0.000 A 
ATOM     16  C   UNL     1       8.927  11.733  17.720  0.00  0.00    +0.000 A 
BRANCH  11  18
ATOM     17  N   UNL     1      10.726  14.268  19.360  0.00  0.00    +0.000 NA
ATOM     18  C   UNL     1      10.275  13.228  19.137  0.00  0.00    +0.000 C 
ENDBRANCH  11  18
ENDBRANCH   1  14
BRANCH   6  19
ATOM     19  N   UNL     1       4.479   4.048  17.927  0.00  0.00    +0.000 N 
ATOM     20  C   UNL     1       4.696   3.717  19.333  0.00  0.00    +0.000 C 
ATOM     21  C   UNL     1       4.493   2.223  19.581  0.00  0.00    +0.000 C 
ATOM     22  C   UNL     1       3.170   1.726  19.001  0.00  0.00    +0.000 C 
ATOM     23  C   UNL     1       3.048   2.103  17.528  0.00  0.00    +0.000 C 
ATOM     24  C   UNL     1       3.230   3.607  17.317  0.00  0.00    +0.000 C 
ENDBRANCH   6  19
TORSDOF 3
ENDMDL
MODEL 9
REMARK VINA RESULT:      -7.2      1.009      1.381
REMARK  Name = 
REMARK  3 active torsions:
REMARK  status: ('A' for Active; 'I' for Inactive)
REMARK    1  A    between atoms: C_2  and  C_3
REMARK    2  A    between atoms: C_6  and  C_7
REMARK    3  A    between atoms: C_12  and  N_13
REMARK                            x       y       z     vdW  Elec       q    Type
REMARK                         _______ _______ _______ _____ _____    ______ ____
ROOT
ATOM      1  C   UNL     1       1.215   8.814  19.942  0.00  0.00    +0.000 C 
ATOM      2  O   UNL     1       1.136   8.886  18.719  0.00  0.00    +0.000 OA
ATOM      3  N   UNL     1       1.765   7.745  20.623  0.00  0.00    +0.000 N 
ATOM      4  C   UNL     1       2.272   6.629  19.936  0.00  0.00    +0.000 A 
ATOM      5  C   UNL     1       3.140   6.768  18.871  0.00  0.00    +0.000 A 
ATOM      6  C   UNL     1       3.566   5.620  18.225  0.00  0.00    +0.000 A 
ATOM      7  N   UNL     1       3.074   4.426  18.597  0.00  0.00    +0.000 NA
ATOM      8  C   UNL     1       2.258   4.396  19.662  0.00  0.00    +0.000 A 
ATOM      9  N   UNL     1       1.870   5.442  20.402  0.00  0.00    +0.000 NA
ATOM     10  H   UNL     1       1.377   7.509  21.524  0.00  0.00    +0.000 HD
ENDROOT
BRANCH   1  14
ATOM     11  C   UNL     1      -0.645  11.887  22.326  0.00  0.00    +0.000 A 
ATOM     12  C   UNL     1      -0.656  10.552  22.734  0.00  0.00    +0.000 A 
ATOM     13  C   UNL     1      -0.022   9.580  21.955  0.00  0.00    +0.000 A 
ATOM     14  C   UNL     1       0.627   9.923  20.757  0.00  0.00    +0.000 A 
ATOM     15  C   UNL     1       0.640  11.265  20.354  0.00  0.00    +0.000 A 
ATOM     16  C   UNL     1       0.007  12.241  21.138  0.00  0.00    +0.000 A 
BRANCH  11  18
ATOM     17  N   UNL     1      -1.850  13.687  23.751  0.00  0.00    +0.000 NA
ATOM     18  C   UNL     1      -1.313  12.887  23.114  0.00  0.00    +0.000 C 
ENDBRANCH  11  18
ENDBRANCH   1  14
BRANCH   6  19
ATOM     19  N   UNL     1       4.491   5.672  17.202  0.00  0.00    +0.000 N 
ATOM     20  C   UNL     1       4.671   4.528  16.315  0.00  0.00    +0.000 C 
ATOM     21  C   UNL     1       6.116   4.031  16.347  0.00  0.00    +0.000 C 
ATOM     22  C   UNL     1       7.112   5.170  16.136  0.00  0.00    +0.000 C 
ATOM     23  C   UNL     1       6.854   6.306  17.121  0.00  0.00    +0.000 C 
ATOM     24  C   UNL     1       5.407   6.797  17.046  0.00  0.00    +0.000 C 
ENDBRANCH   6  19
TORSDOF 3
ENDMDL
