MODEL 1
REMARK VINA RESULT:      -8.7      0.000      0.000
REMARK  Name = 
REMARK  8 active torsions:
REMARK  status: ('A' for Active; 'I' for Inactive)
REMARK    1  A    between atoms: C_2  and  O_3
REMARK    2  A    between atoms: C_2  and  C_4
REMARK    3  A    between atoms: N_8  and  C_9
REMARK    4  A    between atoms: C_9  and  C_10
REMARK    5  A    between atoms: C_10  and  O_11
REMARK    6  A    between atoms: O_11  and  C_12
REMARK    7  A    between atoms: C_13  and  C_14
REMARK    8  A    between atoms: C_13  and  C_21
REMARK                            x       y       z     vdW  Elec       q    Type
REMARK                         _______ _______ _______ _____ _____    ______ ____
ROOT
ATOM      1  C   UNL     1       3.225   7.163  17.459  0.00  0.00    +0.000 C 
ATOM      2  C   UNL     1       3.597   5.934  17.865  0.00  0.00    +0.000 C 
ENDROOT
BRANCH   2   3
ATOM      3  C   UNL     1       2.657   5.175  18.718  0.00  0.00    +0.000 A 
ATOM      4  C   UNL     1       2.597   5.398  20.101  0.00  0.00    +0.000 A 
ATOM      5  C   UNL     1       1.784   4.600  20.912  0.00  0.00    +0.000 A 
ATOM      6  C   UNL     1       1.026   3.577  20.345  0.00  0.00    +0.000 A 
ATOM      7  C   UNL     1       1.081   3.366  18.973  0.00  0.00    +0.000 A 
ATOM      8  F   UNL     1       0.359   2.377  18.428  0.00  0.00    +0.000 F 
ATOM      9  C   UNL     1       1.886   4.153  18.155  0.00  0.00    +0.000 A 
ENDBRANCH   2   3
BRANCH   2  10
ATOM     10  C   UNL     1       4.946   5.471  17.489  0.00  0.00    +0.000 A 
ATOM     11  C   UNL     1       5.993   5.470  18.421  0.00  0.00    +0.000 A 
ATOM     12  C   UNL     1       7.262   4.997  18.063  0.00  0.00    +0.000 A 
ATOM     13  C   UNL     1       7.486   4.521  16.772  0.00  0.00    +0.000 A 
ATOM     14  C   UNL     1       6.446   4.528  15.851  0.00  0.00    +0.000 A 
ATOM     15  F   UNL     1       6.661   4.066  14.612  0.00  0.00    +0.000 F 
ATOM     16  C   UNL     1       5.183   4.997  16.194  0.00  0.00    +0.000 A 
ENDBRANCH   2  10
BRANCH   1  17
ATOM     17  O   UNL     1       1.995   7.695  17.740  0.00  0.00    +0.000 OA
BRANCH  17  18
ATOM     18  C   UNL     1       2.031   9.066  18.140  0.00  0.00    +0.000 C 
BRANCH  18  19
ATOM     19  C   UNL     1       0.636   9.688  17.907  0.00  0.00    +0.000 C 
BRANCH  19  24
ATOM     20  C   UNL     1       0.161  10.198  21.648  0.00  0.00    +0.000 C 
ATOM     21  C   UNL     1      -0.708  11.228  21.691  0.00  0.00    +0.000 C 
ATOM     22  C   UNL     1      -1.298  11.777  20.435  0.00  0.00    +0.000 C 
ATOM     23  C   UNL     1      -0.460  11.445  19.200  0.00  0.00    +0.000 C 
ATOM     24  N   UNL     1      -0.119  10.020  19.141  0.00  0.00    +0.000 NA
ATOM     25  C   UNL     1       0.624   9.573  20.347  0.00  0.00    +0.000 C 
BRANCH  20  27
ATOM     26  O   UNL     1       0.207   9.639  23.960  0.00  0.00    +0.000 OA
ATOM     27  C   UNL     1       0.782   9.657  22.880  0.00  0.00    +0.000 C 
BRANCH  27  28
ATOM     28  O   UNL     1       2.043   9.203  22.724  0.00  0.00    +0.000 OA
ATOM     29  H   UNL     1       2.140   8.534  22.021  0.00  0.00    +0.000 HD
ENDBRANCH  27  28
ENDBRANCH  20  27
ENDBRANCH  19  24
ENDBRANCH  18  19
ENDBRANCH  17  18
ENDBRANCH   1  17
TORSDOF 8
ENDMDL
MODEL 2
REMARK VINA RESULT:      -8.6      3.837      8.328
REMARK  Name = 
REMARK  8 active torsions:
REMARK  status: ('A' for Active; 'I' for Inactive)
REMARK    1  A    between atoms: C_2  and  O_3
REMARK    2  A    between atoms: C_2  and  C_4
REMARK    3  A    between atoms: N_8  and  C_9
REMARK    4  A    between atoms: C_9  and  C_10
REMARK    5  A    between atoms: C_10  and  O_11
REMARK    6  A    between atoms: O_11  and  C_12
REMARK    7  A    between atoms: C_13  and  C_14
REMARK    8  A    between atoms: C_13  and  C_21
REMARK                            x       y       z     vdW  Elec       q    Type
REMARK                         _______ _______ _______ _____ _____    ______ ____
ROOT
ATOM      1  C   UNL     1       4.168   5.901  18.489  0.00  0.00    +0.000 C 
ATOM      2  C   UNL     1       2.970   6.083  19.078  0.00  0.00    +0.000 C 
ENDROOT
BRANCH   2   3
ATOM      3  C   UNL     1       2.304   4.903  19.669  0.00  0.00    +0.000 A 
ATOM      4  C   UNL     1       2.520   4.548  21.008  0.00  0.00    +0.000 A 
ATOM      5  C   UNL     1       1.971   3.370  21.525  0.00  0.00    +0.000 A 
ATOM      6  C   UNL     1       1.202   2.544  20.707  0.00  0.00    +0.000 A 
ATOM      7  C   UNL     1       0.982   2.906  19.385  0.00  0.00    +0.000 A 
ATOM      8  F   UNL     1       0.248   2.107  18.596  0.00  0.00    +0.000 F 
ATOM      9  C   UNL     1       1.522   4.074  18.858  0.00  0.00    +0.000 A 
ENDBRANCH   2   3
BRANCH   2  10
ATOM     10  C   UNL     1       2.381   7.434  19.018  0.00  0.00    +0.000 A 
ATOM     11  C   UNL     1       2.479   8.213  17.857  0.00  0.00    +0.000 A 
ATOM     12  C   UNL     1       1.885   9.481  17.801  0.00  0.00    +0.000 A 
ATOM     13  C   UNL     1       1.191   9.972  18.905  0.00  0.00    +0.000 A 
ATOM     14  C   UNL     1       1.099   9.197  20.055  0.00  0.00    +0.000 A 
ATOM     15  F   UNL     1       0.428   9.668  21.114  0.00  0.00    +0.000 F 
ATOM     16  C   UNL     1       1.686   7.938  20.124  0.00  0.00    +0.000 A 
ENDBRANCH   2  10
BRANCH   1  17
ATOM     17  O   UNL     1       4.815   4.694  18.487  0.00  0.00    +0.000 OA
BRANCH  17  18
ATOM     18  C   UNL     1       5.879   4.606  17.537  0.00  0.00    +0.000 C 
BRANCH  18  19
ATOM     19  C   UNL     1       5.312   4.899  16.130  0.00  0.00    +0.000 C 
BRANCH  19  24
ATOM     20  C   UNL     1       5.972   3.497  12.653  0.00  0.00    +0.000 C 
ATOM     21  C   UNL     1       7.114   4.121  12.302  0.00  0.00    +0.000 C 
ATOM     22  C   UNL     1       7.826   5.006  13.272  0.00  0.00    +0.000 C 
ATOM     23  C   UNL     1       6.909   5.510  14.386  0.00  0.00    +0.000 C 
ATOM     24  N   UNL     1       6.149   4.417  15.002  0.00  0.00    +0.000 NA
ATOM     25  C   UNL     1       5.322   3.683  14.010  0.00  0.00    +0.000 C 
BRANCH  20  27
ATOM     26  O   UNL     1       4.176   2.977  11.183  0.00  0.00    +0.000 OA
ATOM     27  C   UNL     1       5.233   2.638  11.698  0.00  0.00    +0.000 C 
BRANCH  27  28
ATOM     28  O   UNL     1       5.805   1.441  11.454  0.00  0.00    +0.000 OA
ATOM     29  H   UNL     1       5.762   1.163  10.520  0.00  0.00    +0.000 HD
ENDBRANCH  27  28
ENDBRANCH  20  27
ENDBRANCH  19  24
ENDBRANCH  18  19
ENDBRANCH  17  18
ENDBRANCH   1  17
TORSDOF 8
ENDMDL
MODEL 3
REMARK VINA RESULT:      -8.6      3.528      7.922
REMARK  Name = 
REMARK  8 active torsions:
REMARK  status: ('A' for Active; 'I' for Inactive)
REMARK    1  A    between atoms: C_2  and  O_3
REMARK    2  A    between atoms: C_2  and  C_4
REMARK    3  A    between atoms: N_8  and  C_9
REMARK    4  A    between atoms: C_9  and  C_10
REMARK    5  A    between atoms: C_10  and  O_11
REMARK    6  A    between atoms: O_11  and  C_12
REMARK    7  A    between atoms: C_13  and  C_14
REMARK    8  A    between atoms: C_13  and  C_21
REMARK                            x       y       z     vdW  Elec       q    Type
REMARK                         _______ _______ _______ _____ _____    ______ ____
ROOT
ATOM      1  C   UNL     1       4.334   6.291  19.228  0.00  0.00    +0.000 C 
ATOM      2  C   UNL     1       2.989   6.246  19.292  0.00  0.00    +0.000 C 
ENDROOT
BRANCH   2   3
ATOM      3  C   UNL     1       2.344   4.918  19.367  0.00  0.00    +0.000 A 
ATOM      4  C   UNL     1       1.954   4.239  18.203  0.00  0.00    +0.000 A 
ATOM      5  C   UNL     1       1.249   3.034  18.290  0.00  0.00    +0.000 A 
ATOM      6  C   UNL     1       0.933   2.501  19.539  0.00  0.00    +0.000 A 
ATOM      7  C   UNL     1       1.331   3.173  20.688  0.00  0.00    +0.000 A 
ATOM      8  F   UNL     1       1.019   2.666  21.890  0.00  0.00    +0.000 F 
ATOM      9  C   UNL     1       2.032   4.371  20.616  0.00  0.00    +0.000 A 
ENDBRANCH   2   3
BRANCH   2  10
ATOM     10  C   UNL     1       2.260   7.525  19.203  0.00  0.00    +0.000 A 
ATOM     11  C   UNL     1       2.159   8.216  17.987  0.00  0.00    +0.000 A 
ATOM     12  C   UNL     1       1.436   9.413  17.908  0.00  0.00    +0.000 A 
ATOM     13  C   UNL     1       0.809   9.922  19.044  0.00  0.00    +0.000 A 
ATOM     14  C   UNL     1       0.915   9.235  20.248  0.00  0.00    +0.000 A 
ATOM     15  F   UNL     1       0.308   9.723  21.339  0.00  0.00    +0.000 F 
ATOM     16  C   UNL     1       1.632   8.048  20.340  0.00  0.00    +0.000 A 
ENDBRANCH   2  10
BRANCH   1  17
ATOM     17  O   UNL     1       5.116   5.170  19.308  0.00  0.00    +0.000 OA
BRANCH  17  18
ATOM     18  C   UNL     1       6.519   5.434  19.257  0.00  0.00    +0.000 C 
BRANCH  18  19
ATOM     19  C   UNL     1       7.125   4.662  18.063  0.00  0.00    +0.000 C 
BRANCH  19  24
ATOM     20  C   UNL     1       6.823   4.822  14.272  0.00  0.00    +0.000 C 
ATOM     21  C   UNL     1       5.584   4.335  14.061  0.00  0.00    +0.000 C 
ATOM     22  C   UNL     1       4.690   4.004  15.210  0.00  0.00    +0.000 C 
ATOM     23  C   UNL     1       5.466   3.773  16.507  0.00  0.00    +0.000 C 
ATOM     24  N   UNL     1       6.423   4.854  16.769  0.00  0.00    +0.000 NA
ATOM     25  C   UNL     1       7.399   5.017  15.661  0.00  0.00    +0.000 C 
BRANCH  20  27
ATOM     26  O   UNL     1       8.686   5.894  13.253  0.00  0.00    +0.000 OA
ATOM     27  C   UNL     1       7.738   5.128  13.147  0.00  0.00    +0.000 C 
BRANCH  27  28
ATOM     28  O   UNL     1       7.431   4.513  11.986  0.00  0.00    +0.000 OA
ATOM     29  H   UNL     1       7.904   3.671  11.846  0.00  0.00    +0.000 HD
ENDBRANCH  27  28
ENDBRANCH  20  27
ENDBRANCH  19  24
ENDBRANCH  18  19
ENDBRANCH  17  18
ENDBRANCH   1  17
TORSDOF 8
ENDMDL
MODEL 4
REMARK VINA RESULT:      -8.5      1.176      1.650
REMARK  Name = 
REMARK  8 active torsions:
REMARK  status: ('A' for Active; 'I' for Inactive)
REMARK    1  A    between atoms: C_2  and  O_3
REMARK    2  A    between atoms: C_2  and  C_4
REMARK    3  A    between atoms: N_8  and  C_9
REMARK    4  A    between atoms: C_9  and  C_10
REMARK    5  A    between atoms: C_10  and  O_11
REMARK    6  A    between atoms: O_11  and  C_12
REMARK    7  A    between atoms: C_13  and  C_14
REMARK    8  A    between atoms: C_13  and  C_21
REMARK                            x       y       z     vdW  Elec       q    Type
REMARK                         _______ _______ _______ _____ _____    ______ ____
ROOT
ATOM      1  C   UNL     1       3.203   7.115  17.644  0.00  0.00    +0.000 C 
ATOM      2  C   UNL     1       3.549   5.834  17.878  0.00  0.00    +0.000 C 
ENDROOT
BRANCH   2   3
ATOM      3  C   UNL     1       2.696   5.043  18.791  0.00  0.00    +0.000 A 
ATOM      4  C   UNL     1       2.823   5.163  20.182  0.00  0.00    +0.000 A 
ATOM      5  C   UNL     1       2.088   4.332  21.034  0.00  0.00    +0.000 A 
ATOM      6  C   UNL     1       1.221   3.381  20.499  0.00  0.00    +0.000 A 
ATOM      7  C   UNL     1       1.091   3.274  19.120  0.00  0.00    +0.000 A 
ATOM      8  F   UNL     1       0.263   2.353  18.606  0.00  0.00    +0.000 F 
ATOM      9  C   UNL     1       1.816   4.093  18.263  0.00  0.00    +0.000 A 
ENDBRANCH   2   3
BRANCH   2  10
ATOM     10  C   UNL     1       4.797   5.343  17.265  0.00  0.00    +0.000 A 
ATOM     11  C   UNL     1       4.886   5.130  15.882  0.00  0.00    +0.000 A 
ATOM     12  C   UNL     1       6.088   4.696  15.306  0.00  0.00    +0.000 A 
ATOM     13  C   UNL     1       7.204   4.476  16.112  0.00  0.00    +0.000 A 
ATOM     14  C   UNL     1       7.109   4.686  17.482  0.00  0.00    +0.000 A 
ATOM     15  F   UNL     1       8.184   4.478  18.255  0.00  0.00    +0.000 F 
ATOM     16  C   UNL     1       5.922   5.114  18.066  0.00  0.00    +0.000 A 
ENDBRANCH   2  10
BRANCH   1  17
ATOM     17  O   UNL     1       2.063   7.678  18.153  0.00  0.00    +0.000 OA
BRANCH  17  18
ATOM     18  C   UNL     1       2.023   9.103  18.053  0.00  0.00    +0.000 C 
BRANCH  18  19
ATOM     19  C   UNL     1       0.546   9.556  18.020  0.00  0.00    +0.000 C 
BRANCH  19  24
ATOM     20  C   UNL     1      -0.053  11.147  21.425  0.00  0.00    +0.000 C 
ATOM     21  C   UNL     1       0.404  12.402  21.241  0.00  0.00    +0.000 C 
ATOM     22  C   UNL     1       0.864  12.854  19.895  0.00  0.00    +0.000 C 
ATOM     23  C   UNL     1       1.245  11.687  18.984  0.00  0.00    +0.000 C 
ATOM     24  N   UNL     1       0.204  10.654  18.958  0.00  0.00    +0.000 NA
ATOM     25  C   UNL     1      -0.085  10.117  20.313  0.00  0.00    +0.000 C 
BRANCH  20  27
ATOM     26  O   UNL     1       0.204   9.936  23.457  0.00  0.00    +0.000 OA
ATOM     27  C   UNL     1      -0.486  10.667  22.759  0.00  0.00    +0.000 C 
BRANCH  27  28
ATOM     28  O   UNL     1      -1.713  11.082  23.137  0.00  0.00    +0.000 OA
ATOM     29  H   UNL     1      -1.706  11.727  23.869  0.00  0.00    +0.000 HD
ENDBRANCH  27  28
ENDBRANCH  20  27
ENDBRANCH  19  24
ENDBRANCH  18  19
ENDBRANCH  17  18
ENDBRANCH   1  17
TORSDOF 8
ENDMDL
MODEL 5
REMARK VINA RESULT:      -8.5      2.124      3.097
REMARK  Name = 
REMARK  8 active torsions:
REMARK  status: ('A' for Active; 'I' for Inactive)
REMARK    1  A    between atoms: C_2  and  O_3
REMARK    2  A    between atoms: C_2  and  C_4
REMARK    3  A    between atoms: N_8  and  C_9
REMARK    4  A    between atoms: C_9  and  C_10
REMARK    5  A    between atoms: C_10  and  O_11
REMARK    6  A    between atoms: O_11  and  C_12
REMARK    7  A    between atoms: C_13  and  C_14
REMARK    8  A    between atoms: C_13  and  C_21
REMARK                            x       y       z     vdW  Elec       q    Type
REMARK                         _______ _______ _______ _____ _____    ______ ____
ROOT
ATOM      1  C   UNL     1       3.168   7.104  17.628  0.00  0.00    +0.000 C 
ATOM      2  C   UNL     1       3.534   5.861  17.994  0.00  0.00    +0.000 C 
ENDROOT
BRANCH   2   3
ATOM      3  C   UNL     1       2.594   5.079  18.825  0.00  0.00    +0.000 A 
ATOM      4  C   UNL     1       2.533   5.265  20.214  0.00  0.00    +0.000 A 
ATOM      5  C   UNL     1       1.719   4.446  21.003  0.00  0.00    +0.000 A 
ATOM      6  C   UNL     1       0.960   3.440  20.407  0.00  0.00    +0.000 A 
ATOM      7  C   UNL     1       1.016   3.267  19.030  0.00  0.00    +0.000 A 
ATOM      8  F   UNL     1       0.292   2.293  18.458  0.00  0.00    +0.000 F 
ATOM      9  C   UNL     1       1.821   4.074  18.234  0.00  0.00    +0.000 A 
ENDBRANCH   2   3
BRANCH   2  10
ATOM     10  C   UNL     1       4.880   5.404  17.599  0.00  0.00    +0.000 A 
ATOM     11  C   UNL     1       5.114   4.865  16.326  0.00  0.00    +0.000 A 
ATOM     12  C   UNL     1       6.404   4.466  15.950  0.00  0.00    +0.000 A 
ATOM     13  C   UNL     1       7.462   4.606  16.846  0.00  0.00    +0.000 A 
ATOM     14  C   UNL     1       7.224   5.137  18.108  0.00  0.00    +0.000 A 
ATOM     15  F   UNL     1       8.243   5.276  18.967  0.00  0.00    +0.000 F 
ATOM     16  C   UNL     1       5.948   5.535  18.493  0.00  0.00    +0.000 A 
ENDBRANCH   2  10
BRANCH   1  17
ATOM     17  O   UNL     1       1.941   7.633  17.930  0.00  0.00    +0.000 OA
BRANCH  17  18
ATOM     18  C   UNL     1       1.950   9.048  18.129  0.00  0.00    +0.000 C 
BRANCH  18  19
ATOM     19  C   UNL     1       1.152   9.373  19.413  0.00  0.00    +0.000 C 
BRANCH  19  24
ATOM     20  C   UNL     1      -1.921  11.300  18.258  0.00  0.00    +0.000 C 
ATOM     21  C   UNL     1      -2.193  12.074  19.326  0.00  0.00    +0.000 C 
ATOM     22  C   UNL     1      -1.282  12.088  20.508  0.00  0.00    +0.000 C 
ATOM     23  C   UNL     1      -0.410  10.835  20.589  0.00  0.00    +0.000 C 
ATOM     24  N   UNL     1       0.253  10.549  19.312  0.00  0.00    +0.000 NA
ATOM     25  C   UNL     1      -0.722  10.372  18.205  0.00  0.00    +0.000 C 
BRANCH  20  27
ATOM     26  O   UNL     1      -4.028  11.464  17.166  0.00  0.00    +0.000 OA
ATOM     27  C   UNL     1      -2.826  11.247  17.085  0.00  0.00    +0.000 C 
BRANCH  27  28
ATOM     28  O   UNL     1      -2.226  10.921  15.922  0.00  0.00    +0.000 OA
ATOM     29  H   UNL     1      -2.135  11.666  15.299  0.00  0.00    +0.000 HD
ENDBRANCH  27  28
ENDBRANCH  20  27
ENDBRANCH  19  24
ENDBRANCH  18  19
ENDBRANCH  17  18
ENDBRANCH   1  17
TORSDOF 8
ENDMDL
MODEL 6
REMARK VINA RESULT:      -8.5      0.761      1.068
REMARK  Name = 
REMARK  8 active torsions:
REMARK  status: ('A' for Active; 'I' for Inactive)
REMARK    1  A    between atoms: C_2  and  O_3
REMARK    2  A    between atoms: C_2  and  C_4
REMARK    3  A    between atoms: N_8  and  C_9
REMARK    4  A    between atoms: C_9  and  C_10
REMARK    5  A    between atoms: C_10  and  O_11
REMARK    6  A    between atoms: O_11  and  C_12
REMARK    7  A    between atoms: C_13  and  C_14
REMARK    8  A    between atoms: C_13  and  C_21
REMARK                            x       y       z     vdW  Elec       q    Type
REMARK                         _______ _______ _______ _____ _____    ______ ____
ROOT
ATOM      1  C   UNL     1       3.350   7.159  18.102  0.00  0.00    +0.000 C 
ATOM      2  C   UNL     1       3.652   5.854  18.244  0.00  0.00    +0.000 C 
ENDROOT
BRANCH   2   3
ATOM      3  C   UNL     1       2.722   5.010  19.024  0.00  0.00    +0.000 A 
ATOM      4  C   UNL     1       2.732   5.031  20.427  0.00  0.00    +0.000 A 
ATOM      5  C   UNL     1       1.924   4.150  21.153  0.00  0.00    +0.000 A 
ATOM      6  C   UNL     1       1.101   3.247  20.482  0.00  0.00    +0.000 A 
ATOM      7  C   UNL     1       1.087   3.238  19.093  0.00  0.00    +0.000 A 
ATOM      8  F   UNL     1       0.301   2.363  18.448  0.00  0.00    +0.000 F 
ATOM      9  C   UNL     1       1.885   4.107  18.359  0.00  0.00    +0.000 A 
ENDBRANCH   2   3
BRANCH   2  10
ATOM     10  C   UNL     1       4.929   5.384  17.675  0.00  0.00    +0.000 A 
ATOM     11  C   UNL     1       6.096   5.353  18.451  0.00  0.00    +0.000 A 
ATOM     12  C   UNL     1       7.296   4.873  17.909  0.00  0.00    +0.000 A 
ATOM     13  C   UNL     1       7.331   4.422  16.591  0.00  0.00    +0.000 A 
ATOM     14  C   UNL     1       6.172   4.458  15.825  0.00  0.00    +0.000 A 
ATOM     15  F   UNL     1       6.206   4.020  14.559  0.00  0.00    +0.000 F 
ATOM     16  C   UNL     1       4.976   4.934  16.350  0.00  0.00    +0.000 A 
ENDBRANCH   2  10
BRANCH   1  17
ATOM     17  O   UNL     1       2.190   7.706  18.581  0.00  0.00    +0.000 OA
BRANCH  17  18
ATOM     18  C   UNL     1       1.580   8.646  17.695  0.00  0.00    +0.000 C 
BRANCH  18  19
ATOM     19  C   UNL     1       1.690  10.057  18.317  0.00  0.00    +0.000 C 
BRANCH  19  24
ATOM     20  C   UNL     1      -0.477  11.004  21.300  0.00  0.00    +0.000 C 
ATOM     21  C   UNL     1      -1.187  12.044  20.821  0.00  0.00    +0.000 C 
ATOM     22  C   UNL     1      -1.068  12.453  19.390  0.00  0.00    +0.000 C 
ATOM     23  C   UNL     1       0.233  11.968  18.750  0.00  0.00    +0.000 C 
ATOM     24  N   UNL     1       0.463  10.540  18.998  0.00  0.00    +0.000 NA
ATOM     25  C   UNL     1       0.508  10.225  20.449  0.00  0.00    +0.000 C 
BRANCH  20  27
ATOM     26  O   UNL     1       0.349  10.011  23.297  0.00  0.00    +0.000 OA
ATOM     27  C   UNL     1      -0.557  10.600  22.724  0.00  0.00    +0.000 C 
BRANCH  27  28
ATOM     28  O   UNL     1      -1.717  10.913  23.335  0.00  0.00    +0.000 OA
ATOM     29  H   UNL     1      -2.314  10.152  23.468  0.00  0.00    +0.000 HD
ENDBRANCH  27  28
ENDBRANCH  20  27
ENDBRANCH  19  24
ENDBRANCH  18  19
ENDBRANCH  17  18
ENDBRANCH   1  17
TORSDOF 8
ENDMDL
MODEL 7
REMARK VINA RESULT:      -8.5      2.085      2.787
REMARK  Name = 
REMARK  8 active torsions:
REMARK  status: ('A' for Active; 'I' for Inactive)
REMARK    1  A    between atoms: C_2  and  O_3
REMARK    2  A    between atoms: C_2  and  C_4
REMARK    3  A    between atoms: N_8  and  C_9
REMARK    4  A    between atoms: C_9  and  C_10
REMARK    5  A    between atoms: C_10  and  O_11
REMARK    6  A    between atoms: O_11  and  C_12
REMARK    7  A    between atoms: C_13  and  C_14
REMARK    8  A    between atoms: C_13  and  C_21
REMARK                            x       y       z     vdW  Elec       q    Type
REMARK                         _______ _______ _______ _____ _____    ______ ____
ROOT
ATOM      1  C   UNL     1       3.196   7.005  17.642  0.00  0.00    +0.000 C 
ATOM      2  C   UNL     1       3.572   5.774  18.040  0.00  0.00    +0.000 C 
ENDROOT
BRANCH   2   3
ATOM      3  C   UNL     1       2.621   4.991  18.858  0.00  0.00    +0.000 A 
ATOM      4  C   UNL     1       2.563   5.154  20.250  0.00  0.00    +0.000 A 
ATOM      5  C   UNL     1       1.738   4.332  21.025  0.00  0.00    +0.000 A 
ATOM      6  C   UNL     1       0.966   3.347  20.412  0.00  0.00    +0.000 A 
ATOM      7  C   UNL     1       1.019   3.197  19.032  0.00  0.00    +0.000 A 
ATOM      8  F   UNL     1       0.283   2.243  18.444  0.00  0.00    +0.000 F 
ATOM      9  C   UNL     1       1.835   4.007  18.251  0.00  0.00    +0.000 A 
ENDBRANCH   2   3
BRANCH   2  10
ATOM     10  C   UNL     1       4.936   5.334  17.694  0.00  0.00    +0.000 A 
ATOM     11  C   UNL     1       5.205   4.721  16.462  0.00  0.00    +0.000 A 
ATOM     12  C   UNL     1       6.511   4.337  16.129  0.00  0.00    +0.000 A 
ATOM     13  C   UNL     1       7.552   4.569  17.027  0.00  0.00    +0.000 A 
ATOM     14  C   UNL     1       7.280   5.175  18.248  0.00  0.00    +0.000 A 
ATOM     15  F   UNL     1       8.282   5.401  19.108  0.00  0.00    +0.000 F 
ATOM     16  C   UNL     1       5.988   5.557  18.590  0.00  0.00    +0.000 A 
ENDBRANCH   2  10
BRANCH   1  17
ATOM     17  O   UNL     1       1.951   7.517  17.898  0.00  0.00    +0.000 OA
BRANCH  17  18
ATOM     18  C   UNL     1       1.965   8.851  18.409  0.00  0.00    +0.000 C 
BRANCH  18  19
ATOM     19  C   UNL     1       1.322   8.850  19.815  0.00  0.00    +0.000 C 
BRANCH  19  24
ATOM     20  C   UNL     1      -0.297  12.286  19.562  0.00  0.00    +0.000 C 
ATOM     21  C   UNL     1      -0.825  12.446  20.791  0.00  0.00    +0.000 C 
ATOM     22  C   UNL     1      -0.583  11.434  21.862  0.00  0.00    +0.000 C 
ATOM     23  C   UNL     1      -0.187  10.070  21.298  0.00  0.00    +0.000 C 
ATOM     24  N   UNL     1       0.892  10.182  20.309  0.00  0.00    +0.000 NA
ATOM     25  C   UNL     1       0.521  11.069  19.176  0.00  0.00    +0.000 C 
BRANCH  20  27
ATOM     26  O   UNL     1      -0.299  14.455  18.586  0.00  0.00    +0.000 OA
ATOM     27  C   UNL     1      -0.548  13.263  18.476  0.00  0.00    +0.000 C 
BRANCH  27  28
ATOM     28  O   UNL     1      -1.095  12.737  17.360  0.00  0.00    +0.000 OA
ATOM     29  H   UNL     1      -1.712  13.337  16.900  0.00  0.00    +0.000 HD
ENDBRANCH  27  28
ENDBRANCH  20  27
ENDBRANCH  19  24
ENDBRANCH  18  19
ENDBRANCH  17  18
ENDBRANCH   1  17
TORSDOF 8
ENDMDL
MODEL 8
REMARK VINA RESULT:      -8.4      3.949      8.482
REMARK  Name = 
REMARK  8 active torsions:
REMARK  status: ('A' for Active; 'I' for Inactive)
REMARK    1  A    between atoms: C_2  and  O_3
REMARK    2  A    between atoms: C_2  and  C_4
REMARK    3  A    between atoms: N_8  and  C_9
REMARK    4  A    between atoms: C_9  and  C_10
REMARK    5  A    between atoms: C_10  and  O_11
REMARK    6  A    between atoms: O_11  and  C_12
REMARK    7  A    between atoms: C_13  and  C_14
REMARK    8  A    between atoms: C_13  and  C_21
REMARK                            x       y       z     vdW  Elec       q    Type
REMARK                         _______ _______ _______ _____ _____    ______ ____
ROOT
ATOM      1  C   UNL     1       4.198   5.753  18.000  0.00  0.00    +0.000 C 
ATOM      2  C   UNL     1       3.037   5.887  18.671  0.00  0.00    +0.000 C 
ENDROOT
BRANCH   2   3
ATOM      3  C   UNL     1       2.384   4.660  19.173  0.00  0.00    +0.000 A 
ATOM      4  C   UNL     1       1.492   3.935  18.368  0.00  0.00    +0.000 A 
ATOM      5  C   UNL     1       0.798   2.839  18.890  0.00  0.00    +0.000 A 
ATOM      6  C   UNL     1       0.993   2.460  20.217  0.00  0.00    +0.000 A 
ATOM      7  C   UNL     1       1.885   3.175  21.007  0.00  0.00    +0.000 A 
ATOM      8  F   UNL     1       2.066   2.816  22.286  0.00  0.00    +0.000 F 
ATOM      9  C   UNL     1       2.581   4.266  20.501  0.00  0.00    +0.000 A 
ENDBRANCH   2   3
BRANCH   2  10
ATOM     10  C   UNL     1       2.469   7.243  18.784  0.00  0.00    +0.000 A 
ATOM     11  C   UNL     1       2.532   8.144  17.712  0.00  0.00    +0.000 A 
ATOM     12  C   UNL     1       1.959   9.418  17.819  0.00  0.00    +0.000 A 
ATOM     13  C   UNL     1       1.320   9.794  18.999  0.00  0.00    +0.000 A 
ATOM     14  C   UNL     1       1.264   8.899  20.061  0.00  0.00    +0.000 A 
ATOM     15  F   UNL     1       0.645   9.260  21.193  0.00  0.00    +0.000 F 
ATOM     16  C   UNL     1       1.830   7.632  19.967  0.00  0.00    +0.000 A 
ENDBRANCH   2  10
BRANCH   1  17
ATOM     17  O   UNL     1       4.823   4.545  17.837  0.00  0.00    +0.000 OA
BRANCH  17  18
ATOM     18  C   UNL     1       5.126   4.225  16.478  0.00  0.00    +0.000 C 
BRANCH  18  19
ATOM     19  C   UNL     1       6.516   4.804  16.130  0.00  0.00    +0.000 C 
BRANCH  19  24
ATOM     20  C   UNL     1       6.251   3.612  12.525  0.00  0.00    +0.000 C 
ATOM     21  C   UNL     1       7.194   4.350  11.908  0.00  0.00    +0.000 C 
ATOM     22  C   UNL     1       8.088   5.253  12.692  0.00  0.00    +0.000 C 
ATOM     23  C   UNL     1       7.495   5.627  14.051  0.00  0.00    +0.000 C 
ATOM     24  N   UNL     1       7.027   4.446  14.784  0.00  0.00    +0.000 NA
ATOM     25  C   UNL     1       6.006   3.683  14.020  0.00  0.00    +0.000 C 
BRANCH  20  27
ATOM     26  O   UNL     1       5.630   1.591  11.436  0.00  0.00    +0.000 OA
ATOM     27  C   UNL     1       5.333   2.731  11.764  0.00  0.00    +0.000 C 
BRANCH  27  28
ATOM     28  O   UNL     1       4.151   3.293  11.441  0.00  0.00    +0.000 OA
ATOM     29  H   UNL     1       3.451   2.649  11.222  0.00  0.00    +0.000 HD
ENDBRANCH  27  28
ENDBRANCH  20  27
ENDBRANCH  19  24
ENDBRANCH  18  19
ENDBRANCH  17  18
ENDBRANCH   1  17
TORSDOF 8
ENDMDL
MODEL 9
REMARK VINA RESULT:      -8.4      1.262      1.578
REMARK  Name = 
REMARK  8 active torsions:
REMARK  status: ('A' for Active; 'I' for Inactive)
REMARK    1  A    between atoms: C_2  and  O_3
REMARK    2  A    between atoms: C_2  and  C_4
REMARK    3  A    between atoms: N_8  and  C_9
REMARK    4  A    between atoms: C_9  and  C_10
REMARK    5  A    between atoms: C_10  and  O_11
REMARK    6  A    between atoms: O_11  and  C_12
REMARK    7  A    between atoms: C_13  and  C_14
REMARK    8  A    between atoms: C_13  and  C_21
REMARK                            x       y       z     vdW  Elec       q    Type
REMARK                         _______ _______ _______ _____ _____    ______ ____
ROOT
ATOM      1  C   UNL     1       3.035   7.487  17.748  0.00  0.00    +0.000 C 
ATOM      2  C   UNL     1       3.393   6.199  17.921  0.00  0.00    +0.000 C 
ENDROOT
BRANCH   2   3
ATOM      3  C   UNL     1       2.534   5.352  18.775  0.00  0.00    +0.000 A 
ATOM      4  C   UNL     1       2.564   5.471  20.173  0.00  0.00    +0.000 A 
ATOM      5  C   UNL     1       1.829   4.591  20.974  0.00  0.00    +0.000 A 
ATOM      6  C   UNL     1       1.058   3.591  20.382  0.00  0.00    +0.000 A 
ATOM      7  C   UNL     1       1.023   3.485  18.998  0.00  0.00    +0.000 A 
ATOM      8  F   UNL     1       0.288   2.518  18.429  0.00  0.00    +0.000 F 
ATOM      9  C   UNL     1       1.749   4.353  18.190  0.00  0.00    +0.000 A 
ENDBRANCH   2   3
BRANCH   2  10
ATOM     10  C   UNL     1       4.658   5.756  17.306  0.00  0.00    +0.000 A 
ATOM     11  C   UNL     1       4.736   4.539  16.614  0.00  0.00    +0.000 A 
ATOM     12  C   UNL     1       5.934   4.144  16.005  0.00  0.00    +0.000 A 
ATOM     13  C   UNL     1       7.057   4.966  16.085  0.00  0.00    +0.000 A 
ATOM     14  C   UNL     1       6.975   6.170  16.775  0.00  0.00    +0.000 A 
ATOM     15  F   UNL     1       8.054   6.961  16.847  0.00  0.00    +0.000 F 
ATOM     16  C   UNL     1       5.792   6.571  17.385  0.00  0.00    +0.000 A 
ENDBRANCH   2  10
BRANCH   1  17
ATOM     17  O   UNL     1       1.879   8.009  18.265  0.00  0.00    +0.000 OA
BRANCH  17  18
ATOM     18  C   UNL     1       1.618   9.355  17.862  0.00  0.00    +0.000 C 
BRANCH  18  19
ATOM     19  C   UNL     1       0.130   9.673  18.135  0.00  0.00    +0.000 C 
BRANCH  19  24
ATOM     20  C   UNL     1      -0.332  11.308  21.542  0.00  0.00    +0.000 C 
ATOM     21  C   UNL     1       0.246  12.512  21.364  0.00  0.00    +0.000 C 
ATOM     22  C   UNL     1       0.755  12.921  20.022  0.00  0.00    +0.000 C 
ATOM     23  C   UNL     1       1.027  11.724  19.110  0.00  0.00    +0.000 C 
ATOM     24  N   UNL     1      -0.109  10.798  19.074  0.00  0.00    +0.000 NA
ATOM     25  C   UNL     1      -0.457  10.288  20.426  0.00  0.00    +0.000 C 
BRANCH  20  27
ATOM     26  O   UNL     1      -1.891  11.228  23.337  0.00  0.00    +0.000 OA
ATOM     27  C   UNL     1      -0.818  10.869  22.872  0.00  0.00    +0.000 C 
BRANCH  27  28
ATOM     28  O   UNL     1       0.026  10.057  23.541  0.00  0.00    +0.000 OA
ATOM     29  H   UNL     1       0.870   9.893  23.079  0.00  0.00    +0.000 HD
ENDBRANCH  27  28
ENDBRANCH  20  27
ENDBRANCH  19  24
ENDBRANCH  18  19
ENDBRANCH  17  18
ENDBRANCH   1  17
TORSDOF 8
ENDMDL
