MODEL 1
REMARK VINA RESULT:      -7.8      0.000      0.000
REMARK  Name = 
REMARK  7 active torsions:
REMARK  status: ('A' for Active; 'I' for Inactive)
REMARK    1  A    between atoms: C_1  and  O_2
REMARK    2  A    between atoms: O_2  and  C_3
REMARK    3  A    between atoms: C_6  and  C_7
REMARK    4  A    between atoms: C_10  and  S_11
REMARK    5  A    between atoms: S_11  and  N_14
REMARK    6  A    between atoms: N_14  and  C_15
REMARK    7  A    between atoms: C_17  and  N_18
REMARK                            x       y       z     vdW  Elec       q    Type
REMARK                         _______ _______ _______ _____ _____    ______ ____
ROOT
ATOM      1  C   UNL     1       2.969   7.063  18.351  0.00  0.00    +0.000 A 
ATOM      2  C   UNL     1       2.477   8.305  17.914  0.00  0.00    +0.000 A 
ATOM      3  C   UNL     1       1.674   9.094  18.737  0.00  0.00    +0.000 A 
ATOM      4  C   UNL     1       1.372   8.603  19.994  0.00  0.00    +0.000 A 
ATOM      5  N   UNL     1       1.854   7.441  20.504  0.00  0.00    +0.000 NA
ATOM      6  C   UNL     1       2.633   6.710  19.666  0.00  0.00    +0.000 A 
ENDROOT
BRANCH   1  10
ATOM      7  C   UNL     1       5.320   4.479  15.800  0.00  0.00    +0.000 A 
ATOM      8  C   UNL     1       4.420   3.943  16.716  0.00  0.00    +0.000 A 
ATOM      9  C   UNL     1       3.640   4.780  17.523  0.00  0.00    +0.000 A 
ATOM     10  C   UNL     1       3.758   6.180  17.461  0.00  0.00    +0.000 A 
ATOM     11  C   UNL     1       4.690   6.698  16.543  0.00  0.00    +0.000 A 
ATOM     12  C   UNL     1       5.457   5.861  15.718  0.00  0.00    +0.000 A 
BRANCH   7  14
ATOM     13  C   UNL     1       6.223   3.880  13.701  0.00  0.00    +0.000 C 
ATOM     14  O   UNL     1       6.033   3.565  15.076  0.00  0.00    +0.000 OA
ENDBRANCH   7  14
ENDBRANCH   1  10
BRANCH   4  15
ATOM     15  S   UNL     1       0.172   9.449  21.023  0.00  0.00    +0.000 S 
ATOM     16  O   UNL     1      -0.513   8.448  21.817  0.00  0.00    +0.000 OA
ATOM     17  O   UNL     1       0.820  10.583  21.647  0.00  0.00    +0.000 OA
BRANCH  15  18
ATOM     18  N   UNL     1      -0.946  10.058  19.930  0.00  0.00    +0.000 NA
ATOM     19  H   UNL     1      -1.426   9.334  19.394  0.00  0.00    +0.000 HD
BRANCH  18  20
ATOM     20  C   UNL     1      -1.210  11.485  19.628  0.00  0.00    +0.000 C 
ATOM     21  C   UNL     1      -0.636  12.039  18.300  0.00  0.00    +0.000 C 
ATOM     22  C   UNL     1      -2.012  11.775  17.647  0.00  0.00    +0.000 C 
ATOM     23  C   UNL     1      -2.614  11.818  19.072  0.00  0.00    +0.000 C 
BRANCH  22  24
ATOM     24  N   UNL     1      -2.027  10.435  17.061  0.00  0.00    +0.000 NA
ATOM     25  C   UNL     1      -2.566  10.351  16.024  0.00  0.00    +0.000 C 
ATOM     26  S   UNL     1      -3.296  10.227  14.616  0.00  0.00    +0.000 S 
ENDBRANCH  22  24
ENDBRANCH  18  20
ENDBRANCH  15  18
ENDBRANCH   4  15
TORSDOF 6
ENDMDL
MODEL 2
REMARK VINA RESULT:      -7.6      0.691      1.056
REMARK  Name = 
REMARK  7 active torsions:
REMARK  status: ('A' for Active; 'I' for Inactive)
REMARK    1  A    between atoms: C_1  and  O_2
REMARK    2  A    between atoms: O_2  and  C_3
REMARK    3  A    between atoms: C_6  and  C_7
REMARK    4  A    between atoms: C_10  and  S_11
REMARK    5  A    between atoms: S_11  and  N_14
REMARK    6  A    between atoms: N_14  and  C_15
REMARK    7  A    between atoms: C_17  and  N_18
REMARK                            x       y       z     vdW  Elec       q    Type
REMARK                         _______ _______ _______ _____ _____    ______ ____
ROOT
ATOM      1  C   UNL     1       2.719   7.014  18.555  0.00  0.00    +0.000 A 
ATOM      2  C   UNL     1       2.368   6.612  19.855  0.00  0.00    +0.000 A 
ATOM      3  C   UNL     1       1.611   7.437  20.686  0.00  0.00    +0.000 A 
ATOM      4  C   UNL     1       1.228   8.668  20.186  0.00  0.00    +0.000 A 
ATOM      5  N   UNL     1       1.482   9.101  18.925  0.00  0.00    +0.000 NA
ATOM      6  C   UNL     1       2.220   8.262  18.153  0.00  0.00    +0.000 A 
ENDROOT
BRANCH   1  10
ATOM      7  C   UNL     1       5.295   4.574  16.081  0.00  0.00    +0.000 A 
ATOM      8  C   UNL     1       4.279   3.994  16.835  0.00  0.00    +0.000 A 
ATOM      9  C   UNL     1       3.428   4.786  17.614  0.00  0.00    +0.000 A 
ATOM     10  C   UNL     1       3.587   6.182  17.690  0.00  0.00    +0.000 A 
ATOM     11  C   UNL     1       4.635   6.743  16.937  0.00  0.00    +0.000 A 
ATOM     12  C   UNL     1       5.476   5.952  16.138  0.00  0.00    +0.000 A 
BRANCH   7  14
ATOM     13  C   UNL     1       6.214   3.993  13.984  0.00  0.00    +0.000 C 
ATOM     14  O   UNL     1       6.068   3.700  15.369  0.00  0.00    +0.000 OA
ENDBRANCH   7  14
ENDBRANCH   1  10
BRANCH   4  15
ATOM     15  S   UNL     1       0.448   9.871  21.263  0.00  0.00    +0.000 S 
ATOM     16  O   UNL     1      -0.093   9.159  22.404  0.00  0.00    +0.000 OA
ATOM     17  O   UNL     1       1.355  10.986  21.439  0.00  0.00    +0.000 OA
BRANCH  15  18
ATOM     18  N   UNL     1      -0.858  10.432  20.370  0.00  0.00    +0.000 NA
ATOM     19  H   UNL     1      -1.487   9.690  20.061  0.00  0.00    +0.000 HD
BRANCH  18  20
ATOM     20  C   UNL     1      -1.106  11.828  19.937  0.00  0.00    +0.000 C 
ATOM     21  C   UNL     1      -0.487  12.263  18.586  0.00  0.00    +0.000 C 
ATOM     22  C   UNL     1      -1.841  11.945  17.913  0.00  0.00    +0.000 C 
ATOM     23  C   UNL     1      -2.489  12.112  19.308  0.00  0.00    +0.000 C 
BRANCH  22  24
ATOM     24  N   UNL     1      -1.841  10.559  17.445  0.00  0.00    +0.000 NA
ATOM     25  C   UNL     1      -2.364  10.383  16.411  0.00  0.00    +0.000 C 
ATOM     26  S   UNL     1      -3.072  10.132  15.009  0.00  0.00    +0.000 S 
ENDBRANCH  22  24
ENDBRANCH  18  20
ENDBRANCH  15  18
ENDBRANCH   4  15
TORSDOF 6
ENDMDL
MODEL 3
REMARK VINA RESULT:      -7.5      3.772      8.691
REMARK  Name = 
REMARK  7 active torsions:
REMARK  status: ('A' for Active; 'I' for Inactive)
REMARK    1  A    between atoms: C_1  and  O_2
REMARK    2  A    between atoms: O_2  and  C_3
REMARK    3  A    between atoms: C_6  and  C_7
REMARK    4  A    between atoms: C_10  and  S_11
REMARK    5  A    between atoms: S_11  and  N_14
REMARK    6  A    between atoms: N_14  and  C_15
REMARK    7  A    between atoms: C_17  and  N_18
REMARK                            x       y       z     vdW  Elec       q    Type
REMARK                         _______ _______ _______ _____ _____    ______ ____
ROOT
ATOM      1  C   UNL     1       1.854   7.283  20.058  0.00  0.00    +0.000 A 
ATOM      2  C   UNL     1       1.772   6.055  20.737  0.00  0.00    +0.000 A 
ATOM      3  C   UNL     1       2.276   4.884  20.173  0.00  0.00    +0.000 A 
ATOM      4  C   UNL     1       2.849   4.974  18.918  0.00  0.00    +0.000 A 
ATOM      5  N   UNL     1       3.012   6.131  18.226  0.00  0.00    +0.000 NA
ATOM      6  C   UNL     1       2.508   7.245  18.817  0.00  0.00    +0.000 A 
ENDROOT
BRANCH   1  10
ATOM      7  C   UNL     1       0.045  10.867  21.669  0.00  0.00    +0.000 A 
ATOM      8  C   UNL     1       0.466   9.844  22.514  0.00  0.00    +0.000 A 
ATOM      9  C   UNL     1       1.076   8.696  21.994  0.00  0.00    +0.000 A 
ATOM     10  C   UNL     1       1.255   8.520  20.610  0.00  0.00    +0.000 A 
ATOM     11  C   UNL     1       0.801   9.558  19.775  0.00  0.00    +0.000 A 
ATOM     12  C   UNL     1       0.208  10.719  20.296  0.00  0.00    +0.000 A 
BRANCH   7  14
ATOM     13  C   UNL     1      -1.685  11.626  23.087  0.00  0.00    +0.000 C 
ATOM     14  O   UNL     1      -0.546  11.931  22.289  0.00  0.00    +0.000 OA
ENDBRANCH   7  14
ENDBRANCH   1  10
BRANCH   4  15
ATOM     15  S   UNL     1       3.316   3.486  18.035  0.00  0.00    +0.000 S 
ATOM     16  O   UNL     1       3.446   2.417  19.006  0.00  0.00    +0.000 OA
ATOM     17  O   UNL     1       2.451   3.346  16.881  0.00  0.00    +0.000 OA
BRANCH  15  18
ATOM     18  N   UNL     1       4.857   3.818  17.461  0.00  0.00    +0.000 NA
ATOM     19  H   UNL     1       5.561   3.878  18.198  0.00  0.00    +0.000 HD
BRANCH  18  20
ATOM     20  C   UNL     1       5.241   4.110  16.059  0.00  0.00    +0.000 C 
ATOM     21  C   UNL     1       5.291   5.601  15.641  0.00  0.00    +0.000 C 
ATOM     22  C   UNL     1       6.810   5.583  15.923  0.00  0.00    +0.000 C 
ATOM     23  C   UNL     1       6.752   4.048  15.737  0.00  0.00    +0.000 C 
BRANCH  22  24
ATOM     24  N   UNL     1       7.055   5.982  17.309  0.00  0.00    +0.000 NA
ATOM     25  C   UNL     1       7.399   7.093  17.453  0.00  0.00    +0.000 C 
ATOM     26  S   UNL     1       7.868   8.599  17.661  0.00  0.00    +0.000 S 
ENDBRANCH  22  24
ENDBRANCH  18  20
ENDBRANCH  15  18
ENDBRANCH   4  15
TORSDOF 6
ENDMDL
MODEL 4
REMARK VINA RESULT:      -7.3      3.816      8.709
REMARK  Name = 
REMARK  7 active torsions:
REMARK  status: ('A' for Active; 'I' for Inactive)
REMARK    1  A    between atoms: C_1  and  O_2
REMARK    2  A    between atoms: O_2  and  C_3
REMARK    3  A    between atoms: C_6  and  C_7
REMARK    4  A    between atoms: C_10  and  S_11
REMARK    5  A    between atoms: S_11  and  N_14
REMARK    6  A    between atoms: N_14  and  C_15
REMARK    7  A    between atoms: C_17  and  N_18
REMARK                            x       y       z     vdW  Elec       q    Type
REMARK                         _______ _______ _______ _____ _____    ______ ____
ROOT
ATOM      1  C   UNL     1       1.923   7.112  20.017  0.00  0.00    +0.000 A 
ATOM      2  C   UNL     1       1.848   5.878  20.685  0.00  0.00    +0.000 A 
ATOM      3  C   UNL     1       2.343   4.711  20.104  0.00  0.00    +0.000 A 
ATOM      4  C   UNL     1       2.900   4.813  18.843  0.00  0.00    +0.000 A 
ATOM      5  N   UNL     1       3.056   5.977  18.160  0.00  0.00    +0.000 NA
ATOM      6  C   UNL     1       2.561   7.086  18.768  0.00  0.00    +0.000 A 
ENDROOT
BRANCH   1  10
ATOM      7  C   UNL     1       0.260  10.736  21.694  0.00  0.00    +0.000 A 
ATOM      8  C   UNL     1       0.556  10.654  20.337  0.00  0.00    +0.000 A 
ATOM      9  C   UNL     1       1.069   9.472  19.789  0.00  0.00    +0.000 A 
ATOM     10  C   UNL     1       1.332   8.344  20.588  0.00  0.00    +0.000 A 
ATOM     11  C   UNL     1       1.046   8.460  21.961  0.00  0.00    +0.000 A 
ATOM     12  C   UNL     1       0.512   9.637  22.508  0.00  0.00    +0.000 A 
BRANCH   7  14
ATOM     13  C   UNL     1      -1.335  12.450  21.383  0.00  0.00    +0.000 C 
ATOM     14  O   UNL     1      -0.225  11.943  22.115  0.00  0.00    +0.000 OA
ENDBRANCH   7  14
ENDBRANCH   1  10
BRANCH   4  15
ATOM     15  S   UNL     1       3.355   3.333  17.939  0.00  0.00    +0.000 S 
ATOM     16  O   UNL     1       3.572   2.274  18.906  0.00  0.00    +0.000 OA
ATOM     17  O   UNL     1       2.427   3.162  16.840  0.00  0.00    +0.000 OA
BRANCH  15  18
ATOM     18  N   UNL     1       4.849   3.704  17.273  0.00  0.00    +0.000 NA
ATOM     19  H   UNL     1       5.607   3.712  17.956  0.00  0.00    +0.000 HD
BRANCH  18  20
ATOM     20  C   UNL     1       5.126   4.092  15.869  0.00  0.00    +0.000 C 
ATOM     21  C   UNL     1       5.316   5.603  15.584  0.00  0.00    +0.000 C 
ATOM     22  C   UNL     1       6.842   5.386  15.694  0.00  0.00    +0.000 C 
ATOM     23  C   UNL     1       6.579   3.895  15.379  0.00  0.00    +0.000 C 
BRANCH  22  24
ATOM     24  N   UNL     1       7.269   5.612  17.075  0.00  0.00    +0.000 NA
ATOM     25  C   UNL     1       7.509   6.726  17.346  0.00  0.00    +0.000 C 
ATOM     26  S   UNL     1       7.838   8.236  17.724  0.00  0.00    +0.000 S 
ENDBRANCH  22  24
ENDBRANCH  18  20
ENDBRANCH  15  18
ENDBRANCH   4  15
TORSDOF 6
ENDMDL
MODEL 5
REMARK VINA RESULT:      -7.3      1.661      2.151
REMARK  Name = 
REMARK  7 active torsions:
REMARK  status: ('A' for Active; 'I' for Inactive)
REMARK    1  A    between atoms: C_1  and  O_2
REMARK    2  A    between atoms: O_2  and  C_3
REMARK    3  A    between atoms: C_6  and  C_7
REMARK    4  A    between atoms: C_10  and  S_11
REMARK    5  A    between atoms: S_11  and  N_14
REMARK    6  A    between atoms: N_14  and  C_15
REMARK    7  A    between atoms: C_17  and  N_18
REMARK                            x       y       z     vdW  Elec       q    Type
REMARK                         _______ _______ _______ _____ _____    ______ ____
ROOT
ATOM      1  C   UNL     1       2.743   7.551  18.302  0.00  0.00    +0.000 A 
ATOM      2  C   UNL     1       2.454   8.750  17.630  0.00  0.00    +0.000 A 
ATOM      3  C   UNL     1       1.645   9.726  18.211  0.00  0.00    +0.000 A 
ATOM      4  C   UNL     1       1.130   9.464  19.467  0.00  0.00    +0.000 A 
ATOM      5  N   UNL     1       1.409   8.354  20.198  0.00  0.00    +0.000 NA
ATOM      6  C   UNL     1       2.204   7.435  19.592  0.00  0.00    +0.000 A 
ENDROOT
BRANCH   1  10
ATOM      7  C   UNL     1       5.025   4.411  16.390  0.00  0.00    +0.000 A 
ATOM      8  C   UNL     1       5.381   5.747  16.227  0.00  0.00    +0.000 A 
ATOM      9  C   UNL     1       4.658   6.761  16.867  0.00  0.00    +0.000 A 
ATOM     10  C   UNL     1       3.537   6.474  17.667  0.00  0.00    +0.000 A 
ATOM     11  C   UNL     1       3.184   5.118  17.799  0.00  0.00    +0.000 A 
ATOM     12  C   UNL     1       3.919   4.099  17.175  0.00  0.00    +0.000 A 
BRANCH   7  14
ATOM     13  C   UNL     1       6.340   3.976  14.478  0.00  0.00    +0.000 C 
ATOM     14  O   UNL     1       5.795   3.512  15.709  0.00  0.00    +0.000 OA
ENDBRANCH   7  14
ENDBRANCH   1  10
BRANCH   4  15
ATOM     15  S   UNL     1      -0.092  10.562  20.185  0.00  0.00    +0.000 S 
ATOM     16  O   UNL     1      -0.337  10.124  21.544  0.00  0.00    +0.000 OA
ATOM     17  O   UNL     1       0.295  11.929  19.897  0.00  0.00    +0.000 OA
BRANCH  15  18
ATOM     18  N   UNL     1      -1.488  10.249  19.308  0.00  0.00    +0.000 NA
ATOM     19  H   UNL     1      -2.272   9.949  19.888  0.00  0.00    +0.000 HD
BRANCH  18  20
ATOM     20  C   UNL     1      -1.639  10.278  17.834  0.00  0.00    +0.000 C 
ATOM     21  C   UNL     1      -2.950   9.693  17.252  0.00  0.00    +0.000 C 
ATOM     22  C   UNL     1      -3.521  11.128  17.215  0.00  0.00    +0.000 C 
ATOM     23  C   UNL     1      -2.058  11.632  17.216  0.00  0.00    +0.000 C 
BRANCH  22  24
ATOM     24  N   UNL     1      -4.223  11.408  18.467  0.00  0.00    +0.000 NA
ATOM     25  C   UNL     1      -5.368  11.633  18.356  0.00  0.00    +0.000 C 
ATOM     26  S   UNL     1      -6.922  11.941  18.216  0.00  0.00    +0.000 S 
ENDBRANCH  22  24
ENDBRANCH  18  20
ENDBRANCH  15  18
ENDBRANCH   4  15
TORSDOF 6
ENDMDL
MODEL 6
REMARK VINA RESULT:      -7.3      3.934      8.681
REMARK  Name = 
REMARK  7 active torsions:
REMARK  status: ('A' for Active; 'I' for Inactive)
REMARK    1  A    between atoms: C_1  and  O_2
REMARK    2  A    between atoms: O_2  and  C_3
REMARK    3  A    between atoms: C_6  and  C_7
REMARK    4  A    between atoms: C_10  and  S_11
REMARK    5  A    between atoms: S_11  and  N_14
REMARK    6  A    between atoms: N_14  and  C_15
REMARK    7  A    between atoms: C_17  and  N_18
REMARK                            x       y       z     vdW  Elec       q    Type
REMARK                         _______ _______ _______ _____ _____    ______ ____
ROOT
ATOM      1  C   UNL     1       1.721   7.440  20.055  0.00  0.00    +0.000 A 
ATOM      2  C   UNL     1       2.200   7.414  18.734  0.00  0.00    +0.000 A 
ATOM      3  C   UNL     1       2.838   6.286  18.220  0.00  0.00    +0.000 A 
ATOM      4  C   UNL     1       2.992   5.200  19.063  0.00  0.00    +0.000 A 
ATOM      5  N   UNL     1       2.509   5.133  20.329  0.00  0.00    +0.000 NA
ATOM      6  C   UNL     1       1.892   6.254  20.784  0.00  0.00    +0.000 A 
ENDROOT
BRANCH   1  10
ATOM      7  C   UNL     1      -0.124  10.969  21.746  0.00  0.00    +0.000 A 
ATOM      8  C   UNL     1       0.123   9.850  22.536  0.00  0.00    +0.000 A 
ATOM      9  C   UNL     1       0.745   8.718  21.995  0.00  0.00    +0.000 A 
ATOM     10  C   UNL     1       1.110   8.658  20.638  0.00  0.00    +0.000 A 
ATOM     11  C   UNL     1       0.830   9.792  19.854  0.00  0.00    +0.000 A 
ATOM     12  C   UNL     1       0.226  10.936  20.400  0.00  0.00    +0.000 A 
BRANCH   7  14
ATOM     13  C   UNL     1      -1.908  11.668  23.128  0.00  0.00    +0.000 C 
ATOM     14  O   UNL     1      -0.745  12.008  22.380  0.00  0.00    +0.000 OA
ENDBRANCH   7  14
ENDBRANCH   1  10
BRANCH   4  15
ATOM     15  S   UNL     1       3.993   3.803  18.553  0.00  0.00    +0.000 S 
ATOM     16  O   UNL     1       3.531   2.638  19.282  0.00  0.00    +0.000 OA
ATOM     17  O   UNL     1       4.070   3.797  17.106  0.00  0.00    +0.000 OA
BRANCH  15  18
ATOM     18  N   UNL     1       5.526   4.167  19.129  0.00  0.00    +0.000 NA
ATOM     19  H   UNL     1       6.002   3.368  19.549  0.00  0.00    +0.000 HD
BRANCH  18  20
ATOM     20  C   UNL     1       6.171   5.501  19.161  0.00  0.00    +0.000 C 
ATOM     21  C   UNL     1       7.716   5.537  19.047  0.00  0.00    +0.000 C 
ATOM     22  C   UNL     1       7.553   5.789  17.531  0.00  0.00    +0.000 C 
ATOM     23  C   UNL     1       6.132   6.312  17.845  0.00  0.00    +0.000 C 
BRANCH  22  24
ATOM     24  N   UNL     1       7.548   4.511  16.820  0.00  0.00    +0.000 NA
ATOM     25  C   UNL     1       7.153   4.557  15.717  0.00  0.00    +0.000 C 
ATOM     26  S   UNL     1       6.618   4.607  14.220  0.00  0.00    +0.000 S 
ENDBRANCH  22  24
ENDBRANCH  18  20
ENDBRANCH  15  18
ENDBRANCH   4  15
TORSDOF 6
ENDMDL
MODEL 7
REMARK VINA RESULT:      -7.3      2.687      3.417
REMARK  Name = 
REMARK  7 active torsions:
REMARK  status: ('A' for Active; 'I' for Inactive)
REMARK    1  A    between atoms: C_1  and  O_2
REMARK    2  A    between atoms: O_2  and  C_3
REMARK    3  A    between atoms: C_6  and  C_7
REMARK    4  A    between atoms: C_10  and  S_11
REMARK    5  A    between atoms: S_11  and  N_14
REMARK    6  A    between atoms: N_14  and  C_15
REMARK    7  A    between atoms: C_17  and  N_18
REMARK                            x       y       z     vdW  Elec       q    Type
REMARK                         _______ _______ _______ _____ _____    ______ ____
ROOT
ATOM      1  C   UNL     1       1.994   7.671  19.238  0.00  0.00    +0.000 A 
ATOM      2  C   UNL     1       2.114   8.406  18.046  0.00  0.00    +0.000 A 
ATOM      3  C   UNL     1       1.560   9.679  17.924  0.00  0.00    +0.000 A 
ATOM      4  C   UNL     1       0.879  10.186  19.015  0.00  0.00    +0.000 A 
ATOM      5  N   UNL     1       0.768   9.560  20.214  0.00  0.00    +0.000 NA
ATOM      6  C   UNL     1       1.326   8.324  20.285  0.00  0.00    +0.000 A 
ENDROOT
BRANCH   1  10
ATOM      7  C   UNL     1       3.450   3.609  19.547  0.00  0.00    +0.000 A 
ATOM      8  C   UNL     1       3.814   4.413  18.471  0.00  0.00    +0.000 A 
ATOM      9  C   UNL     1       3.365   5.737  18.385  0.00  0.00    +0.000 A 
ATOM     10  C   UNL     1       2.510   6.288  19.357  0.00  0.00    +0.000 A 
ATOM     11  C   UNL     1       2.138   5.449  20.423  0.00  0.00    +0.000 A 
ATOM     12  C   UNL     1       2.605   4.129  20.522  0.00  0.00    +0.000 A 
BRANCH   7  14
ATOM     13  C   UNL     1       3.512   1.535  18.420  0.00  0.00    +0.000 C 
ATOM     14  O   UNL     1       3.940   2.334  19.517  0.00  0.00    +0.000 OA
ENDBRANCH   7  14
ENDBRANCH   1  10
BRANCH   4  15
ATOM     15  S   UNL     1      -0.048  11.714  18.864  0.00  0.00    +0.000 S 
ATOM     16  O   UNL     1      -0.902  11.830  20.029  0.00  0.00    +0.000 OA
ATOM     17  O   UNL     1       0.870  12.774  18.501  0.00  0.00    +0.000 OA
BRANCH  15  18
ATOM     18  N   UNL     1      -1.050  11.454  17.544  0.00  0.00    +0.000 NA
ATOM     19  H   UNL     1      -1.273  12.307  17.029  0.00  0.00    +0.000 HD
BRANCH  18  20
ATOM     20  C   UNL     1      -1.681  10.174  17.143  0.00  0.00    +0.000 C 
ATOM     21  C   UNL     1      -2.903   9.704  17.971  0.00  0.00    +0.000 C 
ATOM     22  C   UNL     1      -3.817  10.346  16.903  0.00  0.00    +0.000 C 
ATOM     23  C   UNL     1      -2.627  10.230  15.921  0.00  0.00    +0.000 C 
BRANCH  22  24
ATOM     24  N   UNL     1      -4.115  11.727  17.280  0.00  0.00    +0.000 NA
ATOM     25  C   UNL     1      -5.253  11.969  17.422  0.00  0.00    +0.000 C 
ATOM     26  S   UNL     1      -6.795  12.309  17.617  0.00  0.00    +0.000 S 
ENDBRANCH  22  24
ENDBRANCH  18  20
ENDBRANCH  15  18
ENDBRANCH   4  15
TORSDOF 6
ENDMDL
MODEL 8
REMARK VINA RESULT:      -7.3      2.546      3.204
REMARK  Name = 
REMARK  7 active torsions:
REMARK  status: ('A' for Active; 'I' for Inactive)
REMARK    1  A    between atoms: C_1  and  O_2
REMARK    2  A    between atoms: O_2  and  C_3
REMARK    3  A    between atoms: C_6  and  C_7
REMARK    4  A    between atoms: C_10  and  S_11
REMARK    5  A    between atoms: S_11  and  N_14
REMARK    6  A    between atoms: N_14  and  C_15
REMARK    7  A    between atoms: C_17  and  N_18
REMARK                            x       y       z     vdW  Elec       q    Type
REMARK                         _______ _______ _______ _____ _____    ______ ____
ROOT
ATOM      1  C   UNL     1       1.945   7.975  19.185  0.00  0.00    +0.000 A 
ATOM      2  C   UNL     1       2.174   8.722  18.017  0.00  0.00    +0.000 A 
ATOM      3  C   UNL     1       1.779  10.056  17.925  0.00  0.00    +0.000 A 
ATOM      4  C   UNL     1       1.143  10.611  19.020  0.00  0.00    +0.000 A 
ATOM      5  N   UNL     1       0.935   9.969  20.198  0.00  0.00    +0.000 NA
ATOM      6  C   UNL     1       1.341   8.673  20.241  0.00  0.00    +0.000 A 
ENDROOT
BRANCH   1  10
ATOM      7  C   UNL     1       2.891   3.759  19.409  0.00  0.00    +0.000 A 
ATOM      8  C   UNL     1       3.098   4.471  18.231  0.00  0.00    +0.000 A 
ATOM      9  C   UNL     1       2.817   5.841  18.167  0.00  0.00    +0.000 A 
ATOM     10  C   UNL     1       2.290   6.537  19.270  0.00  0.00    +0.000 A 
ATOM     11  C   UNL     1       2.068   5.791  20.443  0.00  0.00    +0.000 A 
ATOM     12  C   UNL     1       2.369   4.422  20.516  0.00  0.00    +0.000 A 
BRANCH   7  14
ATOM     13  C   UNL     1       3.288   1.876  18.041  0.00  0.00    +0.000 C 
ATOM     14  O   UNL     1       3.190   2.428  19.349  0.00  0.00    +0.000 OA
ENDBRANCH   7  14
ENDBRANCH   1  10
BRANCH   4  15
ATOM     15  S   UNL     1       0.408  12.242  18.900  0.00  0.00    +0.000 S 
ATOM     16  O   UNL     1       0.028  12.655  20.237  0.00  0.00    +0.000 OA
ATOM     17  O   UNL     1       1.264  13.071  18.077  0.00  0.00    +0.000 OA
BRANCH  15  18
ATOM     18  N   UNL     1      -1.011  11.989  18.042  0.00  0.00    +0.000 NA
ATOM     19  H   UNL     1      -1.014  12.432  17.123  0.00  0.00    +0.000 HD
BRANCH  18  20
ATOM     20  C   UNL     1      -2.229  11.293  18.521  0.00  0.00    +0.000 C 
ATOM     21  C   UNL     1      -3.543  11.567  17.748  0.00  0.00    +0.000 C 
ATOM     22  C   UNL     1      -3.280  10.281  16.933  0.00  0.00    +0.000 C 
ATOM     23  C   UNL     1      -2.381   9.813  18.102  0.00  0.00    +0.000 C 
BRANCH  22  24
ATOM     24  N   UNL     1      -2.522  10.613  15.727  0.00  0.00    +0.000 NA
ATOM     25  C   UNL     1      -3.024  10.289  14.719  0.00  0.00    +0.000 C 
ATOM     26  S   UNL     1      -3.696   9.851  13.345  0.00  0.00    +0.000 S 
ENDBRANCH  22  24
ENDBRANCH  18  20
ENDBRANCH  15  18
ENDBRANCH   4  15
TORSDOF 6
ENDMDL
MODEL 9
REMARK VINA RESULT:      -7.3      1.108      1.153
REMARK  Name = 
REMARK  7 active torsions:
REMARK  status: ('A' for Active; 'I' for Inactive)
REMARK    1  A    between atoms: C_1  and  O_2
REMARK    2  A    between atoms: O_2  and  C_3
REMARK    3  A    between atoms: C_6  and  C_7
REMARK    4  A    between atoms: C_10  and  S_11
REMARK    5  A    between atoms: S_11  and  N_14
REMARK    6  A    between atoms: N_14  and  C_15
REMARK    7  A    between atoms: C_17  and  N_18
REMARK                            x       y       z     vdW  Elec       q    Type
REMARK                         _______ _______ _______ _____ _____    ______ ____
ROOT
ATOM      1  C   UNL     1       3.024   6.854  18.469  0.00  0.00    +0.000 A 
ATOM      2  C   UNL     1       2.542   8.125  18.110  0.00  0.00    +0.000 A 
ATOM      3  C   UNL     1       1.744   8.866  18.981  0.00  0.00    +0.000 A 
ATOM      4  C   UNL     1       1.437   8.299  20.204  0.00  0.00    +0.000 A 
ATOM      5  N   UNL     1       1.910   7.104  20.640  0.00  0.00    +0.000 NA
ATOM      6  C   UNL     1       2.685   6.421  19.759  0.00  0.00    +0.000 A 
ENDROOT
BRANCH   1  10
ATOM      7  C   UNL     1       5.362   4.422  15.761  0.00  0.00    +0.000 A 
ATOM      8  C   UNL     1       4.504   3.831  16.684  0.00  0.00    +0.000 A 
ATOM      9  C   UNL     1       3.727   4.619  17.542  0.00  0.00    +0.000 A 
ATOM     10  C   UNL     1       3.808   6.023  17.526  0.00  0.00    +0.000 A 
ATOM     11  C   UNL     1       4.699   6.597  16.599  0.00  0.00    +0.000 A 
ATOM     12  C   UNL     1       5.462   5.809  15.724  0.00  0.00    +0.000 A 
BRANCH   7  14
ATOM     13  C   UNL     1       6.256   3.942  13.628  0.00  0.00    +0.000 C 
ATOM     14  O   UNL     1       6.075   3.552  14.985  0.00  0.00    +0.000 OA
ENDBRANCH   7  14
ENDBRANCH   1  10
BRANCH   4  15
ATOM     15  S   UNL     1       0.241   9.087  21.283  0.00  0.00    +0.000 S 
ATOM     16  O   UNL     1      -0.698   8.072  21.719  0.00  0.00    +0.000 OA
ATOM     17  O   UNL     1       0.956   9.904  22.242  0.00  0.00    +0.000 OA
BRANCH  15  18
ATOM     18  N   UNL     1      -0.597  10.130  20.271  0.00  0.00    +0.000 NA
ATOM     19  H   UNL     1      -1.059   9.658  19.494  0.00  0.00    +0.000 HD
BRANCH  18  20
ATOM     20  C   UNL     1      -0.640  11.610  20.356  0.00  0.00    +0.000 C 
ATOM     21  C   UNL     1      -0.686  12.388  19.017  0.00  0.00    +0.000 C 
ATOM     22  C   UNL     1      -2.223  12.458  19.163  0.00  0.00    +0.000 C 
ATOM     23  C   UNL     1      -2.016  12.237  20.680  0.00  0.00    +0.000 C 
BRANCH  22  24
ATOM     24  N   UNL     1      -2.832  11.308  18.495  0.00  0.00    +0.000 NA
ATOM     25  C   UNL     1      -3.858  11.523  17.971  0.00  0.00    +0.000 C 
ATOM     26  S   UNL     1      -5.252  11.803  17.258  0.00  0.00    +0.000 S 
ENDBRANCH  22  24
ENDBRANCH  18  20
ENDBRANCH  15  18
ENDBRANCH   4  15
TORSDOF 6
ENDMDL
