MODEL 1
REMARK VINA RESULT:      -9.1      0.000      0.000
REMARK  Name = 
REMARK  5 active torsions:
REMARK  status: ('A' for Active; 'I' for Inactive)
REMARK    1  A    between atoms: C_1  and  C_2
REMARK    2  A    between atoms: C_2  and  C_5
REMARK    3  A    between atoms: N_3  and  O_4
REMARK    4  A    between atoms: C_9  and  N_10
REMARK    5  A    between atoms: N_10  and  C_11
REMARK                            x       y       z     vdW  Elec       q    Type
REMARK                         _______ _______ _______ _____ _____    ______ ____
ROOT
ATOM      1  C   UNL     1       3.402   6.279  17.646  0.00  0.00    +0.000 A 
ATOM      2  N   UNL     1       4.417   6.571  16.795  0.00  0.00    +0.000 NA
ATOM      3  C   UNL     1       5.210   5.669  16.290  0.00  0.00    +0.000 A 
ATOM      4  C   UNL     1       5.945   6.124  15.223  0.00  0.00    +0.000 A 
ATOM      5  C   UNL     1       6.486   5.245  14.306  0.00  0.00    +0.000 A 
ATOM      6  C   UNL     1       6.269   3.886  14.491  0.00  0.00    +0.000 A 
ATOM      7  C   UNL     1       5.650   3.420  15.678  0.00  0.00    +0.000 A 
ATOM      8  C   UNL     1       5.197   4.329  16.684  0.00  0.00    +0.000 A 
ATOM      9  C   UNL     1       4.400   4.026  17.852  0.00  0.00    +0.000 A 
ATOM     10  N   UNL     1       4.250   4.590  19.349  0.00  0.00    +0.000 N 
ATOM     11  C   UNL     1       2.818   4.498  19.623  0.00  0.00    +0.000 A 
ATOM     12  C   UNL     1       1.679   4.851  20.440  0.00  0.00    +0.000 A 
ATOM     13  C   UNL     1       0.999   3.742  21.008  0.00  0.00    +0.000 A 
ATOM     14  C   UNL     1       1.513   2.508  20.786  0.00  0.00    +0.000 A 
ATOM     15  C   UNL     1       2.367   2.424  19.624  0.00  0.00    +0.000 A 
ATOM     16  C   UNL     1       2.757   3.492  18.730  0.00  0.00    +0.000 A 
ATOM     17  C   UNL     1       3.130   4.640  17.822  0.00  0.00    +0.000 A 
ATOM     18  H   UNL     1       4.844   5.318  19.695  0.00  0.00    +0.000 HD
ENDROOT
BRANCH   1  19
ATOM     19  N   UNL     1       3.203   7.464  18.482  0.00  0.00    +0.000 N 
ATOM     20  H   UNL     1       4.080   7.824  18.836  0.00  0.00    +0.000 HD
BRANCH  19  25
ATOM     21  C   UNL     1      -0.087   9.820  18.764  0.00  0.00    +0.000 A 
ATOM     22  C   UNL     1      -0.272   9.684  20.142  0.00  0.00    +0.000 A 
ATOM     23  C   UNL     1       0.636   8.953  20.886  0.00  0.00    +0.000 A 
ATOM     24  C   UNL     1       1.755   8.307  20.297  0.00  0.00    +0.000 A 
ATOM     25  C   UNL     1       2.019   8.303  18.906  0.00  0.00    +0.000 A 
ATOM     26  C   UNL     1       1.068   9.116  18.149  0.00  0.00    +0.000 A 
BRANCH  21  28
ATOM     27  C   UNL     1      -2.472  10.044  17.647  0.00  0.00    +0.000 C 
ATOM     28  C   UNL     1      -1.170  10.690  18.081  0.00  0.00    +0.000 C 
ATOM     29  N   UNL     1      -1.143  11.968  17.783  0.00  0.00    +0.000 NA
BRANCH  29  30
ATOM     30  O   UNL     1      -0.004  12.683  18.146  0.00  0.00    +0.000 OA
ATOM     31  H   UNL     1      -0.016  13.435  17.518  0.00  0.00    +0.000 HD
ENDBRANCH  29  30
ENDBRANCH  21  28
ENDBRANCH  19  25
ENDBRANCH   1  19
TORSDOF 4
ENDMDL
MODEL 2
REMARK VINA RESULT:      -9.1      1.717      2.186
REMARK  Name = 
REMARK  5 active torsions:
REMARK  status: ('A' for Active; 'I' for Inactive)
REMARK    1  A    between atoms: C_1  and  C_2
REMARK    2  A    between atoms: C_2  and  C_5
REMARK    3  A    between atoms: N_3  and  O_4
REMARK    4  A    between atoms: C_9  and  N_10
REMARK    5  A    between atoms: N_10  and  C_11
REMARK                            x       y       z     vdW  Elec       q    Type
REMARK                         _______ _______ _______ _____ _____    ______ ____
ROOT
ATOM      1  C   UNL     1       3.411   6.224  17.724  0.00  0.00    +0.000 A 
ATOM      2  N   UNL     1       4.416   6.519  16.862  0.00  0.00    +0.000 NA
ATOM      3  C   UNL     1       5.196   5.617  16.336  0.00  0.00    +0.000 A 
ATOM      4  C   UNL     1       5.919   6.078  15.264  0.00  0.00    +0.000 A 
ATOM      5  C   UNL     1       6.442   5.206  14.331  0.00  0.00    +0.000 A 
ATOM      6  C   UNL     1       6.217   3.847  14.504  0.00  0.00    +0.000 A 
ATOM      7  C   UNL     1       5.612   3.372  15.694  0.00  0.00    +0.000 A 
ATOM      8  C   UNL     1       5.178   4.273  16.716  0.00  0.00    +0.000 A 
ATOM      9  C   UNL     1       4.395   3.962  17.891  0.00  0.00    +0.000 A 
ATOM     10  N   UNL     1       4.270   4.511  19.396  0.00  0.00    +0.000 N 
ATOM     11  C   UNL     1       2.841   4.425  19.688  0.00  0.00    +0.000 A 
ATOM     12  C   UNL     1       1.716   4.777  20.525  0.00  0.00    +0.000 A 
ATOM     13  C   UNL     1       1.035   3.666  21.090  0.00  0.00    +0.000 A 
ATOM     14  C   UNL     1       1.538   2.432  20.847  0.00  0.00    +0.000 A 
ATOM     15  C   UNL     1       2.376   2.355  19.673  0.00  0.00    +0.000 A 
ATOM     16  C   UNL     1       2.761   3.430  18.786  0.00  0.00    +0.000 A 
ATOM     17  C   UNL     1       3.129   4.585  17.885  0.00  0.00    +0.000 A 
ATOM     18  H   UNL     1       4.874   5.230  19.742  0.00  0.00    +0.000 HD
ENDROOT
BRANCH   1  19
ATOM     19  N   UNL     1       3.232   7.401  18.575  0.00  0.00    +0.000 N 
ATOM     20  H   UNL     1       4.103   7.693  18.998  0.00  0.00    +0.000 HD
BRANCH  19  25
ATOM     21  C   UNL     1       0.421   9.713  20.366  0.00  0.00    +0.000 A 
ATOM     22  C   UNL     1      -0.139  10.232  19.196  0.00  0.00    +0.000 A 
ATOM     23  C   UNL     1       0.324   9.802  17.966  0.00  0.00    +0.000 A 
ATOM     24  C   UNL     1       1.375   8.856  17.840  0.00  0.00    +0.000 A 
ATOM     25  C   UNL     1       2.078   8.308  18.940  0.00  0.00    +0.000 A 
ATOM     26  C   UNL     1       1.541   8.748  20.227  0.00  0.00    +0.000 A 
BRANCH  21  28
ATOM     27  C   UNL     1      -0.279  11.774  21.866  0.00  0.00    +0.000 C 
ATOM     28  C   UNL     1      -0.225  10.273  21.657  0.00  0.00    +0.000 C 
ATOM     29  N   UNL     1      -0.753   9.625  22.669  0.00  0.00    +0.000 NA
BRANCH  29  30
ATOM     30  O   UNL     1      -0.781   8.234  22.592  0.00  0.00    +0.000 OA
ATOM     31  H   UNL     1      -0.349   7.967  23.430  0.00  0.00    +0.000 HD
ENDBRANCH  29  30
ENDBRANCH  21  28
ENDBRANCH  19  25
ENDBRANCH   1  19
TORSDOF 4
ENDMDL
MODEL 3
REMARK VINA RESULT:      -9.1      1.331      1.935
REMARK  Name = 
REMARK  5 active torsions:
REMARK  status: ('A' for Active; 'I' for Inactive)
REMARK    1  A    between atoms: C_1  and  C_2
REMARK    2  A    between atoms: C_2  and  C_5
REMARK    3  A    between atoms: N_3  and  O_4
REMARK    4  A    between atoms: C_9  and  N_10
REMARK    5  A    between atoms: N_10  and  C_11
REMARK                            x       y       z     vdW  Elec       q    Type
REMARK                         _______ _______ _______ _____ _____    ______ ____
ROOT
ATOM      1  C   UNL     1       3.530   6.200  17.552  0.00  0.00    +0.000 A 
ATOM      2  N   UNL     1       4.551   6.462  16.697  0.00  0.00    +0.000 NA
ATOM      3  C   UNL     1       5.303   5.535  16.175  0.00  0.00    +0.000 A 
ATOM      4  C   UNL     1       6.050   5.974  15.110  0.00  0.00    +0.000 A 
ATOM      5  C   UNL     1       6.549   5.086  14.178  0.00  0.00    +0.000 A 
ATOM      6  C   UNL     1       6.276   3.735  14.345  0.00  0.00    +0.000 A 
ATOM      7  C   UNL     1       5.646   3.278  15.530  0.00  0.00    +0.000 A 
ATOM      8  C   UNL     1       5.236   4.192  16.551  0.00  0.00    +0.000 A 
ATOM      9  C   UNL     1       4.434   3.906  17.720  0.00  0.00    +0.000 A 
ATOM     10  N   UNL     1       4.317   4.454  19.225  0.00  0.00    +0.000 N 
ATOM     11  C   UNL     1       2.884   4.418  19.507  0.00  0.00    +0.000 A 
ATOM     12  C   UNL     1       1.766   4.806  20.337  0.00  0.00    +0.000 A 
ATOM     13  C   UNL     1       1.043   3.718  20.894  0.00  0.00    +0.000 A 
ATOM     14  C   UNL     1       1.504   2.468  20.652  0.00  0.00    +0.000 A 
ATOM     15  C   UNL     1       2.348   2.365  19.483  0.00  0.00    +0.000 A 
ATOM     16  C   UNL     1       2.776   3.428  18.601  0.00  0.00    +0.000 A 
ATOM     17  C   UNL     1       3.191   4.572  17.707  0.00  0.00    +0.000 A 
ATOM     18  H   UNL     1       4.943   5.152  19.578  0.00  0.00    +0.000 HD
ENDROOT
BRANCH   1  19
ATOM     19  N   UNL     1       3.385   7.381  18.404  0.00  0.00    +0.000 N 
ATOM     20  H   UNL     1       4.280   7.710  18.742  0.00  0.00    +0.000 HD
BRANCH  19  25
ATOM     21  C   UNL     1       0.623   9.552  20.432  0.00  0.00    +0.000 A 
ATOM     22  C   UNL     1       0.009  10.125  19.316  0.00  0.00    +0.000 A 
ATOM     23  C   UNL     1       0.426   9.768  18.047  0.00  0.00    +0.000 A 
ATOM     24  C   UNL     1       1.483   8.846  17.826  0.00  0.00    +0.000 A 
ATOM     25  C   UNL     1       2.237   8.249  18.865  0.00  0.00    +0.000 A 
ATOM     26  C   UNL     1       1.748   8.612  20.195  0.00  0.00    +0.000 A 
BRANCH  21  28
ATOM     27  C   UNL     1      -0.689   9.033  22.667  0.00  0.00    +0.000 C 
ATOM     28  C   UNL     1       0.025  10.032  21.777  0.00  0.00    +0.000 C 
ATOM     29  N   UNL     1       0.020  11.235  22.301  0.00  0.00    +0.000 NA
BRANCH  29  30
ATOM     30  O   UNL     1       0.661  12.245  21.587  0.00  0.00    +0.000 OA
ATOM     31  H   UNL     1       0.398  12.051  20.663  0.00  0.00    +0.000 HD
ENDBRANCH  29  30
ENDBRANCH  21  28
ENDBRANCH  19  25
ENDBRANCH   1  19
TORSDOF 4
ENDMDL
MODEL 4
REMARK VINA RESULT:      -9.0      0.884      1.005
REMARK  Name = 
REMARK  5 active torsions:
REMARK  status: ('A' for Active; 'I' for Inactive)
REMARK    1  A    between atoms: C_1  and  C_2
REMARK    2  A    between atoms: C_2  and  C_5
REMARK    3  A    between atoms: N_3  and  O_4
REMARK    4  A    between atoms: C_9  and  N_10
REMARK    5  A    between atoms: N_10  and  C_11
REMARK                            x       y       z     vdW  Elec       q    Type
REMARK                         _______ _______ _______ _____ _____    ______ ____
ROOT
ATOM      1  C   UNL     1       3.407   6.251  17.725  0.00  0.00    +0.000 A 
ATOM      2  N   UNL     1       4.407   6.546  16.856  0.00  0.00    +0.000 NA
ATOM      3  C   UNL     1       5.175   5.643  16.316  0.00  0.00    +0.000 A 
ATOM      4  C   UNL     1       5.892   6.108  15.241  0.00  0.00    +0.000 A 
ATOM      5  C   UNL     1       6.400   5.240  14.296  0.00  0.00    +0.000 A 
ATOM      6  C   UNL     1       6.166   3.881  14.459  0.00  0.00    +0.000 A 
ATOM      7  C   UNL     1       5.568   3.400  15.651  0.00  0.00    +0.000 A 
ATOM      8  C   UNL     1       5.151   4.296  16.684  0.00  0.00    +0.000 A 
ATOM      9  C   UNL     1       4.375   3.981  17.864  0.00  0.00    +0.000 A 
ATOM     10  N   UNL     1       4.268   4.518  19.374  0.00  0.00    +0.000 N 
ATOM     11  C   UNL     1       2.841   4.440  19.679  0.00  0.00    +0.000 A 
ATOM     12  C   UNL     1       1.726   4.793  20.528  0.00  0.00    +0.000 A 
ATOM     13  C   UNL     1       1.042   3.682  21.090  0.00  0.00    +0.000 A 
ATOM     14  C   UNL     1       1.533   2.447  20.833  0.00  0.00    +0.000 A 
ATOM     15  C   UNL     1       2.361   2.373  19.650  0.00  0.00    +0.000 A 
ATOM     16  C   UNL     1       2.745   3.453  18.768  0.00  0.00    +0.000 A 
ATOM     17  C   UNL     1       3.114   4.614  17.875  0.00  0.00    +0.000 A 
ATOM     18  H   UNL     1       4.880   5.230  19.721  0.00  0.00    +0.000 HD
ENDROOT
BRANCH   1  19
ATOM     19  N   UNL     1       3.244   7.422  18.587  0.00  0.00    +0.000 N 
ATOM     20  H   UNL     1       4.129   7.735  18.965  0.00  0.00    +0.000 HD
BRANCH  19  25
ATOM     21  C   UNL     1       0.137  10.013  18.893  0.00  0.00    +0.000 A 
ATOM     22  C   UNL     1      -0.209   9.704  20.211  0.00  0.00    +0.000 A 
ATOM     23  C   UNL     1       0.552   8.795  20.923  0.00  0.00    +0.000 A 
ATOM     24  C   UNL     1       1.674   8.136  20.357  0.00  0.00    +0.000 A 
ATOM     25  C   UNL     1       2.089   8.301  19.013  0.00  0.00    +0.000 A 
ATOM     26  C   UNL     1       1.294   9.297  18.297  0.00  0.00    +0.000 A 
BRANCH  21  28
ATOM     27  C   UNL     1      -0.582  12.534  18.560  0.00  0.00    +0.000 C 
ATOM     28  C   UNL     1      -0.793  11.066  18.244  0.00  0.00    +0.000 C 
ATOM     29  N   UNL     1      -1.805  10.890  17.427  0.00  0.00    +0.000 NA
BRANCH  29  30
ATOM     30  O   UNL     1      -2.094   9.582  17.044  0.00  0.00    +0.000 OA
ATOM     31  H   UNL     1      -1.209   9.163  17.036  0.00  0.00    +0.000 HD
ENDBRANCH  29  30
ENDBRANCH  21  28
ENDBRANCH  19  25
ENDBRANCH   1  19
TORSDOF 4
ENDMDL
MODEL 5
REMARK VINA RESULT:      -8.5      2.396      4.889
REMARK  Name = 
REMARK  5 active torsions:
REMARK  status: ('A' for Active; 'I' for Inactive)
REMARK    1  A    between atoms: C_1  and  C_2
REMARK    2  A    between atoms: C_2  and  C_5
REMARK    3  A    between atoms: N_3  and  O_4
REMARK    4  A    between atoms: C_9  and  N_10
REMARK    5  A    between atoms: N_10  and  C_11
REMARK                            x       y       z     vdW  Elec       q    Type
REMARK                         _______ _______ _______ _____ _____    ______ ____
ROOT
ATOM      1  C   UNL     1       3.015   6.340  19.484  0.00  0.00    +0.000 A 
ATOM      2  N   UNL     1       2.010   5.575  19.979  0.00  0.00    +0.000 NA
ATOM      3  C   UNL     1       2.123   4.294  20.189  0.00  0.00    +0.000 A 
ATOM      4  C   UNL     1       1.125   3.780  20.980  0.00  0.00    +0.000 A 
ATOM      5  C   UNL     1       1.297   2.591  21.660  0.00  0.00    +0.000 A 
ATOM      6  C   UNL     1       2.508   1.926  21.524  0.00  0.00    +0.000 A 
ATOM      7  C   UNL     1       3.466   2.379  20.582  0.00  0.00    +0.000 A 
ATOM      8  C   UNL     1       3.233   3.546  19.790  0.00  0.00    +0.000 A 
ATOM      9  C   UNL     1       4.172   4.228  18.927  0.00  0.00    +0.000 A 
ATOM     10  N   UNL     1       4.109   5.079  17.566  0.00  0.00    +0.000 N 
ATOM     11  C   UNL     1       5.109   6.127  17.755  0.00  0.00    +0.000 A 
ATOM     12  C   UNL     1       5.689   7.387  17.346  0.00  0.00    +0.000 A 
ATOM     13  C   UNL     1       7.063   7.315  16.997  0.00  0.00    +0.000 A 
ATOM     14  C   UNL     1       7.654   6.096  17.020  0.00  0.00    +0.000 A 
ATOM     15  C   UNL     1       6.978   5.126  17.851  0.00  0.00    +0.000 A 
ATOM     16  C   UNL     1       5.753   5.300  18.600  0.00  0.00    +0.000 A 
ATOM     17  C   UNL     1       4.474   5.533  19.368  0.00  0.00    +0.000 A 
ATOM     18  H   UNL     1       3.251   5.202  17.065  0.00  0.00    +0.000 HD
ENDROOT
BRANCH   1  19
ATOM     19  N   UNL     1       2.383   7.456  18.780  0.00  0.00    +0.000 N 
ATOM     20  H   UNL     1       2.394   7.320  17.777  0.00  0.00    +0.000 HD
BRANCH  19  25
ATOM     21  C   UNL     1       0.352  10.456  20.605  0.00  0.00    +0.000 A 
ATOM     22  C   UNL     1       0.593  11.434  19.637  0.00  0.00    +0.000 A 
ATOM     23  C   UNL     1       1.286  11.103  18.488  0.00  0.00    +0.000 A 
ATOM     24  C   UNL     1       1.791   9.796  18.255  0.00  0.00    +0.000 A 
ATOM     25  C   UNL     1       1.682   8.733  19.184  0.00  0.00    +0.000 A 
ATOM     26  C   UNL     1       0.909   9.099  20.370  0.00  0.00    +0.000 A 
BRANCH  21  28
ATOM     27  C   UNL     1      -1.569  11.984  21.586  0.00  0.00    +0.000 C 
ATOM     28  C   UNL     1      -0.460  10.976  21.816  0.00  0.00    +0.000 C 
ATOM     29  N   UNL     1      -0.332  10.683  23.090  0.00  0.00    +0.000 NA
BRANCH  29  30
ATOM     30  O   UNL     1       0.645   9.751  23.434  0.00  0.00    +0.000 OA
ATOM     31  H   UNL     1       0.147   8.907  23.418  0.00  0.00    +0.000 HD
ENDBRANCH  29  30
ENDBRANCH  21  28
ENDBRANCH  19  25
ENDBRANCH   1  19
TORSDOF 4
ENDMDL
MODEL 6
REMARK VINA RESULT:      -8.3      2.504      2.911
REMARK  Name = 
REMARK  5 active torsions:
REMARK  status: ('A' for Active; 'I' for Inactive)
REMARK    1  A    between atoms: C_1  and  C_2
REMARK    2  A    between atoms: C_2  and  C_5
REMARK    3  A    between atoms: N_3  and  O_4
REMARK    4  A    between atoms: C_9  and  N_10
REMARK    5  A    between atoms: N_10  and  C_11
REMARK                            x       y       z     vdW  Elec       q    Type
REMARK                         _______ _______ _______ _____ _____    ______ ____
ROOT
ATOM      1  C   UNL     1       3.140   6.163  17.916  0.00  0.00    +0.000 A 
ATOM      2  N   UNL     1       4.193   6.931  17.541  0.00  0.00    +0.000 NA
ATOM      3  C   UNL     1       5.422   6.680  17.892  0.00  0.00    +0.000 A 
ATOM      4  C   UNL     1       6.352   7.372  17.156  0.00  0.00    +0.000 A 
ATOM      5  C   UNL     1       7.659   6.934  17.070  0.00  0.00    +0.000 A 
ATOM      6  C   UNL     1       8.010   5.774  17.747  0.00  0.00    +0.000 A 
ATOM      7  C   UNL     1       7.087   5.160  18.631  0.00  0.00    +0.000 A 
ATOM      8  C   UNL     1       5.770   5.687  18.810  0.00  0.00    +0.000 A 
ATOM      9  C   UNL     1       4.670   5.084  19.530  0.00  0.00    +0.000 A 
ATOM     10  N   UNL     1       3.405   5.592  20.380  0.00  0.00    +0.000 N 
ATOM     11  C   UNL     1       2.343   4.650  20.036  0.00  0.00    +0.000 A 
ATOM     12  C   UNL     1       0.941   4.295  20.036  0.00  0.00    +0.000 A 
ATOM     13  C   UNL     1       0.644   3.079  20.705  0.00  0.00    +0.000 A 
ATOM     14  C   UNL     1       1.665   2.430  21.313  0.00  0.00    +0.000 A 
ATOM     15  C   UNL     1       2.972   2.772  20.800  0.00  0.00    +0.000 A 
ATOM     16  C   UNL     1       3.297   3.737  19.773  0.00  0.00    +0.000 A 
ATOM     17  C   UNL     1       3.584   4.752  18.692  0.00  0.00    +0.000 A 
ATOM     18  H   UNL     1       3.257   6.564  20.566  0.00  0.00    +0.000 HD
ENDROOT
BRANCH   1  19
ATOM     19  N   UNL     1       1.970   7.042  17.942  0.00  0.00    +0.000 N 
ATOM     20  H   UNL     1       1.291   6.783  17.238  0.00  0.00    +0.000 HD
BRANCH  19  25
ATOM     21  C   UNL     1       0.792   9.598  20.864  0.00  0.00    +0.000 A 
ATOM     22  C   UNL     1       0.794  10.756  20.083  0.00  0.00    +0.000 A 
ATOM     23  C   UNL     1       1.084  10.672  18.734  0.00  0.00    +0.000 A 
ATOM     24  C   UNL     1       1.406   9.442  18.102  0.00  0.00    +0.000 A 
ATOM     25  C   UNL     1       1.511   8.208  18.788  0.00  0.00    +0.000 A 
ATOM     26  C   UNL     1       1.159   8.319  20.204  0.00  0.00    +0.000 A 
BRANCH  21  28
ATOM     27  C   UNL     1      -0.960  10.386  22.680  0.00  0.00    +0.000 C 
ATOM     28  C   UNL     1       0.420   9.855  22.344  0.00  0.00    +0.000 C 
ATOM     29  N   UNL     1       1.150   9.694  23.424  0.00  0.00    +0.000 NA
BRANCH  29  30
ATOM     30  O   UNL     1       2.439   9.194  23.253  0.00  0.00    +0.000 OA
ATOM     31  H   UNL     1       2.799   9.771  22.547  0.00  0.00    +0.000 HD
ENDBRANCH  29  30
ENDBRANCH  21  28
ENDBRANCH  19  25
ENDBRANCH   1  19
TORSDOF 4
ENDMDL
MODEL 7
REMARK VINA RESULT:      -8.3      2.077      4.812
REMARK  Name = 
REMARK  5 active torsions:
REMARK  status: ('A' for Active; 'I' for Inactive)
REMARK    1  A    between atoms: C_1  and  C_2
REMARK    2  A    between atoms: C_2  and  C_5
REMARK    3  A    between atoms: N_3  and  O_4
REMARK    4  A    between atoms: C_9  and  N_10
REMARK    5  A    between atoms: N_10  and  C_11
REMARK                            x       y       z     vdW  Elec       q    Type
REMARK                         _______ _______ _______ _____ _____    ______ ____
ROOT
ATOM      1  C   UNL     1       3.221   6.079  18.903  0.00  0.00    +0.000 A 
ATOM      2  N   UNL     1       2.333   5.544  19.779  0.00  0.00    +0.000 NA
ATOM      3  C   UNL     1       2.334   4.286  20.119  0.00  0.00    +0.000 A 
ATOM      4  C   UNL     1       1.582   4.023  21.237  0.00  0.00    +0.000 A 
ATOM      5  C   UNL     1       1.801   2.887  21.991  0.00  0.00    +0.000 A 
ATOM      6  C   UNL     1       2.804   2.015  21.588  0.00  0.00    +0.000 A 
ATOM      7  C   UNL     1       3.462   2.212  20.348  0.00  0.00    +0.000 A 
ATOM      8  C   UNL     1       3.147   3.328  19.511  0.00  0.00    +0.000 A 
ATOM      9  C   UNL     1       3.843   3.759  18.318  0.00  0.00    +0.000 A 
ATOM     10  N   UNL     1       3.463   4.485  16.936  0.00  0.00    +0.000 N 
ATOM     11  C   UNL     1       4.602   5.360  16.669  0.00  0.00    +0.000 A 
ATOM     12  C   UNL     1       5.184   6.461  15.934  0.00  0.00    +0.000 A 
ATOM     13  C   UNL     1       6.351   6.124  15.200  0.00  0.00    +0.000 A 
ATOM     14  C   UNL     1       6.749   4.829  15.211  0.00  0.00    +0.000 A 
ATOM     15  C   UNL     1       6.251   4.067  16.332  0.00  0.00    +0.000 A 
ATOM     16  C   UNL     1       5.365   4.512  17.385  0.00  0.00    +0.000 A 
ATOM     17  C   UNL     1       4.442   5.028  18.464  0.00  0.00    +0.000 A 
ATOM     18  H   UNL     1       2.514   4.709  16.707  0.00  0.00    +0.000 HD
ENDROOT
BRANCH   1  19
ATOM     19  N   UNL     1       2.552   7.220  18.276  0.00  0.00    +0.000 N 
ATOM     20  H   UNL     1       2.461   7.097  17.276  0.00  0.00    +0.000 HD
BRANCH  19  25
ATOM     21  C   UNL     1       0.705  10.217  20.292  0.00  0.00    +0.000 A 
ATOM     22  C   UNL     1       1.000  11.236  19.383  0.00  0.00    +0.000 A 
ATOM     23  C   UNL     1       1.670  10.936  18.211  0.00  0.00    +0.000 A 
ATOM     24  C   UNL     1       2.097   9.619  17.897  0.00  0.00    +0.000 A 
ATOM     25  C   UNL     1       1.928   8.510  18.761  0.00  0.00    +0.000 A 
ATOM     26  C   UNL     1       1.182   8.847  19.972  0.00  0.00    +0.000 A 
BRANCH  21  28
ATOM     27  C   UNL     1      -1.282  11.603  21.349  0.00  0.00    +0.000 C 
ATOM     28  C   UNL     1      -0.071  10.710  21.537  0.00  0.00    +0.000 C 
ATOM     29  N   UNL     1       0.166  10.481  22.808  0.00  0.00    +0.000 NA
BRANCH  29  30
ATOM     30  O   UNL     1       1.246   9.657  23.117  0.00  0.00    +0.000 OA
ATOM     31  H   UNL     1       2.015  10.233  22.921  0.00  0.00    +0.000 HD
ENDBRANCH  29  30
ENDBRANCH  21  28
ENDBRANCH  19  25
ENDBRANCH   1  19
TORSDOF 4
ENDMDL
MODEL 8
REMARK VINA RESULT:      -8.2      1.575      4.389
REMARK  Name = 
REMARK  5 active torsions:
REMARK  status: ('A' for Active; 'I' for Inactive)
REMARK    1  A    between atoms: C_1  and  C_2
REMARK    2  A    between atoms: C_2  and  C_5
REMARK    3  A    between atoms: N_3  and  O_4
REMARK    4  A    between atoms: C_9  and  N_10
REMARK    5  A    between atoms: N_10  and  C_11
REMARK                            x       y       z     vdW  Elec       q    Type
REMARK                         _______ _______ _______ _____ _____    ______ ____
ROOT
ATOM      1  C   UNL     1       3.121   6.535  19.343  0.00  0.00    +0.000 A 
ATOM      2  N   UNL     1       2.057   5.828  19.799  0.00  0.00    +0.000 NA
ATOM      3  C   UNL     1       2.081   4.539  19.985  0.00  0.00    +0.000 A 
ATOM      4  C   UNL     1       1.034   4.077  20.743  0.00  0.00    +0.000 A 
ATOM      5  C   UNL     1       1.112   2.866  21.402  0.00  0.00    +0.000 A 
ATOM      6  C   UNL     1       2.280   2.125  21.278  0.00  0.00    +0.000 A 
ATOM      7  C   UNL     1       3.287   2.532  20.366  0.00  0.00    +0.000 A 
ATOM      8  C   UNL     1       3.149   3.728  19.594  0.00  0.00    +0.000 A 
ATOM      9  C   UNL     1       4.150   4.363  18.765  0.00  0.00    +0.000 A 
ATOM     10  N   UNL     1       4.173   5.242  17.421  0.00  0.00    +0.000 N 
ATOM     11  C   UNL     1       5.235   6.219  17.654  0.00  0.00    +0.000 A 
ATOM     12  C   UNL     1       5.905   7.445  17.284  0.00  0.00    +0.000 A 
ATOM     13  C   UNL     1       7.279   7.289  16.964  0.00  0.00    +0.000 A 
ATOM     14  C   UNL     1       7.788   6.034  16.973  0.00  0.00    +0.000 A 
ATOM     15  C   UNL     1       7.032   5.095  17.769  0.00  0.00    +0.000 A 
ATOM     16  C   UNL     1       5.804   5.334  18.495  0.00  0.00    +0.000 A 
ATOM     17  C   UNL     1       4.526   5.636  19.241  0.00  0.00    +0.000 A 
ATOM     18  H   UNL     1       3.336   5.432  16.906  0.00  0.00    +0.000 HD
ENDROOT
BRANCH   1  19
ATOM     19  N   UNL     1       2.580   7.704  18.648  0.00  0.00    +0.000 N 
ATOM     20  H   UNL     1       3.078   7.893  17.789  0.00  0.00    +0.000 HD
BRANCH  19  25
ATOM     21  C   UNL     1      -0.706  10.075  18.449  0.00  0.00    +0.000 A 
ATOM     22  C   UNL     1      -0.723  10.451  19.794  0.00  0.00    +0.000 A 
ATOM     23  C   UNL     1       0.284  10.019  20.638  0.00  0.00    +0.000 A 
ATOM     24  C   UNL     1       1.338   9.179  20.194  0.00  0.00    +0.000 A 
ATOM     25  C   UNL     1       1.435   8.666  18.878  0.00  0.00    +0.000 A 
ATOM     26  C   UNL     1       0.383   9.171  17.997  0.00  0.00    +0.000 A 
BRANCH  21  28
ATOM     27  C   UNL     1      -3.064   9.775  17.294  0.00  0.00    +0.000 C 
ATOM     28  C   UNL     1      -1.882  10.662  17.631  0.00  0.00    +0.000 C 
ATOM     29  N   UNL     1      -2.030  11.870  17.139  0.00  0.00    +0.000 NA
BRANCH  29  30
ATOM     30  O   UNL     1      -1.016  12.791  17.394  0.00  0.00    +0.000 OA
ATOM     31  H   UNL     1      -1.487  13.648  17.325  0.00  0.00    +0.000 HD
ENDBRANCH  29  30
ENDBRANCH  21  28
ENDBRANCH  19  25
ENDBRANCH   1  19
TORSDOF 4
ENDMDL
MODEL 9
REMARK VINA RESULT:      -8.2      2.109      2.546
REMARK  Name = 
REMARK  5 active torsions:
REMARK  status: ('A' for Active; 'I' for Inactive)
REMARK    1  A    between atoms: C_1  and  C_2
REMARK    2  A    between atoms: C_2  and  C_5
REMARK    3  A    between atoms: N_3  and  O_4
REMARK    4  A    between atoms: C_9  and  N_10
REMARK    5  A    between atoms: N_10  and  C_11
REMARK                            x       y       z     vdW  Elec       q    Type
REMARK                         _______ _______ _______ _____ _____    ______ ____
ROOT
ATOM      1  C   UNL     1       3.322   6.249  18.567  0.00  0.00    +0.000 A 
ATOM      2  N   UNL     1       4.517   6.815  18.260  0.00  0.00    +0.000 NA
ATOM      3  C   UNL     1       5.505   6.155  17.727  0.00  0.00    +0.000 A 
ATOM      4  C   UNL     1       6.484   6.964  17.206  0.00  0.00    +0.000 A 
ATOM      5  C   UNL     1       7.358   6.496  16.246  0.00  0.00    +0.000 A 
ATOM      6  C   UNL     1       7.221   5.182  15.818  0.00  0.00    +0.000 A 
ATOM      7  C   UNL     1       6.316   4.311  16.475  0.00  0.00    +0.000 A 
ATOM      8  C   UNL     1       5.496   4.769  17.553  0.00  0.00    +0.000 A 
ATOM      9  C   UNL     1       4.413   4.062  18.199  0.00  0.00    +0.000 A 
ATOM     10  N   UNL     1       3.764   4.000  19.668  0.00  0.00    +0.000 N 
ATOM     11  C   UNL     1       2.331   3.860  19.417  0.00  0.00    +0.000 A 
ATOM     12  C   UNL     1       0.970   3.905  19.902  0.00  0.00    +0.000 A 
ATOM     13  C   UNL     1       0.254   2.687  19.756  0.00  0.00    +0.000 A 
ATOM     14  C   UNL     1       0.923   1.622  19.254  0.00  0.00    +0.000 A 
ATOM     15  C   UNL     1       2.095   1.968  18.483  0.00  0.00    +0.000 A 
ATOM     16  C   UNL     1       2.638   3.286  18.238  0.00  0.00    +0.000 A 
ATOM     17  C   UNL     1       3.161   4.684  18.007  0.00  0.00    +0.000 A 
ATOM     18  H   UNL     1       4.154   4.512  20.434  0.00  0.00    +0.000 HD
ENDROOT
BRANCH   1  19
ATOM     19  N   UNL     1       2.769   7.019  19.682  0.00  0.00    +0.000 N 
ATOM     20  H   UNL     1       3.111   6.684  20.573  0.00  0.00    +0.000 HD
BRANCH  19  25
ATOM     21  C   UNL     1       0.459  10.117  20.915  0.00  0.00    +0.000 A 
ATOM     22  C   UNL     1       0.195  10.643  19.648  0.00  0.00    +0.000 A 
ATOM     23  C   UNL     1       0.673   9.995  18.524  0.00  0.00    +0.000 A 
ATOM     24  C   UNL     1       1.452   8.811  18.605  0.00  0.00    +0.000 A 
ATOM     25  C   UNL     1       1.854   8.214  19.825  0.00  0.00    +0.000 A 
ATOM     26  C   UNL     1       1.300   8.896  20.994  0.00  0.00    +0.000 A 
BRANCH  21  28
ATOM     27  C   UNL     1      -0.435  12.419  21.858  0.00  0.00    +0.000 C 
ATOM     28  C   UNL     1      -0.169  10.941  22.066  0.00  0.00    +0.000 C 
ATOM     29  N   UNL     1      -0.517  10.553  23.271  0.00  0.00    +0.000 NA
BRANCH  29  30
ATOM     30  O   UNL     1      -0.339   9.207  23.584  0.00  0.00    +0.000 OA
ATOM     31  H   UNL     1      -0.149   8.809  22.708  0.00  0.00    +0.000 HD
ENDBRANCH  29  30
ENDBRANCH  21  28
ENDBRANCH  19  25
ENDBRANCH   1  19
TORSDOF 4
ENDMDL
