MODEL 1
REMARK VINA RESULT:      -7.5      0.000      0.000
REMARK  Name = 
REMARK  11 active torsions:
REMARK  status: ('A' for Active; 'I' for Inactive)
REMARK    1  A    between atoms: C_1  and  O_2
REMARK    2  A    between atoms: O_2  and  C_3
REMARK    3  A    between atoms: C_3  and  C_4
REMARK    4  A    between atoms: C_4  and  N_5
REMARK    5  A    between atoms: C_6  and  S_7
REMARK    6  A    between atoms: S_7  and  C_8
REMARK    7  A    between atoms: C_8  and  C_9
REMARK    8  A    between atoms: C_9  and  C_11
REMARK    9  A    between atoms: C_14  and  C_15
REMARK   10  A    between atoms: C_15  and  N_16
REMARK   11  A    between atoms: C_17  and  C_18
REMARK                            x       y       z     vdW  Elec       q    Type
REMARK                         _______ _______ _______ _____ _____    ______ ____
ROOT
ATOM      1  N   UNL     1       3.249   3.927  18.694  0.00  0.00    +0.000 N 
ATOM      2  C   UNL     1       3.154   5.319  18.684  0.00  0.00    +0.000 A 
ATOM      3  N   UNL     1       3.755   6.082  17.825  0.00  0.00    +0.000 NA
ATOM      4  C   UNL     1       4.535   5.479  16.825  0.00  0.00    +0.000 A 
ATOM      5  C   UNL     1       5.214   6.275  15.896  0.00  0.00    +0.000 A 
ATOM      6  C   UNL     1       6.002   5.697  14.894  0.00  0.00    +0.000 A 
ATOM      7  C   UNL     1       6.132   4.312  14.808  0.00  0.00    +0.000 A 
ATOM      8  C   UNL     1       5.461   3.509  15.724  0.00  0.00    +0.000 A 
ATOM      9  C   UNL     1       4.667   4.100  16.716  0.00  0.00    +0.000 A 
ATOM     10  C   UNL     1       3.945   3.268  17.682  0.00  0.00    +0.000 A 
ATOM     11  O   UNL     1       3.991   2.046  17.555  0.00  0.00    +0.000 OA
ENDROOT
BRANCH   1  12
ATOM     12  C   UNL     1       2.567   3.033  19.648  0.00  0.00    +0.000 C 
BRANCH  12  13
ATOM     13  C   UNL     1       3.456   2.582  20.820  0.00  0.00    +0.000 C 
BRANCH  13  15
ATOM     14  C   UNL     1       1.297   2.802  21.751  0.00  0.00    +0.000 C 
ATOM     15  O   UNL     1       2.675   2.573  22.020  0.00  0.00    +0.000 OA
ENDBRANCH  13  15
ENDBRANCH  12  13
ENDBRANCH   1  12
BRANCH   2  16
ATOM     16  S   UNL     1       2.216   6.078  19.960  0.00  0.00    +0.000 S 
BRANCH  16  17
ATOM     17  C   UNL     1       2.143   7.822  19.470  0.00  0.00    +0.000 C 
BRANCH  17  18
ATOM     18  C   UNL     1       1.245   8.693  20.338  0.00  0.00    +0.000 C 
ATOM     19  O   UNL     1       1.002   8.440  21.519  0.00  0.00    +0.000 OA
BRANCH  18  20
ATOM     20  C   UNL     1       0.682   9.862  19.673  0.00  0.00    +0.000 A 
ATOM     21  C   UNL     1       1.245  11.090  19.376  0.00  0.00    +0.000 A 
ATOM     22  C   UNL     1       0.254  11.851  18.713  0.00  0.00    +0.000 A 
ATOM     23  C   UNL     1      -0.859  11.045  18.617  0.00  0.00    +0.000 A 
ATOM     24  O   UNL     1      -0.613   9.838  19.215  0.00  0.00    +0.000 OA
BRANCH  23  25
ATOM     25  C   UNL     1      -2.207  11.257  18.031  0.00  0.00    +0.000 C 
BRANCH  25  26
ATOM     26  N   UNL     1      -2.221  10.675  16.709  0.00  0.00    +0.000 N 
ATOM     27  C   UNL     1      -3.273  10.881  15.852  0.00  0.00    +0.000 C 
ATOM     28  C   UNL     1      -3.091  10.270  14.488  0.00  0.00    +0.000 C 
ATOM     29  O   UNL     1      -4.289  11.495  16.160  0.00  0.00    +0.000 OA
ATOM     30  H   UNL     1      -1.342  10.334  16.341  0.00  0.00    +0.000 HD
ENDBRANCH  25  26
ENDBRANCH  23  25
ENDBRANCH  18  20
ENDBRANCH  17  18
ENDBRANCH  16  17
ENDBRANCH   2  16
TORSDOF 9
ENDMDL
MODEL 2
REMARK VINA RESULT:      -7.4      1.875      4.256
REMARK  Name = 
REMARK  11 active torsions:
REMARK  status: ('A' for Active; 'I' for Inactive)
REMARK    1  A    between atoms: C_1  and  O_2
REMARK    2  A    between atoms: O_2  and  C_3
REMARK    3  A    between atoms: C_3  and  C_4
REMARK    4  A    between atoms: C_4  and  N_5
REMARK    5  A    between atoms: C_6  and  S_7
REMARK    6  A    between atoms: S_7  and  C_8
REMARK    7  A    between atoms: C_8  and  C_9
REMARK    8  A    between atoms: C_9  and  C_11
REMARK    9  A    between atoms: C_14  and  C_15
REMARK   10  A    between atoms: C_15  and  N_16
REMARK   11  A    between atoms: C_17  and  C_18
REMARK                            x       y       z     vdW  Elec       q    Type
REMARK                         _______ _______ _______ _____ _____    ______ ____
ROOT
ATOM      1  N   UNL     1       4.318   5.710  18.360  0.00  0.00    +0.000 N 
ATOM      2  C   UNL     1       3.141   6.407  18.631  0.00  0.00    +0.000 A 
ATOM      3  N   UNL     1       2.195   5.965  19.400  0.00  0.00    +0.000 NA
ATOM      4  C   UNL     1       2.366   4.719  20.022  0.00  0.00    +0.000 A 
ATOM      5  C   UNL     1       1.355   4.204  20.840  0.00  0.00    +0.000 A 
ATOM      6  C   UNL     1       1.500   2.960  21.466  0.00  0.00    +0.000 A 
ATOM      7  C   UNL     1       2.656   2.205  21.277  0.00  0.00    +0.000 A 
ATOM      8  C   UNL     1       3.670   2.705  20.467  0.00  0.00    +0.000 A 
ATOM      9  C   UNL     1       3.516   3.956  19.854  0.00  0.00    +0.000 A 
ATOM     10  C   UNL     1       4.579   4.504  19.007  0.00  0.00    +0.000 A 
ATOM     11  O   UNL     1       5.632   3.877  18.909  0.00  0.00    +0.000 OA
ENDROOT
BRANCH   1  12
ATOM     12  C   UNL     1       5.417   6.192  17.502  0.00  0.00    +0.000 C 
BRANCH  12  13
ATOM     13  C   UNL     1       5.364   5.650  16.063  0.00  0.00    +0.000 C 
BRANCH  13  15
ATOM     14  C   UNL     1       6.868   4.912  14.399  0.00  0.00    +0.000 C 
ATOM     15  O   UNL     1       6.638   5.852  15.442  0.00  0.00    +0.000 OA
ENDBRANCH  13  15
ENDBRANCH  12  13
ENDBRANCH   1  12
BRANCH   2  16
ATOM     16  S   UNL     1       2.904   7.947  17.819  0.00  0.00    +0.000 S 
BRANCH  16  17
ATOM     17  C   UNL     1       1.681   8.801  18.850  0.00  0.00    +0.000 C 
BRANCH  17  18
ATOM     18  C   UNL     1       1.512  10.284  18.546  0.00  0.00    +0.000 C 
ATOM     19  O   UNL     1       2.312  10.925  17.864  0.00  0.00    +0.000 OA
BRANCH  18  20
ATOM     20  C   UNL     1       0.327  10.906  19.125  0.00  0.00    +0.000 A 
ATOM     21  C   UNL     1       0.116  11.453  20.377  0.00  0.00    +0.000 A 
ATOM     22  C   UNL     1      -1.217  11.929  20.402  0.00  0.00    +0.000 A 
ATOM     23  C   UNL     1      -1.748  11.668  19.158  0.00  0.00    +0.000 A 
ATOM     24  O   UNL     1      -0.820  11.030  18.380  0.00  0.00    +0.000 OA
BRANCH  23  25
ATOM     25  C   UNL     1      -3.082  11.926  18.561  0.00  0.00    +0.000 C 
BRANCH  25  26
ATOM     26  N   UNL     1      -2.978  11.753  17.131  0.00  0.00    +0.000 N 
ATOM     27  C   UNL     1      -3.271  10.551  16.537  0.00  0.00    +0.000 C 
ATOM     28  C   UNL     1      -3.188  10.565  15.034  0.00  0.00    +0.000 C 
ATOM     29  O   UNL     1      -3.561   9.537  17.163  0.00  0.00    +0.000 OA
ATOM     30  H   UNL     1      -2.938  12.588  16.562  0.00  0.00    +0.000 HD
ENDBRANCH  25  26
ENDBRANCH  23  25
ENDBRANCH  18  20
ENDBRANCH  17  18
ENDBRANCH  16  17
ENDBRANCH   2  16
TORSDOF 9
ENDMDL
MODEL 3
REMARK VINA RESULT:      -7.4      2.980      5.334
REMARK  Name = 
REMARK  11 active torsions:
REMARK  status: ('A' for Active; 'I' for Inactive)
REMARK    1  A    between atoms: C_1  and  O_2
REMARK    2  A    between atoms: O_2  and  C_3
REMARK    3  A    between atoms: C_3  and  C_4
REMARK    4  A    between atoms: C_4  and  N_5
REMARK    5  A    between atoms: C_6  and  S_7
REMARK    6  A    between atoms: S_7  and  C_8
REMARK    7  A    between atoms: C_8  and  C_9
REMARK    8  A    between atoms: C_9  and  C_11
REMARK    9  A    between atoms: C_14  and  C_15
REMARK   10  A    between atoms: C_15  and  N_16
REMARK   11  A    between atoms: C_17  and  C_18
REMARK                            x       y       z     vdW  Elec       q    Type
REMARK                         _______ _______ _______ _____ _____    ______ ____
ROOT
ATOM      1  N   UNL     1       4.339   5.910  18.316  0.00  0.00    +0.000 N 
ATOM      2  C   UNL     1       3.150   6.611  18.519  0.00  0.00    +0.000 A 
ATOM      3  N   UNL     1       2.159   6.169  19.228  0.00  0.00    +0.000 NA
ATOM      4  C   UNL     1       2.288   4.919  19.853  0.00  0.00    +0.000 A 
ATOM      5  C   UNL     1       1.227   4.404  20.607  0.00  0.00    +0.000 A 
ATOM      6  C   UNL     1       1.330   3.156  21.234  0.00  0.00    +0.000 A 
ATOM      7  C   UNL     1       2.493   2.398  21.111  0.00  0.00    +0.000 A 
ATOM      8  C   UNL     1       3.555   2.898  20.365  0.00  0.00    +0.000 A 
ATOM      9  C   UNL     1       3.443   4.153  19.751  0.00  0.00    +0.000 A 
ATOM     10  C   UNL     1       4.556   4.700  18.971  0.00  0.00    +0.000 A 
ATOM     11  O   UNL     1       5.611   4.069  18.933  0.00  0.00    +0.000 OA
ENDROOT
BRANCH   1  12
ATOM     12  C   UNL     1       5.489   6.392  17.527  0.00  0.00    +0.000 C 
BRANCH  12  13
ATOM     13  C   UNL     1       5.350   6.147  16.014  0.00  0.00    +0.000 C 
BRANCH  13  15
ATOM     14  C   UNL     1       7.009   4.485  15.765  0.00  0.00    +0.000 C 
ATOM     15  O   UNL     1       6.637   5.827  15.474  0.00  0.00    +0.000 OA
ENDBRANCH  13  15
ENDBRANCH  12  13
ENDBRANCH   1  12
BRANCH   2  16
ATOM     16  S   UNL     1       2.968   8.155  17.701  0.00  0.00    +0.000 S 
BRANCH  16  17
ATOM     17  C   UNL     1       1.290   8.685  18.138  0.00  0.00    +0.000 C 
BRANCH  17  18
ATOM     18  C   UNL     1       1.217   9.968  18.954  0.00  0.00    +0.000 C 
ATOM     19  O   UNL     1       1.525  11.071  18.501  0.00  0.00    +0.000 OA
BRANCH  18  20
ATOM     20  C   UNL     1       0.754   9.807  20.327  0.00  0.00    +0.000 A 
ATOM     21  C   UNL     1       1.104   8.882  21.295  0.00  0.00    +0.000 A 
ATOM     22  C   UNL     1       0.356   9.192  22.455  0.00  0.00    +0.000 A 
ATOM     23  C   UNL     1      -0.398  10.304  22.148  0.00  0.00    +0.000 A 
ATOM     24  O   UNL     1      -0.175  10.674  20.849  0.00  0.00    +0.000 OA
BRANCH  23  25
ATOM     25  C   UNL     1      -1.371  11.106  22.932  0.00  0.00    +0.000 C 
BRANCH  25  26
ATOM     26  N   UNL     1      -0.868  12.457  23.027  0.00  0.00    +0.000 N 
ATOM     27  C   UNL     1      -1.700  13.506  23.327  0.00  0.00    +0.000 C 
ATOM     28  C   UNL     1      -1.002  14.833  23.466  0.00  0.00    +0.000 C 
ATOM     29  O   UNL     1      -2.914  13.393  23.458  0.00  0.00    +0.000 OA
ATOM     30  H   UNL     1       0.132  12.576  23.122  0.00  0.00    +0.000 HD
ENDBRANCH  25  26
ENDBRANCH  23  25
ENDBRANCH  18  20
ENDBRANCH  17  18
ENDBRANCH  16  17
ENDBRANCH   2  16
TORSDOF 9
ENDMDL
MODEL 4
REMARK VINA RESULT:      -7.3      2.217      4.455
REMARK  Name = 
REMARK  11 active torsions:
REMARK  status: ('A' for Active; 'I' for Inactive)
REMARK    1  A    between atoms: C_1  and  O_2
REMARK    2  A    between atoms: O_2  and  C_3
REMARK    3  A    between atoms: C_3  and  C_4
REMARK    4  A    between atoms: C_4  and  N_5
REMARK    5  A    between atoms: C_6  and  S_7
REMARK    6  A    between atoms: S_7  and  C_8
REMARK    7  A    between atoms: C_8  and  C_9
REMARK    8  A    between atoms: C_9  and  C_11
REMARK    9  A    between atoms: C_14  and  C_15
REMARK   10  A    between atoms: C_15  and  N_16
REMARK   11  A    between atoms: C_17  and  C_18
REMARK                            x       y       z     vdW  Elec       q    Type
REMARK                         _______ _______ _______ _____ _____    ______ ____
ROOT
ATOM      1  N   UNL     1       4.320   5.945  18.264  0.00  0.00    +0.000 N 
ATOM      2  C   UNL     1       3.123   6.616  18.511  0.00  0.00    +0.000 A 
ATOM      3  N   UNL     1       2.161   6.143  19.240  0.00  0.00    +0.000 NA
ATOM      4  C   UNL     1       2.334   4.886  19.841  0.00  0.00    +0.000 A 
ATOM      5  C   UNL     1       1.306   4.338  20.616  0.00  0.00    +0.000 A 
ATOM      6  C   UNL     1       1.453   3.083  21.221  0.00  0.00    +0.000 A 
ATOM      7  C   UNL     1       2.627   2.352  21.053  0.00  0.00    +0.000 A 
ATOM      8  C   UNL     1       3.658   2.886  20.287  0.00  0.00    +0.000 A 
ATOM      9  C   UNL     1       3.502   4.147  19.695  0.00  0.00    +0.000 A 
ATOM     10  C   UNL     1       4.581   4.730  18.895  0.00  0.00    +0.000 A 
ATOM     11  O   UNL     1       5.648   4.123  18.817  0.00  0.00    +0.000 OA
ENDROOT
BRANCH   1  12
ATOM     12  C   UNL     1       5.437   6.463  17.452  0.00  0.00    +0.000 C 
BRANCH  12  13
ATOM     13  C   UNL     1       5.328   6.121  15.956  0.00  0.00    +0.000 C 
BRANCH  13  15
ATOM     14  C   UNL     1       6.763   4.370  15.284  0.00  0.00    +0.000 C 
ATOM     15  O   UNL     1       6.626   5.775  15.461  0.00  0.00    +0.000 OA
ENDBRANCH  13  15
ENDBRANCH  12  13
ENDBRANCH   1  12
BRANCH   2  16
ATOM     16  S   UNL     1       2.886   8.169  17.723  0.00  0.00    +0.000 S 
BRANCH  16  17
ATOM     17  C   UNL     1       1.564   8.950  18.688  0.00  0.00    +0.000 C 
BRANCH  17  18
ATOM     18  C   UNL     1       1.416  10.450  18.471  0.00  0.00    +0.000 C 
ATOM     19  O   UNL     1       2.321  11.158  18.029  0.00  0.00    +0.000 OA
BRANCH  18  20
ATOM     20  C   UNL     1       0.115  11.004  18.826  0.00  0.00    +0.000 A 
ATOM     21  C   UNL     1      -0.278  11.758  19.917  0.00  0.00    +0.000 A 
ATOM     22  C   UNL     1      -1.656  12.037  19.755  0.00  0.00    +0.000 A 
ATOM     23  C   UNL     1      -2.033  11.459  18.563  0.00  0.00    +0.000 A 
ATOM     24  O   UNL     1      -0.966  10.813  18.000  0.00  0.00    +0.000 OA
BRANCH  23  25
ATOM     25  C   UNL     1      -3.329  11.401  17.841  0.00  0.00    +0.000 C 
BRANCH  25  26
ATOM     26  N   UNL     1      -4.290  12.191  18.575  0.00  0.00    +0.000 N 
ATOM     27  C   UNL     1      -5.588  11.773  18.726  0.00  0.00    +0.000 C 
ATOM     28  C   UNL     1      -6.435  12.674  19.585  0.00  0.00    +0.000 C 
ATOM     29  O   UNL     1      -6.042  10.763  18.198  0.00  0.00    +0.000 OA
ATOM     30  H   UNL     1      -3.930  12.915  19.183  0.00  0.00    +0.000 HD
ENDBRANCH  25  26
ENDBRANCH  23  25
ENDBRANCH  18  20
ENDBRANCH  17  18
ENDBRANCH  16  17
ENDBRANCH   2  16
TORSDOF 9
ENDMDL
MODEL 5
REMARK VINA RESULT:      -7.2      2.310      4.418
REMARK  Name = 
REMARK  11 active torsions:
REMARK  status: ('A' for Active; 'I' for Inactive)
REMARK    1  A    between atoms: C_1  and  O_2
REMARK    2  A    between atoms: O_2  and  C_3
REMARK    3  A    between atoms: C_3  and  C_4
REMARK    4  A    between atoms: C_4  and  N_5
REMARK    5  A    between atoms: C_6  and  S_7
REMARK    6  A    between atoms: S_7  and  C_8
REMARK    7  A    between atoms: C_8  and  C_9
REMARK    8  A    between atoms: C_9  and  C_11
REMARK    9  A    between atoms: C_14  and  C_15
REMARK   10  A    between atoms: C_15  and  N_16
REMARK   11  A    between atoms: C_17  and  C_18
REMARK                            x       y       z     vdW  Elec       q    Type
REMARK                         _______ _______ _______ _____ _____    ______ ____
ROOT
ATOM      1  N   UNL     1       4.155   5.842  18.072  0.00  0.00    +0.000 N 
ATOM      2  C   UNL     1       3.076   6.600  18.526  0.00  0.00    +0.000 A 
ATOM      3  N   UNL     1       2.227   6.195  19.419  0.00  0.00    +0.000 NA
ATOM      4  C   UNL     1       2.410   4.924  19.987  0.00  0.00    +0.000 A 
ATOM      5  C   UNL     1       1.499   4.449  20.937  0.00  0.00    +0.000 A 
ATOM      6  C   UNL     1       1.657   3.182  21.513  0.00  0.00    +0.000 A 
ATOM      7  C   UNL     1       2.723   2.365  21.141  0.00  0.00    +0.000 A 
ATOM      8  C   UNL     1       3.636   2.826  20.198  0.00  0.00    +0.000 A 
ATOM      9  C   UNL     1       3.473   4.100  19.637  0.00  0.00    +0.000 A 
ATOM     10  C   UNL     1       4.432   4.605  18.652  0.00  0.00    +0.000 A 
ATOM     11  O   UNL     1       5.417   3.920  18.387  0.00  0.00    +0.000 OA
ENDROOT
BRANCH   1  12
ATOM     12  C   UNL     1       5.143   6.281  17.069  0.00  0.00    +0.000 C 
BRANCH  12  13
ATOM     13  C   UNL     1       6.503   6.678  17.669  0.00  0.00    +0.000 C 
BRANCH  13  15
ATOM     14  C   UNL     1       8.051   8.460  17.706  0.00  0.00    +0.000 C 
ATOM     15  O   UNL     1       6.991   7.840  16.990  0.00  0.00    +0.000 OA
ENDBRANCH  13  15
ENDBRANCH  12  13
ENDBRANCH   1  12
BRANCH   2  16
ATOM     16  S   UNL     1       2.819   8.173  17.785  0.00  0.00    +0.000 S 
BRANCH  16  17
ATOM     17  C   UNL     1       1.521   8.927  18.801  0.00  0.00    +0.000 C 
BRANCH  17  18
ATOM     18  C   UNL     1       1.247  10.395  18.502  0.00  0.00    +0.000 C 
ATOM     19  O   UNL     1       2.137  11.205  18.240  0.00  0.00    +0.000 OA
BRANCH  18  20
ATOM     20  C   UNL     1      -0.156  10.788  18.548  0.00  0.00    +0.000 A 
ATOM     21  C   UNL     1      -0.841  11.585  19.447  0.00  0.00    +0.000 A 
ATOM     22  C   UNL     1      -2.186  11.643  19.010  0.00  0.00    +0.000 A 
ATOM     23  C   UNL     1      -2.253  10.897  17.853  0.00  0.00    +0.000 A 
ATOM     24  O   UNL     1      -1.025  10.359  17.575  0.00  0.00    +0.000 OA
BRANCH  23  25
ATOM     25  C   UNL     1      -3.368  10.579  16.926  0.00  0.00    +0.000 C 
BRANCH  25  26
ATOM     26  N   UNL     1      -4.206  11.750  16.811  0.00  0.00    +0.000 N 
ATOM     27  C   UNL     1      -5.449  11.795  17.393  0.00  0.00    +0.000 C 
ATOM     28  C   UNL     1      -6.155  13.116  17.245  0.00  0.00    +0.000 C 
ATOM     29  O   UNL     1      -5.961  10.844  17.974  0.00  0.00    +0.000 OA
ATOM     30  H   UNL     1      -3.765  12.613  16.521  0.00  0.00    +0.000 HD
ENDBRANCH  25  26
ENDBRANCH  23  25
ENDBRANCH  18  20
ENDBRANCH  17  18
ENDBRANCH  16  17
ENDBRANCH   2  16
TORSDOF 9
ENDMDL
MODEL 6
REMARK VINA RESULT:      -7.2      2.897      5.150
REMARK  Name = 
REMARK  11 active torsions:
REMARK  status: ('A' for Active; 'I' for Inactive)
REMARK    1  A    between atoms: C_1  and  O_2
REMARK    2  A    between atoms: O_2  and  C_3
REMARK    3  A    between atoms: C_3  and  C_4
REMARK    4  A    between atoms: C_4  and  N_5
REMARK    5  A    between atoms: C_6  and  S_7
REMARK    6  A    between atoms: S_7  and  C_8
REMARK    7  A    between atoms: C_8  and  C_9
REMARK    8  A    between atoms: C_9  and  C_11
REMARK    9  A    between atoms: C_14  and  C_15
REMARK   10  A    between atoms: C_15  and  N_16
REMARK   11  A    between atoms: C_17  and  C_18
REMARK                            x       y       z     vdW  Elec       q    Type
REMARK                         _______ _______ _______ _____ _____    ______ ____
ROOT
ATOM      1  N   UNL     1       3.933   5.492  17.346  0.00  0.00    +0.000 N 
ATOM      2  C   UNL     1       3.164   6.418  18.050  0.00  0.00    +0.000 A 
ATOM      3  N   UNL     1       2.328   6.103  18.990  0.00  0.00    +0.000 NA
ATOM      4  C   UNL     1       2.197   4.751  19.344  0.00  0.00    +0.000 A 
ATOM      5  C   UNL     1       1.288   4.376  20.339  0.00  0.00    +0.000 A 
ATOM      6  C   UNL     1       1.136   3.033  20.705  0.00  0.00    +0.000 A 
ATOM      7  C   UNL     1       1.884   2.040  20.075  0.00  0.00    +0.000 A 
ATOM      8  C   UNL     1       2.793   2.399  19.085  0.00  0.00    +0.000 A 
ATOM      9  C   UNL     1       2.943   3.748  18.736  0.00  0.00    +0.000 A 
ATOM     10  C   UNL     1       3.903   4.145  17.703  0.00  0.00    +0.000 A 
ATOM     11  O   UNL     1       4.623   3.280  17.208  0.00  0.00    +0.000 OA
ENDROOT
BRANCH   1  12
ATOM     12  C   UNL     1       4.901   5.820  16.282  0.00  0.00    +0.000 C 
BRANCH  12  13
ATOM     13  C   UNL     1       6.308   6.155  16.806  0.00  0.00    +0.000 C 
BRANCH  13  15
ATOM     14  C   UNL     1       6.668   4.907  14.834  0.00  0.00    +0.000 C 
ATOM     15  O   UNL     1       7.281   5.604  15.911  0.00  0.00    +0.000 OA
ENDBRANCH  13  15
ENDBRANCH  12  13
ENDBRANCH   1  12
BRANCH   2  16
ATOM     16  S   UNL     1       3.291   8.105  17.579  0.00  0.00    +0.000 S 
BRANCH  16  17
ATOM     17  C   UNL     1       1.603   8.739  17.765  0.00  0.00    +0.000 C 
BRANCH  17  18
ATOM     18  C   UNL     1       1.484  10.001  18.610  0.00  0.00    +0.000 C 
ATOM     19  O   UNL     1       1.853  11.109  18.219  0.00  0.00    +0.000 OA
BRANCH  18  20
ATOM     20  C   UNL     1       0.898   9.810  19.932  0.00  0.00    +0.000 A 
ATOM     21  C   UNL     1       0.953   8.732  20.796  0.00  0.00    +0.000 A 
ATOM     22  C   UNL     1       0.216   9.088  21.951  0.00  0.00    +0.000 A 
ATOM     23  C   UNL     1      -0.235  10.373  21.745  0.00  0.00    +0.000 A 
ATOM     24  O   UNL     1       0.162  10.814  20.511  0.00  0.00    +0.000 OA
BRANCH  23  25
ATOM     25  C   UNL     1      -1.047  11.298  22.575  0.00  0.00    +0.000 C 
BRANCH  25  26
ATOM     26  N   UNL     1      -1.024  12.601  21.953  0.00  0.00    +0.000 N 
ATOM     27  C   UNL     1      -0.918  13.746  22.704  0.00  0.00    +0.000 C 
ATOM     28  C   UNL     1      -0.827  15.012  21.894  0.00  0.00    +0.000 C 
ATOM     29  O   UNL     1      -0.913  13.755  23.930  0.00  0.00    +0.000 OA
ATOM     30  H   UNL     1      -0.829  12.641  20.961  0.00  0.00    +0.000 HD
ENDBRANCH  25  26
ENDBRANCH  23  25
ENDBRANCH  18  20
ENDBRANCH  17  18
ENDBRANCH  16  17
ENDBRANCH   2  16
TORSDOF 9
ENDMDL
MODEL 7
REMARK VINA RESULT:      -7.2      1.928      3.803
REMARK  Name = 
REMARK  11 active torsions:
REMARK  status: ('A' for Active; 'I' for Inactive)
REMARK    1  A    between atoms: C_1  and  O_2
REMARK    2  A    between atoms: O_2  and  C_3
REMARK    3  A    between atoms: C_3  and  C_4
REMARK    4  A    between atoms: C_4  and  N_5
REMARK    5  A    between atoms: C_6  and  S_7
REMARK    6  A    between atoms: S_7  and  C_8
REMARK    7  A    between atoms: C_8  and  C_9
REMARK    8  A    between atoms: C_9  and  C_11
REMARK    9  A    between atoms: C_14  and  C_15
REMARK   10  A    between atoms: C_15  and  N_16
REMARK   11  A    between atoms: C_17  and  C_18
REMARK                            x       y       z     vdW  Elec       q    Type
REMARK                         _______ _______ _______ _____ _____    ______ ____
ROOT
ATOM      1  N   UNL     1       4.784   5.542  18.368  0.00  0.00    +0.000 N 
ATOM      2  C   UNL     1       3.582   6.178  18.060  0.00  0.00    +0.000 A 
ATOM      3  N   UNL     1       2.428   5.587  18.053  0.00  0.00    +0.000 NA
ATOM      4  C   UNL     1       2.370   4.228  18.397  0.00  0.00    +0.000 A 
ATOM      5  C   UNL     1       1.143   3.556  18.378  0.00  0.00    +0.000 A 
ATOM      6  C   UNL     1       1.062   2.198  18.711  0.00  0.00    +0.000 A 
ATOM      7  C   UNL     1       2.208   1.487  19.060  0.00  0.00    +0.000 A 
ATOM      8  C   UNL     1       3.434   2.143  19.085  0.00  0.00    +0.000 A 
ATOM      9  C   UNL     1       3.500   3.504  18.759  0.00  0.00    +0.000 A 
ATOM     10  C   UNL     1       4.782   4.213  18.791  0.00  0.00    +0.000 A 
ATOM     11  O   UNL     1       5.778   3.608  19.180  0.00  0.00    +0.000 OA
ENDROOT
BRANCH   1  12
ATOM     12  C   UNL     1       6.109   6.189  18.397  0.00  0.00    +0.000 C 
BRANCH  12  13
ATOM     13  C   UNL     1       6.767   6.320  17.013  0.00  0.00    +0.000 C 
BRANCH  13  15
ATOM     14  C   UNL     1       7.028   4.587  15.431  0.00  0.00    +0.000 C 
ATOM     15  O   UNL     1       7.435   5.094  16.696  0.00  0.00    +0.000 OA
ENDBRANCH  13  15
ENDBRANCH  12  13
ENDBRANCH   1  12
BRANCH   2  16
ATOM     16  S   UNL     1       3.656   7.868  17.586  0.00  0.00    +0.000 S 
BRANCH  16  17
ATOM     17  C   UNL     1       1.964   8.468  17.841  0.00  0.00    +0.000 C 
BRANCH  17  18
ATOM     18  C   UNL     1       1.582   8.703  19.296  0.00  0.00    +0.000 C 
ATOM     19  O   UNL     1       2.013   8.017  20.223  0.00  0.00    +0.000 OA
BRANCH  18  20
ATOM     20  C   UNL     1       0.656   9.806  19.525  0.00  0.00    +0.000 A 
ATOM     21  C   UNL     1       0.126  10.310  20.699  0.00  0.00    +0.000 A 
ATOM     22  C   UNL     1      -0.710  11.395  20.344  0.00  0.00    +0.000 A 
ATOM     23  C   UNL     1      -0.632  11.516  18.973  0.00  0.00    +0.000 A 
ATOM     24  O   UNL     1       0.184  10.542  18.466  0.00  0.00    +0.000 OA
BRANCH  23  25
ATOM     25  C   UNL     1      -1.263  12.453  18.010  0.00  0.00    +0.000 C 
BRANCH  25  26
ATOM     26  N   UNL     1      -2.676  12.155  17.951  0.00  0.00    +0.000 N 
ATOM     27  C   UNL     1      -3.203  11.412  16.925  0.00  0.00    +0.000 C 
ATOM     28  C   UNL     1      -4.676  11.127  17.058  0.00  0.00    +0.000 C 
ATOM     29  O   UNL     1      -2.549  11.020  15.964  0.00  0.00    +0.000 OA
ATOM     30  H   UNL     1      -3.214  12.281  18.798  0.00  0.00    +0.000 HD
ENDBRANCH  25  26
ENDBRANCH  23  25
ENDBRANCH  18  20
ENDBRANCH  17  18
ENDBRANCH  16  17
ENDBRANCH   2  16
TORSDOF 9
ENDMDL
MODEL 8
REMARK VINA RESULT:      -7.2      2.558      4.536
REMARK  Name = 
REMARK  11 active torsions:
REMARK  status: ('A' for Active; 'I' for Inactive)
REMARK    1  A    between atoms: C_1  and  O_2
REMARK    2  A    between atoms: O_2  and  C_3
REMARK    3  A    between atoms: C_3  and  C_4
REMARK    4  A    between atoms: C_4  and  N_5
REMARK    5  A    between atoms: C_6  and  S_7
REMARK    6  A    between atoms: S_7  and  C_8
REMARK    7  A    between atoms: C_8  and  C_9
REMARK    8  A    between atoms: C_9  and  C_11
REMARK    9  A    between atoms: C_14  and  C_15
REMARK   10  A    between atoms: C_15  and  N_16
REMARK   11  A    between atoms: C_17  and  C_18
REMARK                            x       y       z     vdW  Elec       q    Type
REMARK                         _______ _______ _______ _____ _____    ______ ____
ROOT
ATOM      1  N   UNL     1       4.026   5.845  17.892  0.00  0.00    +0.000 N 
ATOM      2  C   UNL     1       2.978   6.594  18.427  0.00  0.00    +0.000 A 
ATOM      3  N   UNL     1       2.218   6.191  19.397  0.00  0.00    +0.000 NA
ATOM      4  C   UNL     1       2.471   4.933  19.967  0.00  0.00    +0.000 A 
ATOM      5  C   UNL     1       1.655   4.460  21.000  0.00  0.00    +0.000 A 
ATOM      6  C   UNL     1       1.884   3.205  21.580  0.00  0.00    +0.000 A 
ATOM      7  C   UNL     1       2.927   2.399  21.129  0.00  0.00    +0.000 A 
ATOM      8  C   UNL     1       3.747   2.858  20.103  0.00  0.00    +0.000 A 
ATOM      9  C   UNL     1       3.513   4.120  19.539  0.00  0.00    +0.000 A 
ATOM     10  C   UNL     1       4.374   4.623  18.465  0.00  0.00    +0.000 A 
ATOM     11  O   UNL     1       5.344   3.949  18.126  0.00  0.00    +0.000 OA
ENDROOT
BRANCH   1  12
ATOM     12  C   UNL     1       4.916   6.282  16.800  0.00  0.00    +0.000 C 
BRANCH  12  13
ATOM     13  C   UNL     1       6.049   7.216  17.258  0.00  0.00    +0.000 C 
BRANCH  13  15
ATOM     14  C   UNL     1       7.790   6.316  18.576  0.00  0.00    +0.000 C 
ATOM     15  O   UNL     1       7.282   6.487  17.258  0.00  0.00    +0.000 OA
ENDBRANCH  13  15
ENDBRANCH  12  13
ENDBRANCH   1  12
BRANCH   2  16
ATOM     16  S   UNL     1       2.631   8.149  17.687  0.00  0.00    +0.000 S 
BRANCH  16  17
ATOM     17  C   UNL     1       1.708   9.045  18.966  0.00  0.00    +0.000 C 
BRANCH  17  18
ATOM     18  C   UNL     1       1.274  10.451  18.574  0.00  0.00    +0.000 C 
ATOM     19  O   UNL     1       2.071  11.344  18.284  0.00  0.00    +0.000 OA
BRANCH  18  20
ATOM     20  C   UNL     1      -0.166  10.678  18.567  0.00  0.00    +0.000 A 
ATOM     21  C   UNL     1      -1.174  10.059  17.849  0.00  0.00    +0.000 A 
ATOM     22  C   UNL     1      -2.392  10.664  18.238  0.00  0.00    +0.000 A 
ATOM     23  C   UNL     1      -2.073  11.607  19.190  0.00  0.00    +0.000 A 
ATOM     24  O   UNL     1      -0.718  11.634  19.384  0.00  0.00    +0.000 OA
BRANCH  23  25
ATOM     25  C   UNL     1      -2.898  12.558  19.977  0.00  0.00    +0.000 C 
BRANCH  25  26
ATOM     26  N   UNL     1      -4.198  12.651  19.354  0.00  0.00    +0.000 N 
ATOM     27  C   UNL     1      -5.348  12.452  20.076  0.00  0.00    +0.000 C 
ATOM     28  C   UNL     1      -6.616  12.665  19.292  0.00  0.00    +0.000 C 
ATOM     29  O   UNL     1      -5.360  12.113  21.254  0.00  0.00    +0.000 OA
ATOM     30  H   UNL     1      -4.252  13.111  18.455  0.00  0.00    +0.000 HD
ENDBRANCH  25  26
ENDBRANCH  23  25
ENDBRANCH  18  20
ENDBRANCH  17  18
ENDBRANCH  16  17
ENDBRANCH   2  16
TORSDOF 9
ENDMDL
MODEL 9
REMARK VINA RESULT:      -7.1      2.569      4.470
REMARK  Name = 
REMARK  11 active torsions:
REMARK  status: ('A' for Active; 'I' for Inactive)
REMARK    1  A    between atoms: C_1  and  O_2
REMARK    2  A    between atoms: O_2  and  C_3
REMARK    3  A    between atoms: C_3  and  C_4
REMARK    4  A    between atoms: C_4  and  N_5
REMARK    5  A    between atoms: C_6  and  S_7
REMARK    6  A    between atoms: S_7  and  C_8
REMARK    7  A    between atoms: C_8  and  C_9
REMARK    8  A    between atoms: C_9  and  C_11
REMARK    9  A    between atoms: C_14  and  C_15
REMARK   10  A    between atoms: C_15  and  N_16
REMARK   11  A    between atoms: C_17  and  C_18
REMARK                            x       y       z     vdW  Elec       q    Type
REMARK                         _______ _______ _______ _____ _____    ______ ____
ROOT
ATOM      1  N   UNL     1       3.976   5.823  17.445  0.00  0.00    +0.000 N 
ATOM      2  C   UNL     1       2.980   6.556  18.091  0.00  0.00    +0.000 A 
ATOM      3  N   UNL     1       2.051   6.030  18.826  0.00  0.00    +0.000 NA
ATOM      4  C   UNL     1       2.051   4.638  19.009  0.00  0.00    +0.000 A 
ATOM      5  C   UNL     1       1.050   4.037  19.779  0.00  0.00    +0.000 A 
ATOM      6  C   UNL     1       1.025   2.649  19.969  0.00  0.00    +0.000 A 
ATOM      7  C   UNL     1       1.997   1.839  19.385  0.00  0.00    +0.000 A 
ATOM      8  C   UNL     1       2.999   2.424  18.619  0.00  0.00    +0.000 A 
ATOM      9  C   UNL     1       3.018   3.814  18.444  0.00  0.00    +0.000 A 
ATOM     10  C   UNL     1       4.073   4.448  17.649  0.00  0.00    +0.000 A 
ATOM     11  O   UNL     1       4.977   3.743  17.206  0.00  0.00    +0.000 OA
ENDROOT
BRANCH   1  12
ATOM     12  C   UNL     1       5.053   6.394  16.614  0.00  0.00    +0.000 C 
BRANCH  12  13
ATOM     13  C   UNL     1       6.366   6.634  17.379  0.00  0.00    +0.000 C 
BRANCH  13  15
ATOM     14  C   UNL     1       7.913   8.388  17.705  0.00  0.00    +0.000 C 
ATOM     15  O   UNL     1       7.065   7.728  16.774  0.00  0.00    +0.000 OA
ENDBRANCH  13  15
ENDBRANCH  12  13
ENDBRANCH   1  12
BRANCH   2  16
ATOM     16  S   UNL     1       2.952   8.293  17.829  0.00  0.00    +0.000 S 
BRANCH  16  17
ATOM     17  C   UNL     1       1.518   8.855  18.786  0.00  0.00    +0.000 C 
BRANCH  17  18
ATOM     18  C   UNL     1       1.077  10.284  18.497  0.00  0.00    +0.000 C 
ATOM     19  O   UNL     1       1.865  11.227  18.417  0.00  0.00    +0.000 OA
BRANCH  18  20
ATOM     20  C   UNL     1      -0.359  10.469  18.321  0.00  0.00    +0.000 A 
ATOM     21  C   UNL     1      -1.262   9.802  17.513  0.00  0.00    +0.000 A 
ATOM     22  C   UNL     1      -2.532  10.381  17.745  0.00  0.00    +0.000 A 
ATOM     23  C   UNL     1      -2.348  11.358  18.699  0.00  0.00    +0.000 A 
ATOM     24  O   UNL     1      -1.025  11.429  19.043  0.00  0.00    +0.000 OA
BRANCH  23  25
ATOM     25  C   UNL     1      -3.280  12.304  19.361  0.00  0.00    +0.000 C 
BRANCH  25  26
ATOM     26  N   UNL     1      -4.559  12.218  18.693  0.00  0.00    +0.000 N 
ATOM     27  C   UNL     1      -5.727  12.103  19.405  0.00  0.00    +0.000 C 
ATOM     28  C   UNL     1      -6.972  12.106  18.559  0.00  0.00    +0.000 C 
ATOM     29  O   UNL     1      -5.769  11.989  20.625  0.00  0.00    +0.000 OA
ATOM     30  H   UNL     1      -4.597  12.500  17.722  0.00  0.00    +0.000 HD
ENDBRANCH  25  26
ENDBRANCH  23  25
ENDBRANCH  18  20
ENDBRANCH  17  18
ENDBRANCH  16  17
ENDBRANCH   2  16
TORSDOF 9
ENDMDL
