MODEL 1
REMARK VINA RESULT:      -8.7      0.000      0.000
REMARK  Name = 
REMARK  6 active torsions:
REMARK  status: ('A' for Active; 'I' for Inactive)
REMARK    1  A    between atoms: O_1  and  N_2
REMARK    2  A    between atoms: C_3  and  C_12
REMARK    3  A    between atoms: N_4  and  C_5
REMARK    4  A    between atoms: C_5  and  C_6
REMARK    5  A    between atoms: C_15  and  O_16
REMARK    6  A    between atoms: O_16  and  C_17
REMARK                            x       y       z     vdW  Elec       q    Type
REMARK                         _______ _______ _______ _____ _____    ______ ____
ROOT
ATOM      1  C   UNL     1       1.234   9.387  19.120  0.00  0.00    +0.000 A 
ATOM      2  C   UNL     1       1.889   8.904  17.984  0.00  0.00    +0.000 A 
ATOM      3  C   UNL     1       2.624   7.720  18.065  0.00  0.00    +0.000 A 
ATOM      4  C   UNL     1       2.668   7.057  19.284  0.00  0.00    +0.000 A 
ATOM      5  N   UNL     1       1.994   7.466  20.385  0.00  0.00    +0.000 NA
ATOM      6  C   UNL     1       1.322   8.640  20.287  0.00  0.00    +0.000 A 
ENDROOT
BRANCH   1   8
ATOM      7  N   UNL     1       1.160  11.717  18.687  0.00  0.00    +0.000 NA
ATOM      8  C   UNL     1       0.484  10.686  19.098  0.00  0.00    +0.000 C 
ATOM      9  N   UNL     1      -0.838  10.619  19.499  0.00  0.00    +0.000 N 
ATOM     10  H   UNL     1      -0.995  10.133  20.379  0.00  0.00    +0.000 HD
BRANCH   7  11
ATOM     11  O   UNL     1       0.443  12.915  18.753  0.00  0.00    +0.000 OA
ATOM     12  H   UNL     1       0.177  12.944  19.691  0.00  0.00    +0.000 HD
ENDBRANCH   7  11
BRANCH   9  13
ATOM     13  C   UNL     1      -1.867  11.565  19.156  0.00  0.00    +0.000 C 
BRANCH  13  14
ATOM     14  C   UNL     1      -2.538  11.116  17.879  0.00  0.00    +0.000 A 
ATOM     15  C   UNL     1      -3.783  11.624  17.495  0.00  0.00    +0.000 A 
ATOM     16  C   UNL     1      -4.351  11.172  16.314  0.00  0.00    +0.000 A 
ATOM     17  N   UNL     1      -3.777  10.255  15.507  0.00  0.00    +0.000 NA
ATOM     18  C   UNL     1      -2.583   9.763  15.900  0.00  0.00    +0.000 A 
ATOM     19  C   UNL     1      -1.937  10.151  17.062  0.00  0.00    +0.000 A 
ENDBRANCH  13  14
ENDBRANCH   9  13
ENDBRANCH   1   8
BRANCH   4  20
ATOM     20  O   UNL     1       3.480   5.930  19.370  0.00  0.00    +0.000 OA
BRANCH  20  21
ATOM     21  C   UNL     1       2.836   4.711  19.402  0.00  0.00    +0.000 A 
ATOM     22  C   UNL     1       2.824   3.939  18.243  0.00  0.00    +0.000 A 
ATOM     23  F   UNL     1       3.454   4.369  17.137  0.00  0.00    +0.000 F 
ATOM     24  C   UNL     1       2.177   2.704  18.225  0.00  0.00    +0.000 A 
ATOM     25  F   UNL     1       2.175   1.959  17.111  0.00  0.00    +0.000 F 
ATOM     26  C   UNL     1       1.530   2.220  19.360  0.00  0.00    +0.000 A 
ATOM     27  C   UNL     1       1.576   2.970  20.524  0.00  0.00    +0.000 A 
ATOM     28  F   UNL     1       0.976   2.505  21.628  0.00  0.00    +0.000 F 
ATOM     29  C   UNL     1       2.247   4.188  20.558  0.00  0.00    +0.000 A 
ATOM     30  F   UNL     1       2.333   4.839  21.730  0.00  0.00    +0.000 F 
ENDBRANCH  20  21
ENDBRANCH   4  20
TORSDOF 6
ENDMDL
MODEL 2
REMARK VINA RESULT:      -8.7      1.567      2.201
REMARK  Name = 
REMARK  6 active torsions:
REMARK  status: ('A' for Active; 'I' for Inactive)
REMARK    1  A    between atoms: O_1  and  N_2
REMARK    2  A    between atoms: C_3  and  C_12
REMARK    3  A    between atoms: N_4  and  C_5
REMARK    4  A    between atoms: C_5  and  C_6
REMARK    5  A    between atoms: C_15  and  O_16
REMARK    6  A    between atoms: O_16  and  C_17
REMARK                            x       y       z     vdW  Elec       q    Type
REMARK                         _______ _______ _______ _____ _____    ______ ____
ROOT
ATOM      1  C   UNL     1       1.426   9.014  19.228  0.00  0.00    +0.000 A 
ATOM      2  C   UNL     1       1.741   7.972  20.104  0.00  0.00    +0.000 A 
ATOM      3  C   UNL     1       2.499   6.893  19.646  0.00  0.00    +0.000 A 
ATOM      4  C   UNL     1       2.921   6.902  18.323  0.00  0.00    +0.000 A 
ATOM      5  N   UNL     1       2.684   7.925  17.467  0.00  0.00    +0.000 NA
ATOM      6  C   UNL     1       1.912   8.940  17.929  0.00  0.00    +0.000 A 
ENDROOT
BRANCH   1   8
ATOM      7  N   UNL     1       1.178  11.125  20.279  0.00  0.00    +0.000 NA
ATOM      8  C   UNL     1       0.563  10.164  19.657  0.00  0.00    +0.000 C 
ATOM      9  N   UNL     1      -0.774  10.065  19.317  0.00  0.00    +0.000 N 
ATOM     10  H   UNL     1      -1.214   9.181  19.561  0.00  0.00    +0.000 HD
BRANCH   7  11
ATOM     11  O   UNL     1       0.322  12.137  20.722  0.00  0.00    +0.000 OA
ATOM     12  H   UNL     1      -0.286  11.650  21.308  0.00  0.00    +0.000 HD
ENDBRANCH   7  11
BRANCH   9  13
ATOM     13  C   UNL     1      -1.692  11.168  19.198  0.00  0.00    +0.000 C 
BRANCH  13  14
ATOM     14  C   UNL     1      -2.506  10.992  17.938  0.00  0.00    +0.000 A 
ATOM     15  C   UNL     1      -2.005  10.281  16.843  0.00  0.00    +0.000 A 
ATOM     16  C   UNL     1      -2.797  10.155  15.712  0.00  0.00    +0.000 A 
ATOM     17  N   UNL     1      -4.032  10.689  15.597  0.00  0.00    +0.000 NA
ATOM     18  C   UNL     1      -4.494  11.386  16.657  0.00  0.00    +0.000 A 
ATOM     19  C   UNL     1      -3.777  11.568  17.828  0.00  0.00    +0.000 A 
ENDBRANCH  13  14
ENDBRANCH   9  13
ENDBRANCH   1   8
BRANCH   4  20
ATOM     20  O   UNL     1       3.594   5.776  17.859  0.00  0.00    +0.000 OA
BRANCH  20  21
ATOM     21  C   UNL     1       3.195   4.565  18.381  0.00  0.00    +0.000 A 
ATOM     22  C   UNL     1       4.062   3.897  19.243  0.00  0.00    +0.000 A 
ATOM     23  F   UNL     1       5.243   4.446  19.573  0.00  0.00    +0.000 F 
ATOM     24  C   UNL     1       3.705   2.665  19.787  0.00  0.00    +0.000 A 
ATOM     25  F   UNL     1       4.538   2.029  20.623  0.00  0.00    +0.000 F 
ATOM     26  C   UNL     1       2.481   2.075  19.480  0.00  0.00    +0.000 A 
ATOM     27  C   UNL     1       1.601   2.758  18.655  0.00  0.00    +0.000 A 
ATOM     28  F   UNL     1       0.412   2.211  18.369  0.00  0.00    +0.000 F 
ATOM     29  C   UNL     1       1.937   4.003  18.133  0.00  0.00    +0.000 A 
ATOM     30  F   UNL     1       1.021   4.661  17.405  0.00  0.00    +0.000 F 
ENDBRANCH  20  21
ENDBRANCH   4  20
TORSDOF 6
ENDMDL
MODEL 3
REMARK VINA RESULT:      -8.6      1.984      3.036
REMARK  Name = 
REMARK  6 active torsions:
REMARK  status: ('A' for Active; 'I' for Inactive)
REMARK    1  A    between atoms: O_1  and  N_2
REMARK    2  A    between atoms: C_3  and  C_12
REMARK    3  A    between atoms: N_4  and  C_5
REMARK    4  A    between atoms: C_5  and  C_6
REMARK    5  A    between atoms: C_15  and  O_16
REMARK    6  A    between atoms: O_16  and  C_17
REMARK                            x       y       z     vdW  Elec       q    Type
REMARK                         _______ _______ _______ _____ _____    ______ ____
ROOT
ATOM      1  C   UNL     1       1.127   9.318  18.855  0.00  0.00    +0.000 A 
ATOM      2  C   UNL     1       1.821   8.738  17.789  0.00  0.00    +0.000 A 
ATOM      3  C   UNL     1       2.583   7.589  18.008  0.00  0.00    +0.000 A 
ATOM      4  C   UNL     1       2.615   7.057  19.290  0.00  0.00    +0.000 A 
ATOM      5  N   UNL     1       1.906   7.560  20.329  0.00  0.00    +0.000 NA
ATOM      6  C   UNL     1       1.207   8.698  20.096  0.00  0.00    +0.000 A 
ENDROOT
BRANCH   1   8
ATOM      7  N   UNL     1      -0.651  10.523  17.851  0.00  0.00    +0.000 NA
ATOM      8  C   UNL     1       0.346  10.587  18.683  0.00  0.00    +0.000 C 
ATOM      9  N   UNL     1       0.772  11.658  19.447  0.00  0.00    +0.000 N 
ATOM     10  H   UNL     1       1.771  11.847  19.400  0.00  0.00    +0.000 HD
BRANCH   7  11
ATOM     11  O   UNL     1      -1.302  11.746  17.669  0.00  0.00    +0.000 OA
ATOM     12  H   UNL     1      -1.120  12.203  18.511  0.00  0.00    +0.000 HD
ENDBRANCH   7  11
BRANCH   9  13
ATOM     13  C   UNL     1      -0.028  12.797  19.811  0.00  0.00    +0.000 C 
BRANCH  13  14
ATOM     14  C   UNL     1      -0.878  12.435  21.007  0.00  0.00    +0.000 A 
ATOM     15  C   UNL     1      -0.412  11.557  21.991  0.00  0.00    +0.000 A 
ATOM     16  C   UNL     1      -1.238  11.260  23.063  0.00  0.00    +0.000 A 
ATOM     17  N   UNL     1      -2.482  11.764  23.216  0.00  0.00    +0.000 NA
ATOM     18  C   UNL     1      -2.922  12.597  22.249  0.00  0.00    +0.000 A 
ATOM     19  C   UNL     1      -2.172  12.953  21.140  0.00  0.00    +0.000 A 
ENDBRANCH  13  14
ENDBRANCH   9  13
ENDBRANCH   1   8
BRANCH   4  20
ATOM     20  O   UNL     1       3.453   5.968  19.509  0.00  0.00    +0.000 OA
BRANCH  20  21
ATOM     21  C   UNL     1       2.855   4.726  19.521  0.00  0.00    +0.000 A 
ATOM     22  C   UNL     1       2.868   3.974  18.348  0.00  0.00    +0.000 A 
ATOM     23  F   UNL     1       3.478   4.447  17.249  0.00  0.00    +0.000 F 
ATOM     24  C   UNL     1       2.266   2.718  18.311  0.00  0.00    +0.000 A 
ATOM     25  F   UNL     1       2.288   1.992  17.183  0.00  0.00    +0.000 F 
ATOM     26  C   UNL     1       1.640   2.190  19.437  0.00  0.00    +0.000 A 
ATOM     27  C   UNL     1       1.662   2.921  20.615  0.00  0.00    +0.000 A 
ATOM     28  F   UNL     1       1.082   2.415  21.712  0.00  0.00    +0.000 F 
ATOM     29  C   UNL     1       2.288   4.162  20.669  0.00  0.00    +0.000 A 
ATOM     30  F   UNL     1       2.354   4.795  21.852  0.00  0.00    +0.000 F 
ENDBRANCH  20  21
ENDBRANCH   4  20
TORSDOF 6
ENDMDL
MODEL 4
REMARK VINA RESULT:      -8.6      2.156      3.317
REMARK  Name = 
REMARK  6 active torsions:
REMARK  status: ('A' for Active; 'I' for Inactive)
REMARK    1  A    between atoms: O_1  and  N_2
REMARK    2  A    between atoms: C_3  and  C_12
REMARK    3  A    between atoms: N_4  and  C_5
REMARK    4  A    between atoms: C_5  and  C_6
REMARK    5  A    between atoms: C_15  and  O_16
REMARK    6  A    between atoms: O_16  and  C_17
REMARK                            x       y       z     vdW  Elec       q    Type
REMARK                         _______ _______ _______ _____ _____    ______ ____
ROOT
ATOM      1  C   UNL     1       0.583   9.892  19.022  0.00  0.00    +0.000 A 
ATOM      2  C   UNL     1       1.309   9.323  17.973  0.00  0.00    +0.000 A 
ATOM      3  C   UNL     1       2.103   8.201  18.215  0.00  0.00    +0.000 A 
ATOM      4  C   UNL     1       2.133   7.684  19.504  0.00  0.00    +0.000 A 
ATOM      5  N   UNL     1       1.394   8.176  20.527  0.00  0.00    +0.000 NA
ATOM      6  C   UNL     1       0.664   9.290  20.271  0.00  0.00    +0.000 A 
ENDROOT
BRANCH   1   8
ATOM      7  N   UNL     1      -1.129  11.073  17.883  0.00  0.00    +0.000 NA
ATOM      8  C   UNL     1      -0.235  11.134  18.824  0.00  0.00    +0.000 C 
ATOM      9  N   UNL     1       0.052  12.180  19.682  0.00  0.00    +0.000 N 
ATOM     10  H   UNL     1       1.040  12.414  19.757  0.00  0.00    +0.000 HD
BRANCH   7  11
ATOM     11  O   UNL     1      -1.815  12.275  17.688  0.00  0.00    +0.000 OA
ATOM     12  H   UNL     1      -1.274  12.711  17.004  0.00  0.00    +0.000 HD
ENDBRANCH   7  11
BRANCH   9  13
ATOM     13  C   UNL     1      -0.837  13.264  20.009  0.00  0.00    +0.000 C 
BRANCH  13  14
ATOM     14  C   UNL     1      -1.720  12.842  21.159  0.00  0.00    +0.000 A 
ATOM     15  C   UNL     1      -1.214  12.093  22.227  0.00  0.00    +0.000 A 
ATOM     16  C   UNL     1      -2.074  11.732  23.253  0.00  0.00    +0.000 A 
ATOM     17  N   UNL     1      -3.385  12.053  23.283  0.00  0.00    +0.000 NA
ATOM     18  C   UNL     1      -3.860  12.763  22.237  0.00  0.00    +0.000 A 
ATOM     19  C   UNL     1      -3.082  13.168  21.166  0.00  0.00    +0.000 A 
ENDBRANCH  13  14
ENDBRANCH   9  13
ENDBRANCH   1   8
BRANCH   4  20
ATOM     20  O   UNL     1       3.001   6.624  19.748  0.00  0.00    +0.000 OA
BRANCH  20  21
ATOM     21  C   UNL     1       2.771   5.467  19.035  0.00  0.00    +0.000 A 
ATOM     22  C   UNL     1       3.640   5.148  17.993  0.00  0.00    +0.000 A 
ATOM     23  F   UNL     1       4.689   5.941  17.721  0.00  0.00    +0.000 F 
ATOM     24  C   UNL     1       3.440   3.993  17.239  0.00  0.00    +0.000 A 
ATOM     25  F   UNL     1       4.283   3.683  16.243  0.00  0.00    +0.000 F 
ATOM     26  C   UNL     1       2.373   3.139  17.506  0.00  0.00    +0.000 A 
ATOM     27  C   UNL     1       1.533   3.436  18.568  0.00  0.00    +0.000 A 
ATOM     28  F   UNL     1       0.515   2.611  18.849  0.00  0.00    +0.000 F 
ATOM     29  C   UNL     1       1.743   4.569  19.345  0.00  0.00    +0.000 A 
ATOM     30  F   UNL     1       0.952   4.771  20.412  0.00  0.00    +0.000 F 
ENDBRANCH  20  21
ENDBRANCH   4  20
TORSDOF 6
ENDMDL
MODEL 5
REMARK VINA RESULT:      -8.6      1.653      1.784
REMARK  Name = 
REMARK  6 active torsions:
REMARK  status: ('A' for Active; 'I' for Inactive)
REMARK    1  A    between atoms: O_1  and  N_2
REMARK    2  A    between atoms: C_3  and  C_12
REMARK    3  A    between atoms: N_4  and  C_5
REMARK    4  A    between atoms: C_5  and  C_6
REMARK    5  A    between atoms: C_15  and  O_16
REMARK    6  A    between atoms: O_16  and  C_17
REMARK                            x       y       z     vdW  Elec       q    Type
REMARK                         _______ _______ _______ _____ _____    ______ ____
ROOT
ATOM      1  C   UNL     1       1.242   9.236  19.545  0.00  0.00    +0.000 A 
ATOM      2  C   UNL     1       1.540   9.191  18.180  0.00  0.00    +0.000 A 
ATOM      3  C   UNL     1       2.248   8.104  17.666  0.00  0.00    +0.000 A 
ATOM      4  C   UNL     1       2.627   7.094  18.541  0.00  0.00    +0.000 A 
ATOM      5  N   UNL     1       2.300   7.079  19.856  0.00  0.00    +0.000 NA
ATOM      6  C   UNL     1       1.647   8.167  20.334  0.00  0.00    +0.000 A 
ENDROOT
BRANCH   1   8
ATOM      7  N   UNL     1       1.279  11.195  20.880  0.00  0.00    +0.000 NA
ATOM      8  C   UNL     1       0.538  10.412  20.155  0.00  0.00    +0.000 C 
ATOM      9  N   UNL     1      -0.807  10.525  19.851  0.00  0.00    +0.000 N 
ATOM     10  H   UNL     1      -1.350   9.675  19.988  0.00  0.00    +0.000 HD
BRANCH   7  11
ATOM     11  O   UNL     1       0.565  12.233  21.485  0.00  0.00    +0.000 OA
ATOM     12  H   UNL     1      -0.210  11.765  21.848  0.00  0.00    +0.000 HD
ENDBRANCH   7  11
BRANCH   9  13
ATOM     13  C   UNL     1      -1.581  11.737  19.913  0.00  0.00    +0.000 C 
BRANCH  13  14
ATOM     14  C   UNL     1      -2.653  11.687  18.850  0.00  0.00    +0.000 A 
ATOM     15  C   UNL     1      -3.977  12.033  19.137  0.00  0.00    +0.000 A 
ATOM     16  C   UNL     1      -4.917  11.965  18.120  0.00  0.00    +0.000 A 
ATOM     17  N   UNL     1      -4.634  11.574  16.859  0.00  0.00    +0.000 NA
ATOM     18  C   UNL     1      -3.355  11.229  16.604  0.00  0.00    +0.000 A 
ATOM     19  C   UNL     1      -2.345  11.262  17.552  0.00  0.00    +0.000 A 
ENDBRANCH  13  14
ENDBRANCH   9  13
ENDBRANCH   1   8
BRANCH   4  20
ATOM     20  O   UNL     1       3.411   6.066  18.028  0.00  0.00    +0.000 OA
BRANCH  20  21
ATOM     21  C   UNL     1       3.160   4.801  18.516  0.00  0.00    +0.000 A 
ATOM     22  C   UNL     1       1.954   4.190  18.181  0.00  0.00    +0.000 A 
ATOM     23  F   UNL     1       1.079   4.816  17.377  0.00  0.00    +0.000 F 
ATOM     24  C   UNL     1       1.653   2.916  18.660  0.00  0.00    +0.000 A 
ATOM     25  F   UNL     1       0.495   2.326  18.328  0.00  0.00    +0.000 F 
ATOM     26  C   UNL     1       2.545   2.231  19.481  0.00  0.00    +0.000 A 
ATOM     27  C   UNL     1       3.762   2.822  19.782  0.00  0.00    +0.000 A 
ATOM     28  F   UNL     1       4.638   2.164  20.553  0.00  0.00    +0.000 F 
ATOM     29  C   UNL     1       4.083   4.080  19.282  0.00  0.00    +0.000 A 
ATOM     30  F   UNL     1       5.306   4.576  19.534  0.00  0.00    +0.000 F 
ENDBRANCH  20  21
ENDBRANCH   4  20
TORSDOF 6
ENDMDL
MODEL 6
REMARK VINA RESULT:      -8.5      1.032      1.527
REMARK  Name = 
REMARK  6 active torsions:
REMARK  status: ('A' for Active; 'I' for Inactive)
REMARK    1  A    between atoms: O_1  and  N_2
REMARK    2  A    between atoms: C_3  and  C_12
REMARK    3  A    between atoms: N_4  and  C_5
REMARK    4  A    between atoms: C_5  and  C_6
REMARK    5  A    between atoms: C_15  and  O_16
REMARK    6  A    between atoms: O_16  and  C_17
REMARK                            x       y       z     vdW  Elec       q    Type
REMARK                         _______ _______ _______ _____ _____    ______ ____
ROOT
ATOM      1  C   UNL     1       1.111   9.443  19.313  0.00  0.00    +0.000 A 
ATOM      2  C   UNL     1       1.854   8.784  18.329  0.00  0.00    +0.000 A 
ATOM      3  C   UNL     1       2.452   7.558  18.626  0.00  0.00    +0.000 A 
ATOM      4  C   UNL     1       2.278   7.033  19.900  0.00  0.00    +0.000 A 
ATOM      5  N   UNL     1       1.515   7.619  20.854  0.00  0.00    +0.000 NA
ATOM      6  C   UNL     1       0.979   8.826  20.550  0.00  0.00    +0.000 A 
ENDROOT
BRANCH   1   8
ATOM      7  N   UNL     1       1.263  11.645  18.448  0.00  0.00    +0.000 NA
ATOM      8  C   UNL     1       0.501  10.790  19.060  0.00  0.00    +0.000 C 
ATOM      9  N   UNL     1      -0.804  10.945  19.494  0.00  0.00    +0.000 N 
ATOM     10  H   UNL     1      -0.974  10.652  20.454  0.00  0.00    +0.000 HD
BRANCH   7  11
ATOM     11  O   UNL     1       0.678  12.906  18.300  0.00  0.00    +0.000 OA
ATOM     12  H   UNL     1       1.065  13.400  19.047  0.00  0.00    +0.000 HD
ENDBRANCH   7  11
BRANCH   9  13
ATOM     13  C   UNL     1      -1.741  11.918  18.999  0.00  0.00    +0.000 C 
BRANCH  13  14
ATOM     14  C   UNL     1      -2.492  11.324  17.830  0.00  0.00    +0.000 A 
ATOM     15  C   UNL     1      -1.883  10.409  16.966  0.00  0.00    +0.000 A 
ATOM     16  C   UNL     1      -2.621   9.899  15.909  0.00  0.00    +0.000 A 
ATOM     17  N   UNL     1      -3.902  10.242  15.653  0.00  0.00    +0.000 NA
ATOM     18  C   UNL     1      -4.469  11.138  16.488  0.00  0.00    +0.000 A 
ATOM     19  C   UNL     1      -3.814  11.704  17.569  0.00  0.00    +0.000 A 
ENDBRANCH  13  14
ENDBRANCH   9  13
ENDBRANCH   1   8
BRANCH   4  20
ATOM     20  O   UNL     1       2.959   5.859  20.206  0.00  0.00    +0.000 OA
BRANCH  20  21
ATOM     21  C   UNL     1       2.730   4.783  19.375  0.00  0.00    +0.000 A 
ATOM     22  C   UNL     1       3.736   4.409  18.486  0.00  0.00    +0.000 A 
ATOM     23  F   UNL     1       4.905   5.070  18.471  0.00  0.00    +0.000 F 
ATOM     24  C   UNL     1       3.546   3.334  17.620  0.00  0.00    +0.000 A 
ATOM     25  F   UNL     1       4.518   2.970  16.772  0.00  0.00    +0.000 F 
ATOM     26  C   UNL     1       2.352   2.616  17.622  0.00  0.00    +0.000 A 
ATOM     27  C   UNL     1       1.368   2.963  18.534  0.00  0.00    +0.000 A 
ATOM     28  F   UNL     1       0.223   2.266  18.560  0.00  0.00    +0.000 F 
ATOM     29  C   UNL     1       1.562   4.014  19.423  0.00  0.00    +0.000 A 
ATOM     30  F   UNL     1       0.613   4.261  20.341  0.00  0.00    +0.000 F 
ENDBRANCH  20  21
ENDBRANCH   4  20
TORSDOF 6
ENDMDL
MODEL 7
REMARK VINA RESULT:      -8.5      1.405      1.771
REMARK  Name = 
REMARK  6 active torsions:
REMARK  status: ('A' for Active; 'I' for Inactive)
REMARK    1  A    between atoms: O_1  and  N_2
REMARK    2  A    between atoms: C_3  and  C_12
REMARK    3  A    between atoms: N_4  and  C_5
REMARK    4  A    between atoms: C_5  and  C_6
REMARK    5  A    between atoms: C_15  and  O_16
REMARK    6  A    between atoms: O_16  and  C_17
REMARK                            x       y       z     vdW  Elec       q    Type
REMARK                         _______ _______ _______ _____ _____    ______ ____
ROOT
ATOM      1  C   UNL     1       1.411   9.183  19.011  0.00  0.00    +0.000 A 
ATOM      2  C   UNL     1       1.962   9.059  17.732  0.00  0.00    +0.000 A 
ATOM      3  C   UNL     1       2.756   7.951  17.430  0.00  0.00    +0.000 A 
ATOM      4  C   UNL     1       2.963   7.001  18.422  0.00  0.00    +0.000 A 
ATOM      5  N   UNL     1       2.394   7.063  19.650  0.00  0.00    +0.000 NA
ATOM      6  C   UNL     1       1.661   8.169  19.927  0.00  0.00    +0.000 A 
ENDROOT
BRANCH   1   8
ATOM      7  N   UNL     1       1.277  11.482  19.574  0.00  0.00    +0.000 NA
ATOM      8  C   UNL     1       0.602  10.385  19.402  0.00  0.00    +0.000 C 
ATOM      9  N   UNL     1      -0.761  10.177  19.509  0.00  0.00    +0.000 N 
ATOM     10  H   UNL     1      -1.029   9.371  20.070  0.00  0.00    +0.000 HD
BRANCH   7  11
ATOM     11  O   UNL     1       0.492  12.555  20.007  0.00  0.00    +0.000 OA
ATOM     12  H   UNL     1       1.165  13.195  20.302  0.00  0.00    +0.000 HD
ENDBRANCH   7  11
BRANCH   9  13
ATOM     13  C   UNL     1      -1.773  11.196  19.420  0.00  0.00    +0.000 C 
BRANCH  13  14
ATOM     14  C   UNL     1      -2.509  11.040  18.110  0.00  0.00    +0.000 A 
ATOM     15  C   UNL     1      -3.767  11.617  17.910  0.00  0.00    +0.000 A 
ATOM     16  C   UNL     1      -4.396  11.437  16.688  0.00  0.00    +0.000 A 
ATOM     17  N   UNL     1      -3.869  10.724  15.670  0.00  0.00    +0.000 NA
ATOM     18  C   UNL     1      -2.661  10.161  15.885  0.00  0.00    +0.000 A 
ATOM     19  C   UNL     1      -1.956  10.283  17.070  0.00  0.00    +0.000 A 
ENDBRANCH  13  14
ENDBRANCH   9  13
ENDBRANCH   1   8
BRANCH   4  20
ATOM     20  O   UNL     1       3.832   5.954  18.133  0.00  0.00    +0.000 OA
BRANCH  20  21
ATOM     21  C   UNL     1       3.436   4.698  18.541  0.00  0.00    +0.000 A 
ATOM     22  C   UNL     1       4.306   3.956  19.337  0.00  0.00    +0.000 A 
ATOM     23  F   UNL     1       5.485   4.476  19.715  0.00  0.00    +0.000 F 
ATOM     24  C   UNL     1       3.953   2.678  19.765  0.00  0.00    +0.000 A 
ATOM     25  F   UNL     1       4.788   1.970  20.538  0.00  0.00    +0.000 F 
ATOM     26  C   UNL     1       2.730   2.116  19.405  0.00  0.00    +0.000 A 
ATOM     27  C   UNL     1       1.848   2.870  18.647  0.00  0.00    +0.000 A 
ATOM     28  F   UNL     1       0.659   2.348  18.313  0.00  0.00    +0.000 F 
ATOM     29  C   UNL     1       2.180   4.158  18.243  0.00  0.00    +0.000 A 
ATOM     30  F   UNL     1       1.261   4.878  17.579  0.00  0.00    +0.000 F 
ENDBRANCH  20  21
ENDBRANCH   4  20
TORSDOF 6
ENDMDL
MODEL 8
REMARK VINA RESULT:      -8.5      0.149      2.196
REMARK  Name = 
REMARK  6 active torsions:
REMARK  status: ('A' for Active; 'I' for Inactive)
REMARK    1  A    between atoms: O_1  and  N_2
REMARK    2  A    between atoms: C_3  and  C_12
REMARK    3  A    between atoms: N_4  and  C_5
REMARK    4  A    between atoms: C_5  and  C_6
REMARK    5  A    between atoms: C_15  and  O_16
REMARK    6  A    between atoms: O_16  and  C_17
REMARK                            x       y       z     vdW  Elec       q    Type
REMARK                         _______ _______ _______ _____ _____    ______ ____
ROOT
ATOM      1  C   UNL     1       1.267   9.322  19.056  0.00  0.00    +0.000 A 
ATOM      2  C   UNL     1       1.952   8.789  17.960  0.00  0.00    +0.000 A 
ATOM      3  C   UNL     1       2.688   7.613  18.116  0.00  0.00    +0.000 A 
ATOM      4  C   UNL     1       2.703   7.009  19.366  0.00  0.00    +0.000 A 
ATOM      5  N   UNL     1       2.001   7.468  20.430  0.00  0.00    +0.000 NA
ATOM      6  C   UNL     1       1.328   8.633  20.259  0.00  0.00    +0.000 A 
ENDROOT
BRANCH   1   8
ATOM      7  N   UNL     1       1.157  11.596  18.394  0.00  0.00    +0.000 NA
ATOM      8  C   UNL     1       0.513  10.616  18.953  0.00  0.00    +0.000 C 
ATOM      9  N   UNL     1      -0.778  10.595  19.448  0.00  0.00    +0.000 N 
ATOM     10  H   UNL     1      -0.872  10.203  20.383  0.00  0.00    +0.000 HD
BRANCH   7  11
ATOM     11  O   UNL     1       0.443  12.798  18.386  0.00  0.00    +0.000 OA
ATOM     12  H   UNL     1      -0.268  12.611  17.746  0.00  0.00    +0.000 HD
ENDBRANCH   7  11
BRANCH   9  13
ATOM     13  C   UNL     1      -1.830  11.506  19.083  0.00  0.00    +0.000 C 
BRANCH  13  14
ATOM     14  C   UNL     1      -2.482  11.015  17.811  0.00  0.00    +0.000 A 
ATOM     15  C   UNL     1      -1.883  10.027  17.023  0.00  0.00    +0.000 A 
ATOM     16  C   UNL     1      -2.527   9.618  15.865  0.00  0.00    +0.000 A 
ATOM     17  N   UNL     1      -3.704  10.125  15.441  0.00  0.00    +0.000 NA
ATOM     18  C   UNL     1      -4.260  11.089  16.205  0.00  0.00    +0.000 A 
ATOM     19  C   UNL     1      -3.694  11.564  17.376  0.00  0.00    +0.000 A 
ENDBRANCH  13  14
ENDBRANCH   9  13
ENDBRANCH   1   8
BRANCH   4  20
ATOM     20  O   UNL     1       3.516   5.891  19.526  0.00  0.00    +0.000 OA
BRANCH  20  21
ATOM     21  C   UNL     1       2.893   4.664  19.451  0.00  0.00    +0.000 A 
ATOM     22  C   UNL     1       2.287   4.158  20.599  0.00  0.00    +0.000 A 
ATOM     23  F   UNL     1       2.291   4.873  21.736  0.00  0.00    +0.000 F 
ATOM     24  C   UNL     1       1.655   2.917  20.573  0.00  0.00    +0.000 A 
ATOM     25  F   UNL     1       1.064   2.436  21.677  0.00  0.00    +0.000 F 
ATOM     26  C   UNL     1       1.616   2.157  19.406  0.00  0.00    +0.000 A 
ATOM     27  C   UNL     1       2.184   2.678  18.254  0.00  0.00    +0.000 A 
ATOM     28  F   UNL     1       2.135   1.967  17.119  0.00  0.00    +0.000 F 
ATOM     29  C   UNL     1       2.790   3.930  18.264  0.00  0.00    +0.000 A 
ATOM     30  F   UNL     1       3.253   4.427  17.105  0.00  0.00    +0.000 F 
ENDBRANCH  20  21
ENDBRANCH   4  20
TORSDOF 6
ENDMDL
MODEL 9
REMARK VINA RESULT:      -8.4      1.982      2.511
REMARK  Name = 
REMARK  6 active torsions:
REMARK  status: ('A' for Active; 'I' for Inactive)
REMARK    1  A    between atoms: O_1  and  N_2
REMARK    2  A    between atoms: C_3  and  C_12
REMARK    3  A    between atoms: N_4  and  C_5
REMARK    4  A    between atoms: C_5  and  C_6
REMARK    5  A    between atoms: C_15  and  O_16
REMARK    6  A    between atoms: O_16  and  C_17
REMARK                            x       y       z     vdW  Elec       q    Type
REMARK                         _______ _______ _______ _____ _____    ______ ____
ROOT
ATOM      1  C   UNL     1       1.388   9.014  19.607  0.00  0.00    +0.000 A 
ATOM      2  C   UNL     1       1.735   9.047  18.254  0.00  0.00    +0.000 A 
ATOM      3  C   UNL     1       2.442   7.978  17.700  0.00  0.00    +0.000 A 
ATOM      4  C   UNL     1       2.769   6.909  18.524  0.00  0.00    +0.000 A 
ATOM      5  N   UNL     1       2.394   6.822  19.823  0.00  0.00    +0.000 NA
ATOM      6  C   UNL     1       1.743   7.891  20.343  0.00  0.00    +0.000 A 
ENDROOT
BRANCH   1   8
ATOM      7  N   UNL     1       1.060  10.438  21.475  0.00  0.00    +0.000 NA
ATOM      8  C   UNL     1       0.682  10.166  20.262  0.00  0.00    +0.000 C 
ATOM      9  N   UNL     1      -0.266  10.805  19.483  0.00  0.00    +0.000 N 
ATOM     10  H   UNL     1      -0.937  10.187  19.033  0.00  0.00    +0.000 HD
BRANCH   7  11
ATOM     11  O   UNL     1       0.326  11.469  22.067  0.00  0.00    +0.000 OA
ATOM     12  H   UNL     1      -0.495  11.465  21.542  0.00  0.00    +0.000 HD
ENDBRANCH   7  11
BRANCH   9  13
ATOM     13  C   UNL     1      -0.739  12.150  19.676  0.00  0.00    +0.000 C 
BRANCH  13  14
ATOM     14  C   UNL     1      -2.238  12.172  19.485  0.00  0.00    +0.000 A 
ATOM     15  C   UNL     1      -3.082  12.761  20.432  0.00  0.00    +0.000 A 
ATOM     16  C   UNL     1      -4.449  12.749  20.204  0.00  0.00    +0.000 A 
ATOM     17  N   UNL     1      -5.025  12.191  19.118  0.00  0.00    +0.000 NA
ATOM     18  C   UNL     1      -4.197  11.613  18.222  0.00  0.00    +0.000 A 
ATOM     19  C   UNL     1      -2.819  11.573  18.361  0.00  0.00    +0.000 A 
ENDBRANCH  13  14
ENDBRANCH   9  13
ENDBRANCH   1   8
BRANCH   4  20
ATOM     20  O   UNL     1       3.554   5.898  17.978  0.00  0.00    +0.000 OA
BRANCH  20  21
ATOM     21  C   UNL     1       3.271   4.613  18.389  0.00  0.00    +0.000 A 
ATOM     22  C   UNL     1       4.223   3.935  19.147  0.00  0.00    +0.000 A 
ATOM     23  F   UNL     1       5.372   4.542  19.488  0.00  0.00    +0.000 F 
ATOM     24  C   UNL     1       3.985   2.631  19.576  0.00  0.00    +0.000 A 
ATOM     25  F   UNL     1       4.899   1.985  20.313  0.00  0.00    +0.000 F 
ATOM     26  C   UNL     1       2.797   1.979  19.255  0.00  0.00    +0.000 A 
ATOM     27  C   UNL     1       1.833   2.667  18.536  0.00  0.00    +0.000 A 
ATOM     28  F   UNL     1       0.676   2.057  18.239  0.00  0.00    +0.000 F 
ATOM     29  C   UNL     1       2.050   3.979  18.131  0.00  0.00    +0.000 A 
ATOM     30  F   UNL     1       1.055   4.630  17.507  0.00  0.00    +0.000 F 
ENDBRANCH  20  21
ENDBRANCH   4  20
TORSDOF 6
ENDMDL
