MODEL 1
REMARK VINA RESULT:      -8.9      0.000      0.000
REMARK  Name = 
REMARK  7 active torsions:
REMARK  status: ('A' for Active; 'I' for Inactive)
REMARK    1  A    between atoms: C_1  and  C_2
REMARK    2  A    between atoms: C_2  and  C_3
REMARK    3  A    between atoms: C_6  and  C_7
REMARK    4  A    between atoms: N_10  and  C_11
REMARK    5  A    between atoms: C_11  and  C_12
REMARK    6  A    between atoms: C_12  and  O_13
REMARK    7  A    between atoms: C_31  and  C_32
REMARK                            x       y       z     vdW  Elec       q    Type
REMARK                         _______ _______ _______ _____ _____    ______ ____
ROOT
ATOM      1  C   UNL     1       0.659  13.078  19.126  0.00  0.00    +0.000 C 
ATOM      2  C   UNL     1      -0.266  11.878  19.419  0.00  0.00    +0.000 C 
ATOM      3  C   UNL     1      -1.416  11.834  18.390  0.00  0.00    +0.000 C 
ATOM      4  C   UNL     1      -0.880  12.009  20.828  0.00  0.00    +0.000 A 
ATOM      5  C   UNL     1      -1.623  13.153  21.164  0.00  0.00    +0.000 A 
ATOM      6  C   UNL     1      -2.235  13.305  22.419  0.00  0.00    +0.000 A 
ATOM      7  C   UNL     1      -2.202  12.222  23.301  0.00  0.00    +0.000 A 
ATOM      8  C   UNL     1      -1.426  11.104  23.028  0.00  0.00    +0.000 A 
ATOM      9  C   UNL     1      -0.743  11.008  21.816  0.00  0.00    +0.000 A 
ATOM     10  C   UNL     1       0.115   9.810  21.631  0.00  0.00    +0.000 C 
ATOM     11  O   UNL     1       0.305   9.015  22.544  0.00  0.00    +0.000 OA
ATOM     12  C   UNL     1       0.702   9.665  20.323  0.00  0.00    +0.000 A 
ATOM     13  C   UNL     1       0.530  10.598  19.322  0.00  0.00    +0.000 A 
ATOM     14  N   UNL     1       1.200  10.147  18.214  0.00  0.00    +0.000 N 
ATOM     15  C   UNL     1       1.792   8.930  18.487  0.00  0.00    +0.000 A 
ATOM     16  C   UNL     1       2.557   8.090  17.670  0.00  0.00    +0.000 A 
ATOM     17  C   UNL     1       3.027   6.890  18.237  0.00  0.00    +0.000 A 
ATOM     18  C   UNL     1       2.738   6.555  19.562  0.00  0.00    +0.000 A 
ATOM     19  C   UNL     1       1.977   7.407  20.359  0.00  0.00    +0.000 A 
ATOM     20  C   UNL     1       1.496   8.611  19.813  0.00  0.00    +0.000 A 
ATOM     21  H   UNL     1       1.249  10.619  17.321  0.00  0.00    +0.000 HD
ENDROOT
BRANCH   6  22
ATOM     22  C   UNL     1      -2.839  14.662  22.759  0.00  0.00    +0.000 C 
ATOM     23  C   UNL     1      -4.053  14.512  23.698  0.00  0.00    +0.000 C 
ATOM     24  C   UNL     1      -5.274  13.935  22.973  0.00  0.00    +0.000 C 
ATOM     25  N   UNL     1      -5.687  14.741  21.808  0.00  0.00    +0.000 NA
ATOM     26  C   UNL     1      -4.558  15.017  20.912  0.00  0.00    +0.000 C 
ATOM     27  C   UNL     1      -3.278  15.520  21.576  0.00  0.00    +0.000 C 
BRANCH  25  28
ATOM     28  C   UNL     1      -6.769  14.007  21.079  0.00  0.00    +0.000 C 
BRANCH  28  29
ATOM     29  C   UNL     1      -6.386  12.640  20.429  0.00  0.00    +0.000 C 
ATOM     30  C   UNL     1      -6.079  12.812  18.933  0.00  0.00    +0.000 C 
ATOM     31  C   UNL     1      -5.826  11.466  18.269  0.00  0.00    +0.000 C 
ATOM     32  O   UNL     1      -6.914  10.572  18.493  0.00  0.00    +0.000 OA
ATOM     33  C   UNL     1      -7.135  10.322  19.882  0.00  0.00    +0.000 C 
ATOM     34  C   UNL     1      -7.515  11.616  20.599  0.00  0.00    +0.000 C 
BRANCH  29  35
ATOM     35  O   UNL     1      -5.274  12.056  21.135  0.00  0.00    +0.000 OA
ATOM     36  H   UNL     1      -4.938  12.704  21.776  0.00  0.00    +0.000 HD
ENDBRANCH  29  35
ENDBRANCH  28  29
ENDBRANCH  25  28
ENDBRANCH   6  22
BRANCH  17  37
ATOM     37  C   UNL     1       3.805   5.997  17.440  0.00  0.00    +0.000 C 
ATOM     38  N   UNL     1       4.436   5.269  16.787  0.00  0.00    +0.000 NA
ENDBRANCH  17  37
TORSDOF 5
ENDMDL
MODEL 2
REMARK VINA RESULT:      -8.7      2.165      3.595
REMARK  Name = 
REMARK  7 active torsions:
REMARK  status: ('A' for Active; 'I' for Inactive)
REMARK    1  A    between atoms: C_1  and  C_2
REMARK    2  A    between atoms: C_2  and  C_3
REMARK    3  A    between atoms: C_6  and  C_7
REMARK    4  A    between atoms: N_10  and  C_11
REMARK    5  A    between atoms: C_11  and  C_12
REMARK    6  A    between atoms: C_12  and  O_13
REMARK    7  A    between atoms: C_31  and  C_32
REMARK                            x       y       z     vdW  Elec       q    Type
REMARK                         _______ _______ _______ _____ _____    ______ ____
ROOT
ATOM      1  C   UNL     1      -0.506   8.773  22.221  0.00  0.00    +0.000 C 
ATOM      2  C   UNL     1       0.886   9.155  21.674  0.00  0.00    +0.000 C 
ATOM      3  C   UNL     1       1.877   9.351  22.842  0.00  0.00    +0.000 C 
ATOM      4  C   UNL     1       0.804  10.475  20.881  0.00  0.00    +0.000 A 
ATOM      5  C   UNL     1       0.308  11.635  21.501  0.00  0.00    +0.000 A 
ATOM      6  C   UNL     1       0.247  12.870  20.837  0.00  0.00    +0.000 A 
ATOM      7  C   UNL     1       0.821  12.961  19.566  0.00  0.00    +0.000 A 
ATOM      8  C   UNL     1       1.262  11.826  18.901  0.00  0.00    +0.000 A 
ATOM      9  C   UNL     1       1.226  10.586  19.537  0.00  0.00    +0.000 A 
ATOM     10  C   UNL     1       1.654   9.414  18.732  0.00  0.00    +0.000 C 
ATOM     11  O   UNL     1       1.908   9.520  17.538  0.00  0.00    +0.000 OA
ATOM     12  C   UNL     1       1.738   8.167  19.449  0.00  0.00    +0.000 A 
ATOM     13  C   UNL     1       1.391   8.049  20.779  0.00  0.00    +0.000 A 
ATOM     14  N   UNL     1       1.605   6.745  21.150  0.00  0.00    +0.000 N 
ATOM     15  C   UNL     1       2.094   6.027  20.077  0.00  0.00    +0.000 A 
ATOM     16  C   UNL     1       2.470   4.683  19.981  0.00  0.00    +0.000 A 
ATOM     17  C   UNL     1       2.946   4.231  18.735  0.00  0.00    +0.000 A 
ATOM     18  C   UNL     1       3.039   5.095  17.642  0.00  0.00    +0.000 A 
ATOM     19  C   UNL     1       2.657   6.429  17.758  0.00  0.00    +0.000 A 
ATOM     20  C   UNL     1       2.179   6.903  18.994  0.00  0.00    +0.000 A 
ATOM     21  H   UNL     1       1.445   6.360  22.070  0.00  0.00    +0.000 HD
ENDROOT
BRANCH   6  22
ATOM     22  C   UNL     1      -0.494  14.012  21.519  0.00  0.00    +0.000 C 
ATOM     23  C   UNL     1      -1.221  13.526  22.789  0.00  0.00    +0.000 C 
ATOM     24  C   UNL     1      -2.450  12.672  22.458  0.00  0.00    +0.000 C 
ATOM     25  N   UNL     1      -3.428  13.374  21.606  0.00  0.00    +0.000 NA
ATOM     26  C   UNL     1      -2.792  13.958  20.419  0.00  0.00    +0.000 C 
ATOM     27  C   UNL     1      -1.515  14.759  20.665  0.00  0.00    +0.000 C 
BRANCH  25  28
ATOM     28  C   UNL     1      -4.496  12.404  21.206  0.00  0.00    +0.000 C 
BRANCH  28  29
ATOM     29  C   UNL     1      -5.946  12.700  21.703  0.00  0.00    +0.000 C 
ATOM     30  C   UNL     1      -6.546  13.902  20.957  0.00  0.00    +0.000 C 
ATOM     31  C   UNL     1      -7.910  14.272  21.522  0.00  0.00    +0.000 C 
ATOM     32  O   UNL     1      -7.837  14.498  22.928  0.00  0.00    +0.000 OA
ATOM     33  C   UNL     1      -7.383  13.345  23.641  0.00  0.00    +0.000 C 
ATOM     34  C   UNL     1      -5.963  12.982  23.211  0.00  0.00    +0.000 C 
BRANCH  29  35
ATOM     35  O   UNL     1      -6.765  11.523  21.558  0.00  0.00    +0.000 OA
ATOM     36  H   UNL     1      -7.693  11.772  21.698  0.00  0.00    +0.000 HD
ENDBRANCH  29  35
ENDBRANCH  28  29
ENDBRANCH  25  28
ENDBRANCH   6  22
BRANCH  17  37
ATOM     37  C   UNL     1       3.348   2.869  18.592  0.00  0.00    +0.000 C 
ATOM     38  N   UNL     1       3.673   1.758  18.473  0.00  0.00    +0.000 NA
ENDBRANCH  17  37
TORSDOF 5
ENDMDL
MODEL 3
REMARK VINA RESULT:      -8.5      2.339      3.751
REMARK  Name = 
REMARK  7 active torsions:
REMARK  status: ('A' for Active; 'I' for Inactive)
REMARK    1  A    between atoms: C_1  and  C_2
REMARK    2  A    between atoms: C_2  and  C_3
REMARK    3  A    between atoms: C_6  and  C_7
REMARK    4  A    between atoms: N_10  and  C_11
REMARK    5  A    between atoms: C_11  and  C_12
REMARK    6  A    between atoms: C_12  and  O_13
REMARK    7  A    between atoms: C_31  and  C_32
REMARK                            x       y       z     vdW  Elec       q    Type
REMARK                         _______ _______ _______ _____ _____    ______ ____
ROOT
ATOM      1  C   UNL     1      -0.406   9.016  22.175  0.00  0.00    +0.000 C 
ATOM      2  C   UNL     1       1.003   9.286  21.607  0.00  0.00    +0.000 C 
ATOM      3  C   UNL     1       2.013   9.466  22.761  0.00  0.00    +0.000 C 
ATOM      4  C   UNL     1       0.999  10.575  20.760  0.00  0.00    +0.000 A 
ATOM      5  C   UNL     1       0.582  11.789  21.334  0.00  0.00    +0.000 A 
ATOM      6  C   UNL     1       0.596  12.997  20.619  0.00  0.00    +0.000 A 
ATOM      7  C   UNL     1       1.165  12.999  19.343  0.00  0.00    +0.000 A 
ATOM      8  C   UNL     1       1.528  11.811  18.723  0.00  0.00    +0.000 A 
ATOM      9  C   UNL     1       1.418  10.603  19.410  0.00  0.00    +0.000 A 
ATOM     10  C   UNL     1       1.766   9.374  18.653  0.00  0.00    +0.000 C 
ATOM     11  O   UNL     1       2.017   9.415  17.454  0.00  0.00    +0.000 OA
ATOM     12  C   UNL     1       1.776   8.155  19.421  0.00  0.00    +0.000 A 
ATOM     13  C   UNL     1       1.431   8.114  20.756  0.00  0.00    +0.000 A 
ATOM     14  N   UNL     1       1.565   6.816  21.180  0.00  0.00    +0.000 N 
ATOM     15  C   UNL     1       2.000   6.025  20.136  0.00  0.00    +0.000 A 
ATOM     16  C   UNL     1       2.289   4.656  20.094  0.00  0.00    +0.000 A 
ATOM     17  C   UNL     1       2.726   4.125  18.865  0.00  0.00    +0.000 A 
ATOM     18  C   UNL     1       2.866   4.935  17.737  0.00  0.00    +0.000 A 
ATOM     19  C   UNL     1       2.570   6.295  17.799  0.00  0.00    +0.000 A 
ATOM     20  C   UNL     1       2.132   6.848  19.017  0.00  0.00    +0.000 A 
ATOM     21  H   UNL     1       1.387   6.480  22.116  0.00  0.00    +0.000 HD
ENDROOT
BRANCH   6  22
ATOM     22  C   UNL     1      -0.067  14.211  21.257  0.00  0.00    +0.000 C 
ATOM     23  C   UNL     1      -0.644  13.867  22.645  0.00  0.00    +0.000 C 
ATOM     24  C   UNL     1      -1.899  12.994  22.547  0.00  0.00    +0.000 C 
ATOM     25  N   UNL     1      -2.970  13.611  21.742  0.00  0.00    +0.000 NA
ATOM     26  C   UNL     1      -2.475  14.062  20.436  0.00  0.00    +0.000 C 
ATOM     27  C   UNL     1      -1.180  14.873  20.450  0.00  0.00    +0.000 C 
BRANCH  25  28
ATOM     28  C   UNL     1      -4.074  12.614  21.570  0.00  0.00    +0.000 C 
BRANCH  28  29
ATOM     29  C   UNL     1      -5.469  12.991  22.160  0.00  0.00    +0.000 C 
ATOM     30  C   UNL     1      -5.497  12.781  23.682  0.00  0.00    +0.000 C 
ATOM     31  C   UNL     1      -6.889  13.029  24.243  0.00  0.00    +0.000 C 
ATOM     32  O   UNL     1      -7.860  12.227  23.575  0.00  0.00    +0.000 OA
ATOM     33  C   UNL     1      -7.916  12.497  22.173  0.00  0.00    +0.000 C 
ATOM     34  C   UNL     1      -6.582  12.155  21.514  0.00  0.00    +0.000 C 
BRANCH  29  35
ATOM     35  O   UNL     1      -5.801  14.348  21.805  0.00  0.00    +0.000 OA
ATOM     36  H   UNL     1      -5.297  14.593  21.012  0.00  0.00    +0.000 HD
ENDBRANCH  29  35
ENDBRANCH  28  29
ENDBRANCH  25  28
ENDBRANCH   6  22
BRANCH  17  37
ATOM     37  C   UNL     1       3.040   2.735  18.777  0.00  0.00    +0.000 C 
ATOM     38  N   UNL     1       3.296   1.602  18.708  0.00  0.00    +0.000 NA
ENDBRANCH  17  37
TORSDOF 5
ENDMDL
MODEL 4
REMARK VINA RESULT:      -8.5      1.815      2.979
REMARK  Name = 
REMARK  7 active torsions:
REMARK  status: ('A' for Active; 'I' for Inactive)
REMARK    1  A    between atoms: C_1  and  C_2
REMARK    2  A    between atoms: C_2  and  C_3
REMARK    3  A    between atoms: C_6  and  C_7
REMARK    4  A    between atoms: N_10  and  C_11
REMARK    5  A    between atoms: C_11  and  C_12
REMARK    6  A    between atoms: C_12  and  O_13
REMARK    7  A    between atoms: C_31  and  C_32
REMARK                            x       y       z     vdW  Elec       q    Type
REMARK                         _______ _______ _______ _____ _____    ______ ____
ROOT
ATOM      1  C   UNL     1      -0.701   8.545  22.198  0.00  0.00    +0.000 C 
ATOM      2  C   UNL     1       0.642   9.220  21.846  0.00  0.00    +0.000 C 
ATOM      3  C   UNL     1       1.550   9.271  23.094  0.00  0.00    +0.000 C 
ATOM      4  C   UNL     1       0.403  10.664  21.360  0.00  0.00    +0.000 A 
ATOM      5  C   UNL     1      -0.277  11.577  22.186  0.00  0.00    +0.000 A 
ATOM      6  C   UNL     1      -0.487  12.912  21.807  0.00  0.00    +0.000 A 
ATOM      7  C   UNL     1       0.115  13.365  20.631  0.00  0.00    +0.000 A 
ATOM      8  C   UNL     1       0.738  12.478  19.763  0.00  0.00    +0.000 A 
ATOM      9  C   UNL     1       0.855  11.132  20.106  0.00  0.00    +0.000 A 
ATOM     10  C   UNL     1       1.476  10.240  19.093  0.00  0.00    +0.000 C 
ATOM     11  O   UNL     1       1.757  10.648  17.972  0.00  0.00    +0.000 OA
ATOM     12  C   UNL     1       1.710   8.885  19.522  0.00  0.00    +0.000 A 
ATOM     13  C   UNL     1       1.333   8.422  20.766  0.00  0.00    +0.000 A 
ATOM     14  N   UNL     1       1.716   7.108  20.854  0.00  0.00    +0.000 N 
ATOM     15  C   UNL     1       2.343   6.723  19.685  0.00  0.00    +0.000 A 
ATOM     16  C   UNL     1       2.909   5.497  19.321  0.00  0.00    +0.000 A 
ATOM     17  C   UNL     1       3.491   5.407  18.042  0.00  0.00    +0.000 A 
ATOM     18  C   UNL     1       3.501   6.502  17.175  0.00  0.00    +0.000 A 
ATOM     19  C   UNL     1       2.929   7.714  17.557  0.00  0.00    +0.000 A 
ATOM     20  C   UNL     1       2.343   7.826  18.831  0.00  0.00    +0.000 A 
ATOM     21  H   UNL     1       1.578   6.505  21.653  0.00  0.00    +0.000 HD
ENDROOT
BRANCH   6  22
ATOM     22  C   UNL     1      -1.409  13.762  22.672  0.00  0.00    +0.000 C 
ATOM     23  C   UNL     1      -2.581  12.926  23.227  0.00  0.00    +0.000 C 
ATOM     24  C   UNL     1      -3.605  12.579  22.142  0.00  0.00    +0.000 C 
ATOM     25  N   UNL     1      -4.162  13.769  21.472  0.00  0.00    +0.000 NA
ATOM     26  C   UNL     1      -3.105  14.672  21.002  0.00  0.00    +0.000 C 
ATOM     27  C   UNL     1      -2.004  15.000  22.009  0.00  0.00    +0.000 C 
BRANCH  25  28
ATOM     28  C   UNL     1      -5.014  13.317  20.327  0.00  0.00    +0.000 C 
BRANCH  28  29
ATOM     29  C   UNL     1      -6.387  12.661  20.679  0.00  0.00    +0.000 C 
ATOM     30  C   UNL     1      -6.640  12.699  22.195  0.00  0.00    +0.000 C 
ATOM     31  C   UNL     1      -7.916  11.952  22.555  0.00  0.00    +0.000 C 
ATOM     32  O   UNL     1      -7.888  10.619  22.051  0.00  0.00    +0.000 OA
ATOM     33  C   UNL     1      -7.763  10.578  20.628  0.00  0.00    +0.000 C 
ATOM     34  C   UNL     1      -6.440  11.206  20.195  0.00  0.00    +0.000 C 
BRANCH  29  35
ATOM     35  O   UNL     1      -7.444  13.312  19.947  0.00  0.00    +0.000 OA
ATOM     36  H   UNL     1      -7.569  14.204  20.311  0.00  0.00    +0.000 HD
ENDBRANCH  29  35
ENDBRANCH  28  29
ENDBRANCH  25  28
ENDBRANCH   6  22
BRANCH  17  37
ATOM     37  C   UNL     1       4.089   4.179  17.629  0.00  0.00    +0.000 C 
ATOM     38  N   UNL     1       4.574   3.174  17.296  0.00  0.00    +0.000 NA
ENDBRANCH  17  37
TORSDOF 5
ENDMDL
MODEL 5
REMARK VINA RESULT:      -8.5      1.697      2.328
REMARK  Name = 
REMARK  7 active torsions:
REMARK  status: ('A' for Active; 'I' for Inactive)
REMARK    1  A    between atoms: C_1  and  C_2
REMARK    2  A    between atoms: C_2  and  C_3
REMARK    3  A    between atoms: C_6  and  C_7
REMARK    4  A    between atoms: N_10  and  C_11
REMARK    5  A    between atoms: C_11  and  C_12
REMARK    6  A    between atoms: C_12  and  O_13
REMARK    7  A    between atoms: C_31  and  C_32
REMARK                            x       y       z     vdW  Elec       q    Type
REMARK                         _______ _______ _______ _____ _____    ______ ____
ROOT
ATOM      1  C   UNL     1       1.546  11.992  18.964  0.00  0.00    +0.000 C 
ATOM      2  C   UNL     1       0.622  10.776  19.184  0.00  0.00    +0.000 C 
ATOM      3  C   UNL     1      -0.551  10.815  18.180  0.00  0.00    +0.000 C 
ATOM      4  C   UNL     1       0.040  10.798  20.612  0.00  0.00    +0.000 A 
ATOM      5  C   UNL     1      -0.691  11.916  21.052  0.00  0.00    +0.000 A 
ATOM      6  C   UNL     1      -1.274  11.971  22.328  0.00  0.00    +0.000 A 
ATOM      7  C   UNL     1      -1.227  10.823  23.123  0.00  0.00    +0.000 A 
ATOM      8  C   UNL     1      -0.463   9.728  22.746  0.00  0.00    +0.000 A 
ATOM      9  C   UNL     1       0.193   9.723  21.516  0.00  0.00    +0.000 A 
ATOM     10  C   UNL     1       1.042   8.541  21.220  0.00  0.00    +0.000 C 
ATOM     11  O   UNL     1       1.248   7.677  22.065  0.00  0.00    +0.000 OA
ATOM     12  C   UNL     1       1.599   8.496  19.892  0.00  0.00    +0.000 A 
ATOM     13  C   UNL     1       1.410   9.505  18.971  0.00  0.00    +0.000 A 
ATOM     14  N   UNL     1       2.054   9.139  17.816  0.00  0.00    +0.000 N 
ATOM     15  C   UNL     1       2.646   7.903  17.981  0.00  0.00    +0.000 A 
ATOM     16  C   UNL     1       3.389   7.126  17.085  0.00  0.00    +0.000 A 
ATOM     17  C   UNL     1       3.866   5.884  17.547  0.00  0.00    +0.000 A 
ATOM     18  C   UNL     1       3.605   5.448  18.848  0.00  0.00    +0.000 A 
ATOM     19  C   UNL     1       2.865   6.239  19.725  0.00  0.00    +0.000 A 
ATOM     20  C   UNL     1       2.377   7.483  19.284  0.00  0.00    +0.000 A 
ATOM     21  H   UNL     1       2.086   9.678  16.962  0.00  0.00    +0.000 HD
ENDROOT
BRANCH   6  22
ATOM     22  C   UNL     1      -1.864  13.299  22.785  0.00  0.00    +0.000 C 
ATOM     23  C   UNL     1      -3.242  13.098  23.450  0.00  0.00    +0.000 C 
ATOM     24  C   UNL     1      -4.328  12.748  22.428  0.00  0.00    +0.000 C 
ATOM     25  N   UNL     1      -4.471  13.763  21.367  0.00  0.00    +0.000 NA
ATOM     26  C   UNL     1      -3.180  14.087  20.750  0.00  0.00    +0.000 C 
ATOM     27  C   UNL     1      -2.027  14.370  21.711  0.00  0.00    +0.000 C 
BRANCH  25  28
ATOM     28  C   UNL     1      -5.430  13.247  20.339  0.00  0.00    +0.000 C 
BRANCH  28  29
ATOM     29  C   UNL     1      -6.680  14.129  20.029  0.00  0.00    +0.000 C 
ATOM     30  C   UNL     1      -6.764  14.453  18.529  0.00  0.00    +0.000 C 
ATOM     31  C   UNL     1      -7.910  15.413  18.241  0.00  0.00    +0.000 C 
ATOM     32  O   UNL     1      -7.803  16.591  19.038  0.00  0.00    +0.000 OA
ATOM     33  C   UNL     1      -7.835  16.305  20.437  0.00  0.00    +0.000 C 
ATOM     34  C   UNL     1      -6.639  15.438  20.828  0.00  0.00    +0.000 C 
BRANCH  29  35
ATOM     35  O   UNL     1      -7.873  13.470  20.498  0.00  0.00    +0.000 OA
ATOM     36  H   UNL     1      -7.875  13.486  21.469  0.00  0.00    +0.000 HD
ENDBRANCH  29  35
ENDBRANCH  28  29
ENDBRANCH  25  28
ENDBRANCH   6  22
BRANCH  17  37
ATOM     37  C   UNL     1       4.622   5.054  16.666  0.00  0.00    +0.000 C 
ATOM     38  N   UNL     1       5.235   4.377  15.945  0.00  0.00    +0.000 NA
ENDBRANCH  17  37
TORSDOF 5
ENDMDL
MODEL 6
REMARK VINA RESULT:      -8.2      1.413      1.841
REMARK  Name = 
REMARK  7 active torsions:
REMARK  status: ('A' for Active; 'I' for Inactive)
REMARK    1  A    between atoms: C_1  and  C_2
REMARK    2  A    between atoms: C_2  and  C_3
REMARK    3  A    between atoms: C_6  and  C_7
REMARK    4  A    between atoms: N_10  and  C_11
REMARK    5  A    between atoms: C_11  and  C_12
REMARK    6  A    between atoms: C_12  and  O_13
REMARK    7  A    between atoms: C_31  and  C_32
REMARK                            x       y       z     vdW  Elec       q    Type
REMARK                         _______ _______ _______ _____ _____    ______ ____
ROOT
ATOM      1  C   UNL     1       1.557  11.983  18.873  0.00  0.00    +0.000 C 
ATOM      2  C   UNL     1       0.636  10.770  19.124  0.00  0.00    +0.000 C 
ATOM      3  C   UNL     1      -0.545  10.790  18.128  0.00  0.00    +0.000 C 
ATOM      4  C   UNL     1       0.064  10.820  20.555  0.00  0.00    +0.000 A 
ATOM      5  C   UNL     1      -0.664  11.946  20.979  0.00  0.00    +0.000 A 
ATOM      6  C   UNL     1      -1.238  12.026  22.258  0.00  0.00    +0.000 A 
ATOM      7  C   UNL     1      -1.184  10.893  23.075  0.00  0.00    +0.000 A 
ATOM      8  C   UNL     1      -0.422   9.791  22.714  0.00  0.00    +0.000 A 
ATOM      9  C   UNL     1       0.225   9.763  21.479  0.00  0.00    +0.000 A 
ATOM     10  C   UNL     1       1.072   8.576  21.199  0.00  0.00    +0.000 C 
ATOM     11  O   UNL     1       1.284   7.728  22.059  0.00  0.00    +0.000 OA
ATOM     12  C   UNL     1       1.619   8.505  19.868  0.00  0.00    +0.000 A 
ATOM     13  C   UNL     1       1.423   9.496  18.929  0.00  0.00    +0.000 A 
ATOM     14  N   UNL     1       2.057   9.108  17.777  0.00  0.00    +0.000 N 
ATOM     15  C   UNL     1       2.651   7.876  17.961  0.00  0.00    +0.000 A 
ATOM     16  C   UNL     1       3.388   7.082  17.075  0.00  0.00    +0.000 A 
ATOM     17  C   UNL     1       3.869   5.849  17.557  0.00  0.00    +0.000 A 
ATOM     18  C   UNL     1       3.618   5.439  18.868  0.00  0.00    +0.000 A 
ATOM     19  C   UNL     1       2.884   6.246  19.735  0.00  0.00    +0.000 A 
ATOM     20  C   UNL     1       2.393   7.481  19.274  0.00  0.00    +0.000 A 
ATOM     21  H   UNL     1       2.082   9.631  16.912  0.00  0.00    +0.000 HD
ENDROOT
BRANCH   6  22
ATOM     22  C   UNL     1      -1.825  13.362  22.694  0.00  0.00    +0.000 C 
ATOM     23  C   UNL     1      -3.011  13.161  23.660  0.00  0.00    +0.000 C 
ATOM     24  C   UNL     1      -4.256  12.631  22.942  0.00  0.00    +0.000 C 
ATOM     25  N   UNL     1      -4.701  13.504  21.839  0.00  0.00    +0.000 NA
ATOM     26  C   UNL     1      -3.599  13.827  20.925  0.00  0.00    +0.000 C 
ATOM     27  C   UNL     1      -2.297  14.288  21.577  0.00  0.00    +0.000 C 
BRANCH  25  28
ATOM     28  C   UNL     1      -5.808  12.815  21.103  0.00  0.00    +0.000 C 
BRANCH  28  29
ATOM     29  C   UNL     1      -5.985  13.171  19.593  0.00  0.00    +0.000 C 
ATOM     30  C   UNL     1      -6.501  14.609  19.425  0.00  0.00    +0.000 C 
ATOM     31  C   UNL     1      -6.792  14.918  17.963  0.00  0.00    +0.000 C 
ATOM     32  O   UNL     1      -7.689  13.960  17.406  0.00  0.00    +0.000 OA
ATOM     33  C   UNL     1      -7.167  12.631  17.461  0.00  0.00    +0.000 C 
ATOM     34  C   UNL     1      -6.960  12.202  18.911  0.00  0.00    +0.000 C 
BRANCH  29  35
ATOM     35  O   UNL     1      -4.742  12.967  18.892  0.00  0.00    +0.000 OA
ATOM     36  H   UNL     1      -4.941  12.741  17.969  0.00  0.00    +0.000 HD
ENDBRANCH  29  35
ENDBRANCH  28  29
ENDBRANCH  25  28
ENDBRANCH   6  22
BRANCH  17  37
ATOM     37  C   UNL     1       4.619   5.002  16.687  0.00  0.00    +0.000 C 
ATOM     38  N   UNL     1       5.230   4.309  15.980  0.00  0.00    +0.000 NA
ENDBRANCH  17  37
TORSDOF 5
ENDMDL
MODEL 7
REMARK VINA RESULT:      -8.1      4.438     10.376
REMARK  Name = 
REMARK  7 active torsions:
REMARK  status: ('A' for Active; 'I' for Inactive)
REMARK    1  A    between atoms: C_1  and  C_2
REMARK    2  A    between atoms: C_2  and  C_3
REMARK    3  A    between atoms: C_6  and  C_7
REMARK    4  A    between atoms: N_10  and  C_11
REMARK    5  A    between atoms: C_11  and  C_12
REMARK    6  A    between atoms: C_12  and  O_13
REMARK    7  A    between atoms: C_31  and  C_32
REMARK                            x       y       z     vdW  Elec       q    Type
REMARK                         _______ _______ _______ _____ _____    ______ ____
ROOT
ATOM      1  C   UNL     1       1.486   9.253  22.778  0.00  0.00    +0.000 C 
ATOM      2  C   UNL     1       0.686   9.280  21.459  0.00  0.00    +0.000 C 
ATOM      3  C   UNL     1      -0.789   8.909  21.728  0.00  0.00    +0.000 C 
ATOM      4  C   UNL     1       1.268   8.261  20.459  0.00  0.00    +0.000 A 
ATOM      5  C   UNL     1       1.364   6.905  20.817  0.00  0.00    +0.000 A 
ATOM      6  C   UNL     1       1.851   5.931  19.931  0.00  0.00    +0.000 A 
ATOM      7  C   UNL     1       2.123   6.316  18.616  0.00  0.00    +0.000 A 
ATOM      8  C   UNL     1       2.099   7.654  18.246  0.00  0.00    +0.000 A 
ATOM      9  C   UNL     1       1.707   8.625  19.165  0.00  0.00    +0.000 A 
ATOM     10  C   UNL     1       1.773  10.037  18.709  0.00  0.00    +0.000 C 
ATOM     11  O   UNL     1       2.261  10.334  17.625  0.00  0.00    +0.000 OA
ATOM     12  C   UNL     1       1.235  11.010  19.626  0.00  0.00    +0.000 A 
ATOM     13  C   UNL     1       0.743  10.669  20.869  0.00  0.00    +0.000 A 
ATOM     14  N   UNL     1       0.298  11.820  21.469  0.00  0.00    +0.000 N 
ATOM     15  C   UNL     1       0.489  12.894  20.623  0.00  0.00    +0.000 A 
ATOM     16  C   UNL     1       0.180  14.248  20.792  0.00  0.00    +0.000 A 
ATOM     17  C   UNL     1       0.494  15.121  19.732  0.00  0.00    +0.000 A 
ATOM     18  C   UNL     1       1.088  14.649  18.560  0.00  0.00    +0.000 A 
ATOM     19  C   UNL     1       1.389  13.296  18.413  0.00  0.00    +0.000 A 
ATOM     20  C   UNL     1       1.084  12.406  19.459  0.00  0.00    +0.000 A 
ATOM     21  H   UNL     1      -0.121  11.883  22.386  0.00  0.00    +0.000 HD
ENDROOT
BRANCH   6  22
ATOM     22  C   UNL     1       2.110   4.533  20.479  0.00  0.00    +0.000 C 
ATOM     23  C   UNL     1       3.622   4.237  20.559  0.00  0.00    +0.000 C 
ATOM     24  C   UNL     1       4.238   4.016  19.173  0.00  0.00    +0.000 C 
ATOM     25  N   UNL     1       3.592   2.924  18.421  0.00  0.00    +0.000 NA
ATOM     26  C   UNL     1       2.133   3.079  18.387  0.00  0.00    +0.000 C 
ATOM     27  C   UNL     1       1.456   3.381  19.723  0.00  0.00    +0.000 C 
BRANCH  25  28
ATOM     28  C   UNL     1       4.151   2.905  17.032  0.00  0.00    +0.000 C 
BRANCH  28  29
ATOM     29  C   UNL     1       5.249   3.963  16.695  0.00  0.00    +0.000 C 
ATOM     30  C   UNL     1       4.643   5.373  16.607  0.00  0.00    +0.000 C 
ATOM     31  C   UNL     1       5.684   6.388  16.158  0.00  0.00    +0.000 C 
ATOM     32  O   UNL     1       6.291   5.989  14.931  0.00  0.00    +0.000 OA
ATOM     33  C   UNL     1       6.952   4.727  15.036  0.00  0.00    +0.000 C 
ATOM     34  C   UNL     1       5.944   3.628  15.369  0.00  0.00    +0.000 C 
BRANCH  29  35
ATOM     35  O   UNL     1       6.308   3.900  17.671  0.00  0.00    +0.000 OA
ATOM     36  H   UNL     1       7.146   3.738  17.208  0.00  0.00    +0.000 HD
ENDBRANCH  29  35
ENDBRANCH  28  29
ENDBRANCH  25  28
ENDBRANCH   6  22
BRANCH  17  37
ATOM     37  C   UNL     1       0.190  16.510  19.856  0.00  0.00    +0.000 C 
ATOM     38  N   UNL     1      -0.062  17.642  19.955  0.00  0.00    +0.000 NA
ENDBRANCH  17  37
TORSDOF 5
ENDMDL
MODEL 8
REMARK VINA RESULT:      -8.1      2.105      3.459
REMARK  Name = 
REMARK  7 active torsions:
REMARK  status: ('A' for Active; 'I' for Inactive)
REMARK    1  A    between atoms: C_1  and  C_2
REMARK    2  A    between atoms: C_2  and  C_3
REMARK    3  A    between atoms: C_6  and  C_7
REMARK    4  A    between atoms: N_10  and  C_11
REMARK    5  A    between atoms: C_11  and  C_12
REMARK    6  A    between atoms: C_12  and  O_13
REMARK    7  A    between atoms: C_31  and  C_32
REMARK                            x       y       z     vdW  Elec       q    Type
REMARK                         _______ _______ _______ _____ _____    ______ ____
ROOT
ATOM      1  C   UNL     1      -0.497   8.735  22.036  0.00  0.00    +0.000 C 
ATOM      2  C   UNL     1       0.923   9.077  21.539  0.00  0.00    +0.000 C 
ATOM      3  C   UNL     1       1.873   9.266  22.742  0.00  0.00    +0.000 C 
ATOM      4  C   UNL     1       0.903  10.387  20.726  0.00  0.00    +0.000 A 
ATOM      5  C   UNL     1       0.411  11.567  21.311  0.00  0.00    +0.000 A 
ATOM      6  C   UNL     1       0.405  12.793  20.628  0.00  0.00    +0.000 A 
ATOM      7  C   UNL     1       1.029  12.854  19.380  0.00  0.00    +0.000 A 
ATOM      8  C   UNL     1       1.469  11.699  18.747  0.00  0.00    +0.000 A 
ATOM      9  C   UNL     1       1.379  10.469  19.398  0.00  0.00    +0.000 A 
ATOM     10  C   UNL     1       1.811   9.276  18.626  0.00  0.00    +0.000 C 
ATOM     11  O   UNL     1       2.113   9.359  17.441  0.00  0.00    +0.000 OA
ATOM     12  C   UNL     1       1.838   8.038  19.363  0.00  0.00    +0.000 A 
ATOM     13  C   UNL     1       1.437   7.947  20.679  0.00  0.00    +0.000 A 
ATOM     14  N   UNL     1       1.606   6.644  21.075  0.00  0.00    +0.000 N 
ATOM     15  C   UNL     1       2.119   5.900  20.032  0.00  0.00    +0.000 A 
ATOM     16  C   UNL     1       2.466   4.546  19.969  0.00  0.00    +0.000 A 
ATOM     17  C   UNL     1       2.979   4.066  18.748  0.00  0.00    +0.000 A 
ATOM     18  C   UNL     1       3.135   4.911  17.648  0.00  0.00    +0.000 A 
ATOM     19  C   UNL     1       2.780   6.256  17.732  0.00  0.00    +0.000 A 
ATOM     20  C   UNL     1       2.266   6.758  18.942  0.00  0.00    +0.000 A 
ATOM     21  H   UNL     1       1.401   6.276  21.994  0.00  0.00    +0.000 HD
ENDROOT
BRANCH   6  22
ATOM     22  C   UNL     1      -0.335  13.962  21.266  0.00  0.00    +0.000 C 
ATOM     23  C   UNL     1      -1.054  13.528  22.560  0.00  0.00    +0.000 C 
ATOM     24  C   UNL     1      -2.283  12.658  22.271  0.00  0.00    +0.000 C 
ATOM     25  N   UNL     1      -3.267  13.322  21.396  0.00  0.00    +0.000 NA
ATOM     26  C   UNL     1      -2.639  13.857  20.182  0.00  0.00    +0.000 C 
ATOM     27  C   UNL     1      -1.362  14.670  20.387  0.00  0.00    +0.000 C 
BRANCH  25  28
ATOM     28  C   UNL     1      -4.335  12.334  21.042  0.00  0.00    +0.000 C 
BRANCH  28  29
ATOM     29  C   UNL     1      -5.288  12.710  19.864  0.00  0.00    +0.000 C 
ATOM     30  C   UNL     1      -6.731  12.277  20.166  0.00  0.00    +0.000 C 
ATOM     31  C   UNL     1      -7.639  12.530  18.972  0.00  0.00    +0.000 C 
ATOM     32  O   UNL     1      -7.127  11.902  17.798  0.00  0.00    +0.000 OA
ATOM     33  C   UNL     1      -5.827  12.381  17.449  0.00  0.00    +0.000 C 
ATOM     34  C   UNL     1      -4.827  12.054  18.555  0.00  0.00    +0.000 C 
BRANCH  29  35
ATOM     35  O   UNL     1      -5.202  14.124  19.596  0.00  0.00    +0.000 OA
ATOM     36  H   UNL     1      -4.831  14.248  18.707  0.00  0.00    +0.000 HD
ENDBRANCH  29  35
ENDBRANCH  28  29
ENDBRANCH  25  28
ENDBRANCH   6  22
BRANCH  17  37
ATOM     37  C   UNL     1       3.355   2.693  18.639  0.00  0.00    +0.000 C 
ATOM     38  N   UNL     1       3.658   1.573  18.551  0.00  0.00    +0.000 NA
ENDBRANCH  17  37
TORSDOF 5
ENDMDL
MODEL 9
REMARK VINA RESULT:      -8.0      3.922     10.946
REMARK  Name = 
REMARK  7 active torsions:
REMARK  status: ('A' for Active; 'I' for Inactive)
REMARK    1  A    between atoms: C_1  and  C_2
REMARK    2  A    between atoms: C_2  and  C_3
REMARK    3  A    between atoms: C_6  and  C_7
REMARK    4  A    between atoms: N_10  and  C_11
REMARK    5  A    between atoms: C_11  and  C_12
REMARK    6  A    between atoms: C_12  and  O_13
REMARK    7  A    between atoms: C_31  and  C_32
REMARK                            x       y       z     vdW  Elec       q    Type
REMARK                         _______ _______ _______ _____ _____    ______ ____
ROOT
ATOM      1  C   UNL     1       1.629   9.095  22.787  0.00  0.00    +0.000 C 
ATOM      2  C   UNL     1       0.696   9.203  21.563  0.00  0.00    +0.000 C 
ATOM      3  C   UNL     1      -0.583   8.371  21.799  0.00  0.00    +0.000 C 
ATOM      4  C   UNL     1       1.402   8.660  20.304  0.00  0.00    +0.000 A 
ATOM      5  C   UNL     1       1.896   7.343  20.291  0.00  0.00    +0.000 A 
ATOM      6  C   UNL     1       2.513   6.788  19.159  0.00  0.00    +0.000 A 
ATOM      7  C   UNL     1       2.512   7.534  17.977  0.00  0.00    +0.000 A 
ATOM      8  C   UNL     1       2.090   8.856  17.971  0.00  0.00    +0.000 A 
ATOM      9  C   UNL     1       1.569   9.429  19.130  0.00  0.00    +0.000 A 
ATOM     10  C   UNL     1       1.203  10.866  19.055  0.00  0.00    +0.000 C 
ATOM     11  O   UNL     1       1.461  11.537  18.062  0.00  0.00    +0.000 OA
ATOM     12  C   UNL     1       0.542  11.399  20.219  0.00  0.00    +0.000 A 
ATOM     13  C   UNL     1       0.312  10.648  21.353  0.00  0.00    +0.000 A 
ATOM     14  N   UNL     1      -0.345  11.447  22.253  0.00  0.00    +0.000 N 
ATOM     15  C   UNL     1      -0.549  12.699  21.708  0.00  0.00    +0.000 A 
ATOM     16  C   UNL     1      -1.182  13.828  22.240  0.00  0.00    +0.000 A 
ATOM     17  C   UNL     1      -1.242  14.978  21.430  0.00  0.00    +0.000 A 
ATOM     18  C   UNL     1      -0.690  14.987  20.147  0.00  0.00    +0.000 A 
ATOM     19  C   UNL     1      -0.062  13.852  19.638  0.00  0.00    +0.000 A 
ATOM     20  C   UNL     1       0.008  12.692  20.429  0.00  0.00    +0.000 A 
ATOM     21  H   UNL     1      -0.651  11.169  23.176  0.00  0.00    +0.000 HD
ENDROOT
BRANCH   6  22
ATOM     22  C   UNL     1       3.197   5.435  19.310  0.00  0.00    +0.000 C 
ATOM     23  C   UNL     1       4.726   5.594  19.435  0.00  0.00    +0.000 C 
ATOM     24  C   UNL     1       5.374   5.987  18.103  0.00  0.00    +0.000 C 
ATOM     25  N   UNL     1       5.096   5.026  17.020  0.00  0.00    +0.000 NA
ATOM     26  C   UNL     1       3.661   4.741  16.902  0.00  0.00    +0.000 C 
ATOM     27  C   UNL     1       2.930   4.418  18.205  0.00  0.00    +0.000 C 
BRANCH  25  28
ATOM     28  C   UNL     1       5.626   5.587  15.737  0.00  0.00    +0.000 C 
BRANCH  28  29
ATOM     29  C   UNL     1       6.168   4.566  14.686  0.00  0.00    +0.000 C 
ATOM     30  C   UNL     1       7.379   5.142  13.936  0.00  0.00    +0.000 C 
ATOM     31  C   UNL     1       7.834   4.202  12.828  0.00  0.00    +0.000 C 
ATOM     32  O   UNL     1       6.757   3.891  11.947  0.00  0.00    +0.000 OA
ATOM     33  C   UNL     1       5.669   3.255  12.621  0.00  0.00    +0.000 C 
ATOM     34  C   UNL     1       5.078   4.190  13.674  0.00  0.00    +0.000 C 
BRANCH  29  35
ATOM     35  O   UNL     1       6.489   3.319  15.335  0.00  0.00    +0.000 OA
ATOM     36  H   UNL     1       6.667   2.652  14.652  0.00  0.00    +0.000 HD
ENDBRANCH  29  35
ENDBRANCH  28  29
ENDBRANCH  25  28
ENDBRANCH   6  22
BRANCH  17  37
ATOM     37  C   UNL     1      -1.885  16.151  21.926  0.00  0.00    +0.000 C 
ATOM     38  N   UNL     1      -2.413  17.106  22.332  0.00  0.00    +0.000 NA
ENDBRANCH  17  37
TORSDOF 5
ENDMDL
