MODEL 1
REMARK VINA RESULT:      -7.2      0.000      0.000
REMARK  Name = 
REMARK  13 active torsions:
REMARK  status: ('A' for Active; 'I' for Inactive)
REMARK    1  A    between atoms: C_1  and  C_2
REMARK    2  A    between atoms: C_2  and  N_3
REMARK    3  A    between atoms: N_3  and  C_4
REMARK    4  A    between atoms: N_3  and  C_6
REMARK    5  A    between atoms: C_4  and  C_5
REMARK    6  A    between atoms: C_6  and  C_7
REMARK    7  A    between atoms: C_7  and  N_8
REMARK    8  A    between atoms: N_8  and  C_9
REMARK    9  A    between atoms: N_8  and  C_13
REMARK   10  A    between atoms: C_9  and  C_10
REMARK   11  A    between atoms: C_10  and  C_11
REMARK   12  A    between atoms: C_10  and  C_12
REMARK   13  A    between atoms: C_15  and  C_16
REMARK                            x       y       z     vdW  Elec       q    Type
REMARK                         _______ _______ _______ _____ _____    ______ ____
ROOT
ATOM      1  C   UNL     1       4.747   4.602  17.785  0.00  0.00    +0.000 A 
ATOM      2  C   UNL     1       4.814   4.365  16.460  0.00  0.00    +0.000 A 
ATOM      3  C   UNL     1       6.145   4.484  15.780  0.00  0.00    +0.000 A 
ATOM      4  N   UNL     1       7.254   4.777  16.395  0.00  0.00    +0.000 NA
ATOM      5  C   UNL     1       7.180   4.985  17.744  0.00  0.00    +0.000 A 
ATOM      6  N   UNL     1       8.160   5.265  18.570  0.00  0.00    +0.000 NA
ATOM      7  C   UNL     1       7.544   5.357  19.773  0.00  0.00    +0.000 A 
ATOM      8  N   UNL     1       6.224   5.164  19.771  0.00  0.00    +0.000 NA
ATOM      9  N   UNL     1       5.965   4.919  18.453  0.00  0.00    +0.000 N 
ENDROOT
BRANCH   3  10
ATOM     10  C   UNL     1       6.160   4.250  14.267  0.00  0.00    +0.000 C 
ATOM     11  F   UNL     1       7.076   5.031  13.625  0.00  0.00    +0.000 F 
ATOM     12  F   UNL     1       6.471   2.966  13.947  0.00  0.00    +0.000 F 
ATOM     13  F   UNL     1       4.961   4.524  13.689  0.00  0.00    +0.000 F 
ENDBRANCH   3  10
BRANCH   1  14
ATOM     14  N   UNL     1       3.494   4.541  18.455  0.00  0.00    +0.000 N 
BRANCH  14  15
ATOM     15  C   UNL     1       2.446   5.562  18.104  0.00  0.00    +0.000 C 
BRANCH  15  16
ATOM     16  C   UNL     1       2.959   7.026  18.083  0.00  0.00    +0.000 C 
BRANCH  16  17
ATOM     17  N   UNL     1       2.382   8.028  19.019  0.00  0.00    +0.000 NA
BRANCH  17  19
ATOM     18  C   UNL     1       1.853  10.374  18.103  0.00  0.00    +0.000 C 
ATOM     19  C   UNL     1       1.472   8.902  18.238  0.00  0.00    +0.000 C 
ENDBRANCH  17  19
BRANCH  17  20
ATOM     20  C   UNL     1       1.754   7.452  20.217  0.00  0.00    +0.000 C 
ATOM     21  C   UNL     1       1.244   8.450  21.252  0.00  0.00    +0.000 C 
ENDBRANCH  17  20
ENDBRANCH  16  17
ENDBRANCH  15  16
ENDBRANCH  14  15
BRANCH  14  22
ATOM     22  C   UNL     1       3.055   3.284  19.117  0.00  0.00    +0.000 C 
BRANCH  22  23
ATOM     23  C   UNL     1       1.565   3.368  19.538  0.00  0.00    +0.000 C 
ATOM     24  C   UNL     1       0.694   2.324  18.833  0.00  0.00    +0.000 C 
ATOM     25  C   UNL     1       1.403   3.200  21.053  0.00  0.00    +0.000 C 
ENDBRANCH  22  23
ENDBRANCH  14  22
ENDBRANCH   1  14
TORSDOF 9
ENDMDL
MODEL 2
REMARK VINA RESULT:      -7.1      1.000      3.767
REMARK  Name = 
REMARK  13 active torsions:
REMARK  status: ('A' for Active; 'I' for Inactive)
REMARK    1  A    between atoms: C_1  and  C_2
REMARK    2  A    between atoms: C_2  and  N_3
REMARK    3  A    between atoms: N_3  and  C_4
REMARK    4  A    between atoms: N_3  and  C_6
REMARK    5  A    between atoms: C_4  and  C_5
REMARK    6  A    between atoms: C_6  and  C_7
REMARK    7  A    between atoms: C_7  and  N_8
REMARK    8  A    between atoms: N_8  and  C_9
REMARK    9  A    between atoms: N_8  and  C_13
REMARK   10  A    between atoms: C_9  and  C_10
REMARK   11  A    between atoms: C_10  and  C_11
REMARK   12  A    between atoms: C_10  and  C_12
REMARK   13  A    between atoms: C_15  and  C_16
REMARK                            x       y       z     vdW  Elec       q    Type
REMARK                         _______ _______ _______ _____ _____    ______ ____
ROOT
ATOM      1  C   UNL     1       4.830   5.606  17.381  0.00  0.00    +0.000 A 
ATOM      2  C   UNL     1       4.906   5.224  16.091  0.00  0.00    +0.000 A 
ATOM      3  C   UNL     1       6.213   4.698  15.578  0.00  0.00    +0.000 A 
ATOM      4  N   UNL     1       7.280   4.558  16.310  0.00  0.00    +0.000 NA
ATOM      5  C   UNL     1       7.183   4.919  17.624  0.00  0.00    +0.000 A 
ATOM      6  N   UNL     1       8.110   4.844  18.550  0.00  0.00    +0.000 NA
ATOM      7  C   UNL     1       7.489   5.313  19.659  0.00  0.00    +0.000 A 
ATOM      8  N   UNL     1       6.221   5.696  19.502  0.00  0.00    +0.000 NA
ATOM      9  N   UNL     1       6.001   5.447  18.178  0.00  0.00    +0.000 N 
ENDROOT
BRANCH   3  10
ATOM     10  C   UNL     1       6.261   4.322  14.094  0.00  0.00    +0.000 C 
ATOM     11  F   UNL     1       5.075   4.543  13.459  0.00  0.00    +0.000 F 
ATOM     12  F   UNL     1       7.193   5.038  13.411  0.00  0.00    +0.000 F 
ATOM     13  F   UNL     1       6.551   3.008  13.903  0.00  0.00    +0.000 F 
ENDBRANCH   3  10
BRANCH   1  14
ATOM     14  N   UNL     1       3.619   6.150  17.891  0.00  0.00    +0.000 N 
BRANCH  14  15
ATOM     15  C   UNL     1       2.781   5.297  18.804  0.00  0.00    +0.000 C 
BRANCH  15  16
ATOM     16  C   UNL     1       2.029   4.143  18.091  0.00  0.00    +0.000 C 
BRANCH  16  17
ATOM     17  N   UNL     1       1.197   3.197  18.884  0.00  0.00    +0.000 NA
BRANCH  17  19
ATOM     18  C   UNL     1       3.241   1.791  18.201  0.00  0.00    +0.000 C 
ATOM     19  C   UNL     1       1.849   1.866  18.823  0.00  0.00    +0.000 C 
ENDBRANCH  17  19
BRANCH  17  20
ATOM     20  C   UNL     1       0.906   3.644  20.254  0.00  0.00    +0.000 C 
ATOM     21  C   UNL     1       1.527   2.818  21.375  0.00  0.00    +0.000 C 
ENDBRANCH  17  20
ENDBRANCH  16  17
ENDBRANCH  15  16
ENDBRANCH  14  15
BRANCH  14  22
ATOM     22  C   UNL     1       3.408   7.623  17.915  0.00  0.00    +0.000 C 
BRANCH  22  23
ATOM     23  C   UNL     1       1.981   7.971  18.413  0.00  0.00    +0.000 C 
ATOM     24  C   UNL     1       1.915   8.143  19.934  0.00  0.00    +0.000 C 
ATOM     25  C   UNL     1       1.455   9.250  17.751  0.00  0.00    +0.000 C 
ENDBRANCH  22  23
ENDBRANCH  14  22
ENDBRANCH   1  14
TORSDOF 9
ENDMDL
MODEL 3
REMARK VINA RESULT:      -7.0      3.201      6.821
REMARK  Name = 
REMARK  13 active torsions:
REMARK  status: ('A' for Active; 'I' for Inactive)
REMARK    1  A    between atoms: C_1  and  C_2
REMARK    2  A    between atoms: C_2  and  N_3
REMARK    3  A    between atoms: N_3  and  C_4
REMARK    4  A    between atoms: N_3  and  C_6
REMARK    5  A    between atoms: C_4  and  C_5
REMARK    6  A    between atoms: C_6  and  C_7
REMARK    7  A    between atoms: C_7  and  N_8
REMARK    8  A    between atoms: N_8  and  C_9
REMARK    9  A    between atoms: N_8  and  C_13
REMARK   10  A    between atoms: C_9  and  C_10
REMARK   11  A    between atoms: C_10  and  C_11
REMARK   12  A    between atoms: C_10  and  C_12
REMARK   13  A    between atoms: C_15  and  C_16
REMARK                            x       y       z     vdW  Elec       q    Type
REMARK                         _______ _______ _______ _____ _____    ______ ____
ROOT
ATOM      1  C   UNL     1       4.540   4.827  17.818  0.00  0.00    +0.000 A 
ATOM      2  C   UNL     1       4.156   3.811  18.615  0.00  0.00    +0.000 A 
ATOM      3  C   UNL     1       3.045   4.052  19.593  0.00  0.00    +0.000 A 
ATOM      4  N   UNL     1       2.402   5.178  19.702  0.00  0.00    +0.000 NA
ATOM      5  C   UNL     1       2.779   6.192  18.868  0.00  0.00    +0.000 A 
ATOM      6  N   UNL     1       2.265   7.396  18.780  0.00  0.00    +0.000 NA
ATOM      7  C   UNL     1       2.994   7.982  17.800  0.00  0.00    +0.000 A 
ATOM      8  N   UNL     1       3.954   7.232  17.257  0.00  0.00    +0.000 NA
ATOM      9  N   UNL     1       3.831   6.057  17.941  0.00  0.00    +0.000 N 
ENDROOT
BRANCH   3  10
ATOM     10  C   UNL     1       2.676   2.881  20.508  0.00  0.00    +0.000 C 
ATOM     11  F   UNL     1       3.771   2.280  21.056  0.00  0.00    +0.000 F 
ATOM     12  F   UNL     1       1.897   3.268  21.553  0.00  0.00    +0.000 F 
ATOM     13  F   UNL     1       2.000   1.903  19.849  0.00  0.00    +0.000 F 
ENDBRANCH   3  10
BRANCH   1  14
ATOM     14  N   UNL     1       5.620   4.648  16.910  0.00  0.00    +0.000 N 
BRANCH  14  15
ATOM     15  C   UNL     1       5.338   4.750  15.436  0.00  0.00    +0.000 C 
BRANCH  15  16
ATOM     16  C   UNL     1       6.573   4.513  14.528  0.00  0.00    +0.000 C 
BRANCH  16  17
ATOM     17  N   UNL     1       6.436   3.712  13.281  0.00  0.00    +0.000 NA
BRANCH  17  19
ATOM     18  C   UNL     1       4.576   3.277  11.556  0.00  0.00    +0.000 C 
ATOM     19  C   UNL     1       4.987   3.568  12.997  0.00  0.00    +0.000 C 
ENDBRANCH  17  19
BRANCH  17  20
ATOM     20  C   UNL     1       7.207   4.226  12.140  0.00  0.00    +0.000 C 
ATOM     21  C   UNL     1       7.945   5.541  12.367  0.00  0.00    +0.000 C 
ENDBRANCH  17  20
ENDBRANCH  16  17
ENDBRANCH  15  16
ENDBRANCH  14  15
BRANCH  14  22
ATOM     22  C   UNL     1       7.025   4.817  17.369  0.00  0.00    +0.000 C 
BRANCH  22  23
ATOM     23  C   UNL     1       7.152   6.022  18.336  0.00  0.00    +0.000 C 
ATOM     24  C   UNL     1       8.096   5.740  19.509  0.00  0.00    +0.000 C 
ATOM     25  C   UNL     1       7.643   7.276  17.602  0.00  0.00    +0.000 C 
ENDBRANCH  22  23
ENDBRANCH  14  22
ENDBRANCH   1  14
TORSDOF 9
ENDMDL
MODEL 4
REMARK VINA RESULT:      -6.9      3.150      6.793
REMARK  Name = 
REMARK  13 active torsions:
REMARK  status: ('A' for Active; 'I' for Inactive)
REMARK    1  A    between atoms: C_1  and  C_2
REMARK    2  A    between atoms: C_2  and  N_3
REMARK    3  A    between atoms: N_3  and  C_4
REMARK    4  A    between atoms: N_3  and  C_6
REMARK    5  A    between atoms: C_4  and  C_5
REMARK    6  A    between atoms: C_6  and  C_7
REMARK    7  A    between atoms: C_7  and  N_8
REMARK    8  A    between atoms: N_8  and  C_9
REMARK    9  A    between atoms: N_8  and  C_13
REMARK   10  A    between atoms: C_9  and  C_10
REMARK   11  A    between atoms: C_10  and  C_11
REMARK   12  A    between atoms: C_10  and  C_12
REMARK   13  A    between atoms: C_15  and  C_16
REMARK                            x       y       z     vdW  Elec       q    Type
REMARK                         _______ _______ _______ _____ _____    ______ ____
ROOT
ATOM      1  C   UNL     1       4.541   4.839  17.612  0.00  0.00    +0.000 A 
ATOM      2  C   UNL     1       4.125   3.767  18.316  0.00  0.00    +0.000 A 
ATOM      3  C   UNL     1       3.001   3.946  19.293  0.00  0.00    +0.000 A 
ATOM      4  N   UNL     1       2.377   5.072  19.486  0.00  0.00    +0.000 NA
ATOM      5  C   UNL     1       2.786   6.145  18.745  0.00  0.00    +0.000 A 
ATOM      6  N   UNL     1       2.295   7.361  18.750  0.00  0.00    +0.000 NA
ATOM      7  C   UNL     1       3.050   8.012  17.834  0.00  0.00    +0.000 A 
ATOM      8  N   UNL     1       4.007   7.293  17.245  0.00  0.00    +0.000 NA
ATOM      9  N   UNL     1       3.851   6.067  17.827  0.00  0.00    +0.000 N 
ENDROOT
BRANCH   3  10
ATOM     10  C   UNL     1       2.596   2.710  20.100  0.00  0.00    +0.000 C 
ATOM     11  F   UNL     1       1.440   2.897  20.799  0.00  0.00    +0.000 F 
ATOM     12  F   UNL     1       2.387   1.624  19.310  0.00  0.00    +0.000 F 
ATOM     13  F   UNL     1       3.538   2.360  21.017  0.00  0.00    +0.000 F 
ENDBRANCH   3  10
BRANCH   1  14
ATOM     14  N   UNL     1       5.633   4.715  16.710  0.00  0.00    +0.000 N 
BRANCH  14  15
ATOM     15  C   UNL     1       5.360   4.848  15.236  0.00  0.00    +0.000 C 
BRANCH  15  16
ATOM     16  C   UNL     1       6.140   3.846  14.347  0.00  0.00    +0.000 C 
BRANCH  16  17
ATOM     17  N   UNL     1       6.154   4.020  12.869  0.00  0.00    +0.000 NA
BRANCH  17  19
ATOM     18  C   UNL     1       8.097   5.697  12.685  0.00  0.00    +0.000 C 
ATOM     19  C   UNL     1       7.555   4.288  12.460  0.00  0.00    +0.000 C 
ENDBRANCH  17  19
BRANCH  17  20
ATOM     20  C   UNL     1       5.526   2.921  12.120  0.00  0.00    +0.000 C 
ATOM     21  C   UNL     1       4.207   3.249  11.428  0.00  0.00    +0.000 C 
ENDBRANCH  17  20
ENDBRANCH  16  17
ENDBRANCH  15  16
ENDBRANCH  14  15
BRANCH  14  22
ATOM     22  C   UNL     1       7.029   4.911  17.186  0.00  0.00    +0.000 C 
BRANCH  22  23
ATOM     23  C   UNL     1       7.098   6.033  18.255  0.00  0.00    +0.000 C 
ATOM     24  C   UNL     1       7.980   5.654  19.449  0.00  0.00    +0.000 C 
ATOM     25  C   UNL     1       7.619   7.344  17.655  0.00  0.00    +0.000 C 
ENDBRANCH  22  23
ENDBRANCH  14  22
ENDBRANCH   1  14
TORSDOF 9
ENDMDL
MODEL 5
REMARK VINA RESULT:      -6.9      0.548      1.425
REMARK  Name = 
REMARK  13 active torsions:
REMARK  status: ('A' for Active; 'I' for Inactive)
REMARK    1  A    between atoms: C_1  and  C_2
REMARK    2  A    between atoms: C_2  and  N_3
REMARK    3  A    between atoms: N_3  and  C_4
REMARK    4  A    between atoms: N_3  and  C_6
REMARK    5  A    between atoms: C_4  and  C_5
REMARK    6  A    between atoms: C_6  and  C_7
REMARK    7  A    between atoms: C_7  and  N_8
REMARK    8  A    between atoms: N_8  and  C_9
REMARK    9  A    between atoms: N_8  and  C_13
REMARK   10  A    between atoms: C_9  and  C_10
REMARK   11  A    between atoms: C_10  and  C_11
REMARK   12  A    between atoms: C_10  and  C_12
REMARK   13  A    between atoms: C_15  and  C_16
REMARK                            x       y       z     vdW  Elec       q    Type
REMARK                         _______ _______ _______ _____ _____    ______ ____
ROOT
ATOM      1  C   UNL     1       4.768   4.657  17.776  0.00  0.00    +0.000 A 
ATOM      2  C   UNL     1       4.798   4.383  16.457  0.00  0.00    +0.000 A 
ATOM      3  C   UNL     1       6.102   4.519  15.728  0.00  0.00    +0.000 A 
ATOM      4  N   UNL     1       7.221   4.860  16.297  0.00  0.00    +0.000 NA
ATOM      5  C   UNL     1       7.186   5.106  17.641  0.00  0.00    +0.000 A 
ATOM      6  N   UNL     1       8.185   5.437  18.425  0.00  0.00    +0.000 NA
ATOM      7  C   UNL     1       7.607   5.547  19.645  0.00  0.00    +0.000 A 
ATOM      8  N   UNL     1       6.294   5.318  19.694  0.00  0.00    +0.000 NA
ATOM      9  N   UNL     1       5.998   5.027  18.393  0.00  0.00    +0.000 N 
ENDROOT
BRANCH   3  10
ATOM     10  C   UNL     1       6.074   4.241  14.223  0.00  0.00    +0.000 C 
ATOM     11  F   UNL     1       6.951   5.022  13.529  0.00  0.00    +0.000 F 
ATOM     12  F   UNL     1       6.403   2.954  13.930  0.00  0.00    +0.000 F 
ATOM     13  F   UNL     1       4.851   4.472  13.677  0.00  0.00    +0.000 F 
ENDBRANCH   3  10
BRANCH   1  14
ATOM     14  N   UNL     1       3.540   4.581  18.490  0.00  0.00    +0.000 N 
BRANCH  14  15
ATOM     15  C   UNL     1       2.547   5.699  18.322  0.00  0.00    +0.000 C 
BRANCH  15  16
ATOM     16  C   UNL     1       2.695   6.848  19.353  0.00  0.00    +0.000 C 
BRANCH  16  17
ATOM     17  N   UNL     1       1.535   7.732  19.650  0.00  0.00    +0.000 NA
BRANCH  17  19
ATOM     18  C   UNL     1       0.153   8.496  21.682  0.00  0.00    +0.000 C 
ATOM     19  C   UNL     1       1.403   7.819  21.126  0.00  0.00    +0.000 C 
ENDBRANCH  17  19
BRANCH  17  20
ATOM     20  C   UNL     1       1.585   9.044  18.989  0.00  0.00    +0.000 C 
ATOM     21  C   UNL     1       2.232   9.074  17.608  0.00  0.00    +0.000 C 
ENDBRANCH  17  20
ENDBRANCH  16  17
ENDBRANCH  15  16
ENDBRANCH  14  15
BRANCH  14  22
ATOM     22  C   UNL     1       3.048   3.275  19.003  0.00  0.00    +0.000 C 
BRANCH  22  23
ATOM     23  C   UNL     1       1.558   3.369  19.422  0.00  0.00    +0.000 C 
ATOM     24  C   UNL     1       0.690   2.301  18.749  0.00  0.00    +0.000 C 
ATOM     25  C   UNL     1       1.397   3.247  20.942  0.00  0.00    +0.000 C 
ENDBRANCH  22  23
ENDBRANCH  14  22
ENDBRANCH   1  14
TORSDOF 9
ENDMDL
MODEL 6
REMARK VINA RESULT:      -6.9      3.085      6.887
REMARK  Name = 
REMARK  13 active torsions:
REMARK  status: ('A' for Active; 'I' for Inactive)
REMARK    1  A    between atoms: C_1  and  C_2
REMARK    2  A    between atoms: C_2  and  N_3
REMARK    3  A    between atoms: N_3  and  C_4
REMARK    4  A    between atoms: N_3  and  C_6
REMARK    5  A    between atoms: C_4  and  C_5
REMARK    6  A    between atoms: C_6  and  C_7
REMARK    7  A    between atoms: C_7  and  N_8
REMARK    8  A    between atoms: N_8  and  C_9
REMARK    9  A    between atoms: N_8  and  C_13
REMARK   10  A    between atoms: C_9  and  C_10
REMARK   11  A    between atoms: C_10  and  C_11
REMARK   12  A    between atoms: C_10  and  C_12
REMARK   13  A    between atoms: C_15  and  C_16
REMARK                            x       y       z     vdW  Elec       q    Type
REMARK                         _______ _______ _______ _____ _____    ______ ____
ROOT
ATOM      1  C   UNL     1       4.454   4.644  17.282  0.00  0.00    +0.000 A 
ATOM      2  C   UNL     1       3.929   3.513  17.794  0.00  0.00    +0.000 A 
ATOM      3  C   UNL     1       2.719   3.621  18.672  0.00  0.00    +0.000 A 
ATOM      4  N   UNL     1       2.119   4.742  18.952  0.00  0.00    +0.000 NA
ATOM      5  C   UNL     1       2.641   5.879  18.403  0.00  0.00    +0.000 A 
ATOM      6  N   UNL     1       2.196   7.108  18.521  0.00  0.00    +0.000 NA
ATOM      7  C   UNL     1       3.065   7.833  17.777  0.00  0.00    +0.000 A 
ATOM      8  N   UNL     1       4.050   7.148  17.194  0.00  0.00    +0.000 NA
ATOM      9  N   UNL     1       3.791   5.867  17.590  0.00  0.00    +0.000 N 
ENDROOT
BRANCH   3  10
ATOM     10  C   UNL     1       2.189   2.313  19.266  0.00  0.00    +0.000 C 
ATOM     11  F   UNL     1       0.859   2.128  19.023  0.00  0.00    +0.000 F 
ATOM     12  F   UNL     1       2.819   1.222  18.755  0.00  0.00    +0.000 F 
ATOM     13  F   UNL     1       2.335   2.261  20.616  0.00  0.00    +0.000 F 
ENDBRANCH   3  10
BRANCH   1  14
ATOM     14  N   UNL     1       5.628   4.584  16.481  0.00  0.00    +0.000 N 
BRANCH  14  15
ATOM     15  C   UNL     1       5.498   4.836  15.004  0.00  0.00    +0.000 C 
BRANCH  15  16
ATOM     16  C   UNL     1       6.549   4.100  14.133  0.00  0.00    +0.000 C 
BRANCH  16  17
ATOM     17  N   UNL     1       6.119   3.372  12.908  0.00  0.00    +0.000 NA
BRANCH  17  19
ATOM     18  C   UNL     1       4.076   3.235  11.350  0.00  0.00    +0.000 C 
ATOM     19  C   UNL     1       4.822   3.948  12.475  0.00  0.00    +0.000 C 
ENDBRANCH  17  19
BRANCH  17  20
ATOM     20  C   UNL     1       7.128   3.330  11.840  0.00  0.00    +0.000 C 
ATOM     21  C   UNL     1       7.346   1.973  11.177  0.00  0.00    +0.000 C 
ENDBRANCH  17  20
ENDBRANCH  16  17
ENDBRANCH  15  16
ENDBRANCH  14  15
BRANCH  14  22
ATOM     22  C   UNL     1       6.971   4.729  17.104  0.00  0.00    +0.000 C 
BRANCH  22  23
ATOM     23  C   UNL     1       7.013   5.956  18.052  0.00  0.00    +0.000 C 
ATOM     24  C   UNL     1       7.817   5.686  19.327  0.00  0.00    +0.000 C 
ATOM     25  C   UNL     1       7.605   7.184  17.350  0.00  0.00    +0.000 C 
ENDBRANCH  22  23
ENDBRANCH  14  22
ENDBRANCH   1  14
TORSDOF 9
ENDMDL
MODEL 7
REMARK VINA RESULT:      -6.8      3.342      6.860
REMARK  Name = 
REMARK  13 active torsions:
REMARK  status: ('A' for Active; 'I' for Inactive)
REMARK    1  A    between atoms: C_1  and  C_2
REMARK    2  A    between atoms: C_2  and  N_3
REMARK    3  A    between atoms: N_3  and  C_4
REMARK    4  A    between atoms: N_3  and  C_6
REMARK    5  A    between atoms: C_4  and  C_5
REMARK    6  A    between atoms: C_6  and  C_7
REMARK    7  A    between atoms: C_7  and  N_8
REMARK    8  A    between atoms: N_8  and  C_9
REMARK    9  A    between atoms: N_8  and  C_13
REMARK   10  A    between atoms: C_9  and  C_10
REMARK   11  A    between atoms: C_10  and  C_11
REMARK   12  A    between atoms: C_10  and  C_12
REMARK   13  A    between atoms: C_15  and  C_16
REMARK                            x       y       z     vdW  Elec       q    Type
REMARK                         _______ _______ _______ _____ _____    ______ ____
ROOT
ATOM      1  C   UNL     1       4.251   4.810  18.095  0.00  0.00    +0.000 A 
ATOM      2  C   UNL     1       3.867   3.854  18.962  0.00  0.00    +0.000 A 
ATOM      3  C   UNL     1       2.822   4.193  19.983  0.00  0.00    +0.000 A 
ATOM      4  N   UNL     1       2.236   5.352  20.068  0.00  0.00    +0.000 NA
ATOM      5  C   UNL     1       2.611   6.305  19.164  0.00  0.00    +0.000 A 
ATOM      6  N   UNL     1       2.146   7.526  19.042  0.00  0.00    +0.000 NA
ATOM      7  C   UNL     1       2.845   8.028  17.996  0.00  0.00    +0.000 A 
ATOM      8  N   UNL     1       3.740   7.210  17.442  0.00  0.00    +0.000 NA
ATOM      9  N   UNL     1       3.604   6.076  18.191  0.00  0.00    +0.000 N 
ENDROOT
BRANCH   3  10
ATOM     10  C   UNL     1       2.454   3.086  20.975  0.00  0.00    +0.000 C 
ATOM     11  F   UNL     1       3.549   2.454  21.486  0.00  0.00    +0.000 F 
ATOM     12  F   UNL     1       1.761   3.562  22.044  0.00  0.00    +0.000 F 
ATOM     13  F   UNL     1       1.690   2.115  20.407  0.00  0.00    +0.000 F 
ENDBRANCH   3  10
BRANCH   1  14
ATOM     14  N   UNL     1       5.271   4.537  17.142  0.00  0.00    +0.000 N 
BRANCH  14  15
ATOM     15  C   UNL     1       4.918   4.598  15.681  0.00  0.00    +0.000 C 
BRANCH  15  16
ATOM     16  C   UNL     1       5.881   3.811  14.755  0.00  0.00    +0.000 C 
BRANCH  16  17
ATOM     17  N   UNL     1       6.370   4.430  13.493  0.00  0.00    +0.000 NA
BRANCH  17  19
ATOM     18  C   UNL     1       8.367   5.819  12.653  0.00  0.00    +0.000 C 
ATOM     19  C   UNL     1       7.715   4.996  13.761  0.00  0.00    +0.000 C 
ENDBRANCH  17  19
BRANCH  17  20
ATOM     20  C   UNL     1       6.332   3.540  12.323  0.00  0.00    +0.000 C 
ATOM     21  C   UNL     1       4.948   3.084  11.873  0.00  0.00    +0.000 C 
ENDBRANCH  17  20
ENDBRANCH  16  17
ENDBRANCH  15  16
ENDBRANCH  14  15
BRANCH  14  22
ATOM     22  C   UNL     1       6.705   4.644  17.523  0.00  0.00    +0.000 C 
BRANCH  22  23
ATOM     23  C   UNL     1       6.975   5.956  18.306  0.00  0.00    +0.000 C 
ATOM     24  C   UNL     1       7.923   5.750  19.491  0.00  0.00    +0.000 C 
ATOM     25  C   UNL     1       7.559   7.040  17.393  0.00  0.00    +0.000 C 
ENDBRANCH  22  23
ENDBRANCH  14  22
ENDBRANCH   1  14
TORSDOF 9
ENDMDL
MODEL 8
REMARK VINA RESULT:      -6.8      0.925      1.422
REMARK  Name = 
REMARK  13 active torsions:
REMARK  status: ('A' for Active; 'I' for Inactive)
REMARK    1  A    between atoms: C_1  and  C_2
REMARK    2  A    between atoms: C_2  and  N_3
REMARK    3  A    between atoms: N_3  and  C_4
REMARK    4  A    between atoms: N_3  and  C_6
REMARK    5  A    between atoms: C_4  and  C_5
REMARK    6  A    between atoms: C_6  and  C_7
REMARK    7  A    between atoms: C_7  and  N_8
REMARK    8  A    between atoms: N_8  and  C_9
REMARK    9  A    between atoms: N_8  and  C_13
REMARK   10  A    between atoms: C_9  and  C_10
REMARK   11  A    between atoms: C_10  and  C_11
REMARK   12  A    between atoms: C_10  and  C_12
REMARK   13  A    between atoms: C_15  and  C_16
REMARK                            x       y       z     vdW  Elec       q    Type
REMARK                         _______ _______ _______ _____ _____    ______ ____
ROOT
ATOM      1  C   UNL     1       4.824   4.532  17.629  0.00  0.00    +0.000 A 
ATOM      2  C   UNL     1       4.889   4.295  16.303  0.00  0.00    +0.000 A 
ATOM      3  C   UNL     1       6.197   4.508  15.603  0.00  0.00    +0.000 A 
ATOM      4  N   UNL     1       7.291   4.882  16.201  0.00  0.00    +0.000 NA
ATOM      5  C   UNL     1       7.222   5.090  17.550  0.00  0.00    +0.000 A 
ATOM      6  N   UNL     1       8.191   5.442  18.361  0.00  0.00    +0.000 NA
ATOM      7  C   UNL     1       7.588   5.493  19.572  0.00  0.00    +0.000 A 
ATOM      8  N   UNL     1       6.286   5.205  19.591  0.00  0.00    +0.000 NA
ATOM      9  N   UNL     1       6.026   4.938  18.278  0.00  0.00    +0.000 N 
ENDROOT
BRANCH   3  10
ATOM     10  C   UNL     1       6.207   4.271  14.090  0.00  0.00    +0.000 C 
ATOM     11  F   UNL     1       6.567   2.996  13.762  0.00  0.00    +0.000 F 
ATOM     12  F   UNL     1       4.986   4.473  13.529  0.00  0.00    +0.000 F 
ATOM     13  F   UNL     1       7.081   5.087  13.444  0.00  0.00    +0.000 F 
ENDBRANCH   3  10
BRANCH   1  14
ATOM     14  N   UNL     1       3.588   4.383  18.317  0.00  0.00    +0.000 N 
BRANCH  14  15
ATOM     15  C   UNL     1       3.376   5.171  19.581  0.00  0.00    +0.000 C 
BRANCH  15  16
ATOM     16  C   UNL     1       2.097   6.048  19.581  0.00  0.00    +0.000 C 
BRANCH  16  17
ATOM     17  N   UNL     1       2.176   7.477  19.990  0.00  0.00    +0.000 NA
BRANCH  17  19
ATOM     18  C   UNL     1       2.937   8.042  17.597  0.00  0.00    +0.000 C 
ATOM     19  C   UNL     1       1.996   8.304  18.771  0.00  0.00    +0.000 C 
ENDBRANCH  17  19
BRANCH  17  20
ATOM     20  C   UNL     1       1.272   7.848  21.088  0.00  0.00    +0.000 C 
ATOM     21  C   UNL     1       0.842   9.310  21.137  0.00  0.00    +0.000 C 
ENDBRANCH  17  20
ENDBRANCH  16  17
ENDBRANCH  15  16
ENDBRANCH  14  15
BRANCH  14  22
ATOM     22  C   UNL     1       2.392   3.853  17.610  0.00  0.00    +0.000 C 
BRANCH  22  23
ATOM     23  C   UNL     1       2.063   2.412  18.078  0.00  0.00    +0.000 C 
ATOM     24  C   UNL     1       3.308   1.640  18.525  0.00  0.00    +0.000 C 
ATOM     25  C   UNL     1       1.049   2.417  19.228  0.00  0.00    +0.000 C 
ENDBRANCH  22  23
ENDBRANCH  14  22
ENDBRANCH   1  14
TORSDOF 9
ENDMDL
MODEL 9
REMARK VINA RESULT:      -6.8      1.058      3.826
REMARK  Name = 
REMARK  13 active torsions:
REMARK  status: ('A' for Active; 'I' for Inactive)
REMARK    1  A    between atoms: C_1  and  C_2
REMARK    2  A    between atoms: C_2  and  N_3
REMARK    3  A    between atoms: N_3  and  C_4
REMARK    4  A    between atoms: N_3  and  C_6
REMARK    5  A    between atoms: C_4  and  C_5
REMARK    6  A    between atoms: C_6  and  C_7
REMARK    7  A    between atoms: C_7  and  N_8
REMARK    8  A    between atoms: N_8  and  C_9
REMARK    9  A    between atoms: N_8  and  C_13
REMARK   10  A    between atoms: C_9  and  C_10
REMARK   11  A    between atoms: C_10  and  C_11
REMARK   12  A    between atoms: C_10  and  C_12
REMARK   13  A    between atoms: C_15  and  C_16
REMARK                            x       y       z     vdW  Elec       q    Type
REMARK                         _______ _______ _______ _____ _____    ______ ____
ROOT
ATOM      1  C   UNL     1       4.819   5.383  16.944  0.00  0.00    +0.000 A 
ATOM      2  C   UNL     1       4.903   4.999  15.654  0.00  0.00    +0.000 A 
ATOM      3  C   UNL     1       6.217   4.487  15.145  0.00  0.00    +0.000 A 
ATOM      4  N   UNL     1       7.283   4.360  15.880  0.00  0.00    +0.000 NA
ATOM      5  C   UNL     1       7.179   4.723  17.194  0.00  0.00    +0.000 A 
ATOM      6  N   UNL     1       8.104   4.659  18.122  0.00  0.00    +0.000 NA
ATOM      7  C   UNL     1       7.475   5.124  19.228  0.00  0.00    +0.000 A 
ATOM      8  N   UNL     1       6.204   5.493  19.068  0.00  0.00    +0.000 NA
ATOM      9  N   UNL     1       5.989   5.239  17.744  0.00  0.00    +0.000 N 
ENDROOT
BRANCH   3  10
ATOM     10  C   UNL     1       6.272   4.108  13.663  0.00  0.00    +0.000 C 
ATOM     11  F   UNL     1       5.089   4.329  13.020  0.00  0.00    +0.000 F 
ATOM     12  F   UNL     1       7.208   4.823  12.983  0.00  0.00    +0.000 F 
ATOM     13  F   UNL     1       6.563   2.794  13.475  0.00  0.00    +0.000 F 
ENDBRANCH   3  10
BRANCH   1  14
ATOM     14  N   UNL     1       3.601   5.915  17.449  0.00  0.00    +0.000 N 
BRANCH  14  15
ATOM     15  C   UNL     1       2.504   4.956  17.823  0.00  0.00    +0.000 C 
BRANCH  15  16
ATOM     16  C   UNL     1       2.869   3.460  17.637  0.00  0.00    +0.000 C 
BRANCH  16  17
ATOM     17  N   UNL     1       2.784   2.526  18.793  0.00  0.00    +0.000 NA
BRANCH  17  19
ATOM     18  C   UNL     1       4.711   1.962  20.403  0.00  0.00    +0.000 C 
ATOM     19  C   UNL     1       3.748   2.993  19.820  0.00  0.00    +0.000 C 
ENDBRANCH  17  19
BRANCH  17  20
ATOM     20  C   UNL     1       1.424   2.325  19.315  0.00  0.00    +0.000 C 
ATOM     21  C   UNL     1       1.094   3.045  20.619  0.00  0.00    +0.000 C 
ENDBRANCH  17  20
ENDBRANCH  16  17
ENDBRANCH  15  16
ENDBRANCH  14  15
BRANCH  14  22
ATOM     22  C   UNL     1       3.560   7.287  18.022  0.00  0.00    +0.000 C 
BRANCH  22  23
ATOM     23  C   UNL     1       2.120   7.665  18.455  0.00  0.00    +0.000 C 
ATOM     24  C   UNL     1       1.970   7.764  19.976  0.00  0.00    +0.000 C 
ATOM     25  C   UNL     1       1.680   8.995  17.831  0.00  0.00    +0.000 C 
ENDBRANCH  22  23
ENDBRANCH  14  22
ENDBRANCH   1  14
TORSDOF 9
ENDMDL
