MODEL 1
REMARK VINA RESULT:      -8.9      0.000      0.000
REMARK  Name = 
REMARK  7 active torsions:
REMARK  status: ('A' for Active; 'I' for Inactive)
REMARK    1  A    between atoms: C_1  and  C_2
REMARK    2  A    between atoms: C_4  and  C_5
REMARK    3  A    between atoms: C_12  and  C_13
REMARK    4  A    between atoms: N_15  and  C_16
REMARK    5  A    between atoms: C_16  and  C_17
REMARK    6  A    between atoms: C_17  and  C_18
REMARK    7  A    between atoms: C_19  and  C_20
REMARK                            x       y       z     vdW  Elec       q    Type
REMARK                         _______ _______ _______ _____ _____    ______ ____
ROOT
ATOM      1  C   UNL     1      -0.889  11.062  22.187  0.00  0.00    +0.000 C 
ATOM      2  O   UNL     1      -0.995  10.911  23.399  0.00  0.00    +0.000 OA
ATOM      3  N   UNL     1      -1.483  12.099  21.493  0.00  0.00    +0.000 N 
ATOM      4  H   UNL     1      -1.248  12.283  20.526  0.00  0.00    +0.000 HD
ENDROOT
BRANCH   1  16
ATOM      5  C   UNL     1       1.945   3.351  21.702  0.00  0.00    +0.000 C 
ATOM      6  C   UNL     1       2.342   4.094  20.465  0.00  0.00    +0.000 A 
ATOM      7  C   UNL     1       2.811   3.459  19.324  0.00  0.00    +0.000 A 
ATOM      8  C   UNL     1       3.139   4.239  18.218  0.00  0.00    +0.000 A 
ATOM      9  C   UNL     1       3.657   3.591  16.968  0.00  0.00    +0.000 C 
ATOM     10  N   UNL     1       2.998   5.591  18.194  0.00  0.00    +0.000 NA
ATOM     11  C   UNL     1       2.519   6.210  19.296  0.00  0.00    +0.000 A 
ATOM     12  N   UNL     1       2.319   7.583  19.204  0.00  0.00    +0.000 N 
ATOM     13  C   UNL     1       1.523   8.428  19.966  0.00  0.00    +0.000 A 
ATOM     14  N   UNL     1       1.101   8.051  21.186  0.00  0.00    +0.000 NA
ATOM     15  C   UNL     1       0.322   8.889  21.893  0.00  0.00    +0.000 A 
ATOM     16  C   UNL     1      -0.080  10.107  21.419  0.00  0.00    +0.000 A 
ATOM     17  C   UNL     1       0.393  10.424  20.165  0.00  0.00    +0.000 A 
ATOM     18  N   UNL     1       1.189   9.611  19.426  0.00  0.00    +0.000 NA
ATOM     19  C   UNL     1       2.218   5.481  20.443  0.00  0.00    +0.000 A 
ATOM     20  H   UNL     1       2.537   7.957  18.294  0.00  0.00    +0.000 HD
ENDBRANCH   1  16
BRANCH   3  21
ATOM     21  C   UNL     1      -2.266  13.091  22.214  0.00  0.00    +0.000 C 
BRANCH  21  22
ATOM     22  C   UNL     1      -3.320  13.757  21.332  0.00  0.00    +0.000 C 
BRANCH  22  23
ATOM     23  C   UNL     1      -4.622  13.017  21.339  0.00  0.00    +0.000 A 
ATOM     24  C   UNL     1      -5.502  12.889  22.403  0.00  0.00    +0.000 A 
ATOM     25  C   UNL     1      -5.441  13.388  23.801  0.00  0.00    +0.000 C 
ATOM     26  N   UNL     1      -6.578  12.153  21.968  0.00  0.00    +0.000 N 
ATOM     27  C   UNL     1      -6.411  11.780  20.656  0.00  0.00    +0.000 A 
ATOM     28  C   UNL     1      -7.247  11.029  19.819  0.00  0.00    +0.000 A 
ATOM     29  C   UNL     1      -6.808  10.785  18.514  0.00  0.00    +0.000 A 
ATOM     30  C   UNL     1      -5.582  11.274  18.069  0.00  0.00    +0.000 A 
ATOM     31  C   UNL     1      -4.765  12.029  18.917  0.00  0.00    +0.000 A 
ATOM     32  C   UNL     1      -5.185  12.294  20.237  0.00  0.00    +0.000 A 
ATOM     33  H   UNL     1      -7.378  11.904  22.525  0.00  0.00    +0.000 HD
ENDBRANCH  22  23
ENDBRANCH  21  22
ENDBRANCH   3  21
TORSDOF 4
ENDMDL
MODEL 2
REMARK VINA RESULT:      -8.9      2.769     10.255
REMARK  Name = 
REMARK  7 active torsions:
REMARK  status: ('A' for Active; 'I' for Inactive)
REMARK    1  A    between atoms: C_1  and  C_2
REMARK    2  A    between atoms: C_4  and  C_5
REMARK    3  A    between atoms: C_12  and  C_13
REMARK    4  A    between atoms: N_15  and  C_16
REMARK    5  A    between atoms: C_16  and  C_17
REMARK    6  A    between atoms: C_17  and  C_18
REMARK    7  A    between atoms: C_19  and  C_20
REMARK                            x       y       z     vdW  Elec       q    Type
REMARK                         _______ _______ _______ _____ _____    ______ ____
ROOT
ATOM      1  C   UNL     1       2.071   8.832  18.467  0.00  0.00    +0.000 C 
ATOM      2  O   UNL     1       2.155   9.466  17.422  0.00  0.00    +0.000 OA
ATOM      3  N   UNL     1       2.758   7.655  18.701  0.00  0.00    +0.000 N 
ATOM      4  H   UNL     1       2.789   7.243  19.625  0.00  0.00    +0.000 HD
ENDROOT
BRANCH   1  16
ATOM      5  C   UNL     1      -3.146  14.746  20.816  0.00  0.00    +0.000 C 
ATOM      6  C   UNL     1      -3.090  13.697  21.881  0.00  0.00    +0.000 A 
ATOM      7  C   UNL     1      -4.021  13.613  22.905  0.00  0.00    +0.000 A 
ATOM      8  C   UNL     1      -3.892  12.589  23.839  0.00  0.00    +0.000 A 
ATOM      9  C   UNL     1      -4.874  12.471  24.966  0.00  0.00    +0.000 C 
ATOM     10  N   UNL     1      -2.910  11.650  23.780  0.00  0.00    +0.000 NA
ATOM     11  C   UNL     1      -2.015  11.714  22.769  0.00  0.00    +0.000 A 
ATOM     12  N   UNL     1      -1.074  10.692  22.702  0.00  0.00    +0.000 N 
ATOM     13  C   UNL     1      -0.297  10.255  21.638  0.00  0.00    +0.000 A 
ATOM     14  N   UNL     1      -0.088  11.051  20.574  0.00  0.00    +0.000 NA
ATOM     15  C   UNL     1       0.662  10.592  19.555  0.00  0.00    +0.000 A 
ATOM     16  C   UNL     1       1.209   9.340  19.542  0.00  0.00    +0.000 A 
ATOM     17  C   UNL     1       0.954   8.585  20.664  0.00  0.00    +0.000 A 
ATOM     18  N   UNL     1       0.213   9.016  21.716  0.00  0.00    +0.000 NA
ATOM     19  C   UNL     1      -2.075  12.744  21.835  0.00  0.00    +0.000 A 
ATOM     20  H   UNL     1      -1.192   9.995  23.420  0.00  0.00    +0.000 HD
ENDBRANCH   1  16
BRANCH   3  21
ATOM     21  C   UNL     1       3.651   7.128  17.681  0.00  0.00    +0.000 C 
BRANCH  21  22
ATOM     22  C   UNL     1       3.289   5.704  17.266  0.00  0.00    +0.000 C 
BRANCH  22  23
ATOM     23  C   UNL     1       3.743   4.685  18.267  0.00  0.00    +0.000 A 
ATOM     24  C   UNL     1       5.011   4.138  18.382  0.00  0.00    +0.000 A 
ATOM     25  C   UNL     1       6.253   4.347  17.592  0.00  0.00    +0.000 C 
ATOM     26  N   UNL     1       4.995   3.267  19.444  0.00  0.00    +0.000 N 
ATOM     27  C   UNL     1       3.743   3.217  20.010  0.00  0.00    +0.000 A 
ATOM     28  C   UNL     1       3.275   2.471  21.100  0.00  0.00    +0.000 A 
ATOM     29  C   UNL     1       1.929   2.607  21.449  0.00  0.00    +0.000 A 
ATOM     30  C   UNL     1       1.087   3.455  20.735  0.00  0.00    +0.000 A 
ATOM     31  C   UNL     1       1.574   4.200  19.654  0.00  0.00    +0.000 A 
ATOM     32  C   UNL     1       2.930   4.085  19.283  0.00  0.00    +0.000 A 
ATOM     33  H   UNL     1       5.779   2.727  19.768  0.00  0.00    +0.000 HD
ENDBRANCH  22  23
ENDBRANCH  21  22
ENDBRANCH   3  21
TORSDOF 4
ENDMDL
MODEL 3
REMARK VINA RESULT:      -8.9      2.743     10.132
REMARK  Name = 
REMARK  7 active torsions:
REMARK  status: ('A' for Active; 'I' for Inactive)
REMARK    1  A    between atoms: C_1  and  C_2
REMARK    2  A    between atoms: C_4  and  C_5
REMARK    3  A    between atoms: C_12  and  C_13
REMARK    4  A    between atoms: N_15  and  C_16
REMARK    5  A    between atoms: C_16  and  C_17
REMARK    6  A    between atoms: C_17  and  C_18
REMARK    7  A    between atoms: C_19  and  C_20
REMARK                            x       y       z     vdW  Elec       q    Type
REMARK                         _______ _______ _______ _____ _____    ______ ____
ROOT
ATOM      1  C   UNL     1       1.941   9.097  18.385  0.00  0.00    +0.000 C 
ATOM      2  O   UNL     1       2.022   9.758  17.356  0.00  0.00    +0.000 OA
ATOM      3  N   UNL     1       2.631   7.916  18.587  0.00  0.00    +0.000 N 
ATOM      4  H   UNL     1       2.664   7.481  19.500  0.00  0.00    +0.000 HD
ENDROOT
BRANCH   1  16
ATOM      5  C   UNL     1      -3.346  14.895  20.863  0.00  0.00    +0.000 C 
ATOM      6  C   UNL     1      -3.263  13.831  21.913  0.00  0.00    +0.000 A 
ATOM      7  C   UNL     1      -4.183  13.719  22.946  0.00  0.00    +0.000 A 
ATOM      8  C   UNL     1      -4.028  12.685  23.864  0.00  0.00    +0.000 A 
ATOM      9  C   UNL     1      -4.997  12.536  24.999  0.00  0.00    +0.000 C 
ATOM     10  N   UNL     1      -3.032  11.763  23.783  0.00  0.00    +0.000 NA
ATOM     11  C   UNL     1      -2.148  11.855  22.765  0.00  0.00    +0.000 A 
ATOM     12  N   UNL     1      -1.191  10.849  22.675  0.00  0.00    +0.000 N 
ATOM     13  C   UNL     1      -0.418  10.439  21.597  0.00  0.00    +0.000 A 
ATOM     14  N   UNL     1      -0.232  11.253  20.542  0.00  0.00    +0.000 NA
ATOM     15  C   UNL     1       0.515  10.820  19.510  0.00  0.00    +0.000 A 
ATOM     16  C   UNL     1       1.082   9.577  19.475  0.00  0.00    +0.000 A 
ATOM     17  C   UNL     1       0.850   8.803  20.589  0.00  0.00    +0.000 A 
ATOM     18  N   UNL     1       0.112   9.207  21.654  0.00  0.00    +0.000 NA
ATOM     19  C   UNL     1      -2.233  12.896  21.845  0.00  0.00    +0.000 A 
ATOM     20  H   UNL     1      -1.292  10.141  23.384  0.00  0.00    +0.000 HD
ENDBRANCH   1  16
BRANCH   3  21
ATOM     21  C   UNL     1       3.521   7.416  17.551  0.00  0.00    +0.000 C 
BRANCH  21  22
ATOM     22  C   UNL     1       4.433   6.299  18.053  0.00  0.00    +0.000 C 
BRANCH  22  23
ATOM     23  C   UNL     1       3.817   4.943  17.891  0.00  0.00    +0.000 A 
ATOM     24  C   UNL     1       4.141   3.989  16.939  0.00  0.00    +0.000 A 
ATOM     25  C   UNL     1       5.122   4.001  15.823  0.00  0.00    +0.000 C 
ATOM     26  N   UNL     1       3.352   2.887  17.167  0.00  0.00    +0.000 N 
ATOM     27  C   UNL     1       2.509   3.107  18.230  0.00  0.00    +0.000 A 
ATOM     28  C   UNL     1       1.545   2.269  18.805  0.00  0.00    +0.000 A 
ATOM     29  C   UNL     1       0.810   2.769  19.883  0.00  0.00    +0.000 A 
ATOM     30  C   UNL     1       1.033   4.056  20.365  0.00  0.00    +0.000 A 
ATOM     31  C   UNL     1       2.006   4.877  19.784  0.00  0.00    +0.000 A 
ATOM     32  C   UNL     1       2.766   4.395  18.697  0.00  0.00    +0.000 A 
ATOM     33  H   UNL     1       3.371   2.035  16.633  0.00  0.00    +0.000 HD
ENDBRANCH  22  23
ENDBRANCH  21  22
ENDBRANCH   3  21
TORSDOF 4
ENDMDL
MODEL 4
REMARK VINA RESULT:      -8.9      6.449     10.079
REMARK  Name = 
REMARK  7 active torsions:
REMARK  status: ('A' for Active; 'I' for Inactive)
REMARK    1  A    between atoms: C_1  and  C_2
REMARK    2  A    between atoms: C_4  and  C_5
REMARK    3  A    between atoms: C_12  and  C_13
REMARK    4  A    between atoms: N_15  and  C_16
REMARK    5  A    between atoms: C_16  and  C_17
REMARK    6  A    between atoms: C_17  and  C_18
REMARK    7  A    between atoms: C_19  and  C_20
REMARK                            x       y       z     vdW  Elec       q    Type
REMARK                         _______ _______ _______ _____ _____    ______ ____
ROOT
ATOM      1  C   UNL     1       5.602   4.798  16.841  0.00  0.00    +0.000 C 
ATOM      2  O   UNL     1       5.793   4.436  15.686  0.00  0.00    +0.000 OA
ATOM      3  N   UNL     1       4.602   4.282  17.645  0.00  0.00    +0.000 N 
ATOM      4  H   UNL     1       4.571   4.486  18.636  0.00  0.00    +0.000 HD
ENDROOT
BRANCH   1  16
ATOM      5  C   UNL     1       7.701  12.754  16.907  0.00  0.00    +0.000 C 
ATOM      6  C   UNL     1       8.465  12.041  17.978  0.00  0.00    +0.000 A 
ATOM      7  C   UNL     1       9.138  12.706  18.992  0.00  0.00    +0.000 A 
ATOM      8  C   UNL     1       9.806  11.952  19.953  0.00  0.00    +0.000 A 
ATOM      9  C   UNL     1      10.553  12.634  21.060  0.00  0.00    +0.000 C 
ATOM     10  N   UNL     1       9.808  10.591  19.959  0.00  0.00    +0.000 NA
ATOM     11  C   UNL     1       9.133   9.940  18.986  0.00  0.00    +0.000 A 
ATOM     12  N   UNL     1       9.097   8.553  19.072  0.00  0.00    +0.000 N 
ATOM     13  C   UNL     1       8.222   7.640  18.499  0.00  0.00    +0.000 A 
ATOM     14  N   UNL     1       7.475   7.986  17.435  0.00  0.00    +0.000 NA
ATOM     15  C   UNL     1       6.629   7.080  16.911  0.00  0.00    +0.000 A 
ATOM     16  C   UNL     1       6.480   5.822  17.423  0.00  0.00    +0.000 A 
ATOM     17  C   UNL     1       7.278   5.540  18.508  0.00  0.00    +0.000 A 
ATOM     18  N   UNL     1       8.150   6.422  19.059  0.00  0.00    +0.000 NA
ATOM     19  C   UNL     1       8.485  10.648  17.978  0.00  0.00    +0.000 A 
ATOM     20  H   UNL     1       9.569   8.192  19.886  0.00  0.00    +0.000 HD
ENDBRANCH   1  16
BRANCH   3  21
ATOM     21  C   UNL     1       3.728   3.241  17.127  0.00  0.00    +0.000 C 
BRANCH  21  22
ATOM     22  C   UNL     1       2.298   3.365  17.649  0.00  0.00    +0.000 C 
BRANCH  22  23
ATOM     23  C   UNL     1       2.190   4.320  18.799  0.00  0.00    +0.000 A 
ATOM     24  C   UNL     1       2.126   3.998  20.146  0.00  0.00    +0.000 A 
ATOM     25  C   UNL     1       2.119   2.690  20.849  0.00  0.00    +0.000 C 
ATOM     26  N   UNL     1       2.060   5.174  20.853  0.00  0.00    +0.000 N 
ATOM     27  C   UNL     1       2.057   6.253  20.000  0.00  0.00    +0.000 A 
ATOM     28  C   UNL     1       1.999   7.624  20.281  0.00  0.00    +0.000 A 
ATOM     29  C   UNL     1       1.994   8.508  19.198  0.00  0.00    +0.000 A 
ATOM     30  C   UNL     1       2.045   8.036  17.889  0.00  0.00    +0.000 A 
ATOM     31  C   UNL     1       2.112   6.663  17.628  0.00  0.00    +0.000 A 
ATOM     32  C   UNL     1       2.123   5.749  18.702  0.00  0.00    +0.000 A 
ATOM     33  H   UNL     1       2.009   5.251  21.854  0.00  0.00    +0.000 HD
ENDBRANCH  22  23
ENDBRANCH  21  22
ENDBRANCH   3  21
TORSDOF 4
ENDMDL
MODEL 5
REMARK VINA RESULT:      -8.7      2.767     10.271
REMARK  Name = 
REMARK  7 active torsions:
REMARK  status: ('A' for Active; 'I' for Inactive)
REMARK    1  A    between atoms: C_1  and  C_2
REMARK    2  A    between atoms: C_4  and  C_5
REMARK    3  A    between atoms: C_12  and  C_13
REMARK    4  A    between atoms: N_15  and  C_16
REMARK    5  A    between atoms: C_16  and  C_17
REMARK    6  A    between atoms: C_17  and  C_18
REMARK    7  A    between atoms: C_19  and  C_20
REMARK                            x       y       z     vdW  Elec       q    Type
REMARK                         _______ _______ _______ _____ _____    ______ ____
ROOT
ATOM      1  C   UNL     1       2.702   7.891  18.706  0.00  0.00    +0.000 C 
ATOM      2  O   UNL     1       2.919   7.047  19.568  0.00  0.00    +0.000 OA
ATOM      3  N   UNL     1       3.525   8.093  17.614  0.00  0.00    +0.000 N 
ATOM      4  H   UNL     1       3.237   8.684  16.845  0.00  0.00    +0.000 HD
ENDROOT
BRANCH   1  16
ATOM      5  C   UNL     1      -4.006  10.755  14.897  0.00  0.00    +0.000 C 
ATOM      6  C   UNL     1      -4.030  11.201  16.325  0.00  0.00    +0.000 A 
ATOM      7  C   UNL     1      -5.166  11.716  16.933  0.00  0.00    +0.000 A 
ATOM      8  C   UNL     1      -5.091  12.087  18.273  0.00  0.00    +0.000 A 
ATOM      9  C   UNL     1      -6.295  12.656  18.964  0.00  0.00    +0.000 C 
ATOM     10  N   UNL     1      -3.964  11.945  19.021  0.00  0.00    +0.000 NA
ATOM     11  C   UNL     1      -2.863  11.421  18.438  0.00  0.00    +0.000 A 
ATOM     12  N   UNL     1      -1.757  11.223  19.257  0.00  0.00    +0.000 N 
ATOM     13  C   UNL     1      -0.655  10.395  19.093  0.00  0.00    +0.000 A 
ATOM     14  N   UNL     1      -0.331   9.925  17.874  0.00  0.00    +0.000 NA
ATOM     15  C   UNL     1       0.738   9.116  17.752  0.00  0.00    +0.000 A 
ATOM     16  C   UNL     1       1.504   8.733  18.818  0.00  0.00    +0.000 A 
ATOM     17  C   UNL     1       1.112   9.255  20.029  0.00  0.00    +0.000 A 
ATOM     18  N   UNL     1       0.048  10.081  20.192  0.00  0.00    +0.000 NA
ATOM     19  C   UNL     1      -2.873  11.075  17.090  0.00  0.00    +0.000 A 
ATOM     20  H   UNL     1      -1.923  11.476  20.218  0.00  0.00    +0.000 HD
ENDBRANCH   1  16
BRANCH   3  21
ATOM     21  C   UNL     1       4.706   7.262  17.440  0.00  0.00    +0.000 C 
BRANCH  21  22
ATOM     22  C   UNL     1       4.404   5.964  16.695  0.00  0.00    +0.000 C 
BRANCH  22  23
ATOM     23  C   UNL     1       4.493   4.761  17.583  0.00  0.00    +0.000 A 
ATOM     24  C   UNL     1       5.643   4.208  18.124  0.00  0.00    +0.000 A 
ATOM     25  C   UNL     1       7.075   4.584  17.994  0.00  0.00    +0.000 C 
ATOM     26  N   UNL     1       5.267   3.134  18.894  0.00  0.00    +0.000 N 
ATOM     27  C   UNL     1       3.905   2.960  18.851  0.00  0.00    +0.000 A 
ATOM     28  C   UNL     1       3.098   2.000  19.476  0.00  0.00    +0.000 A 
ATOM     29  C   UNL     1       1.722   2.053  19.235  0.00  0.00    +0.000 A 
ATOM     30  C   UNL     1       1.179   3.028  18.402  0.00  0.00    +0.000 A 
ATOM     31  C   UNL     1       1.999   3.985  17.793  0.00  0.00    +0.000 A 
ATOM     32  C   UNL     1       3.391   3.957  18.023  0.00  0.00    +0.000 A 
ATOM     33  H   UNL     1       5.893   2.542  19.414  0.00  0.00    +0.000 HD
ENDBRANCH  22  23
ENDBRANCH  21  22
ENDBRANCH   3  21
TORSDOF 4
ENDMDL
MODEL 6
REMARK VINA RESULT:      -8.7      2.082     10.548
REMARK  Name = 
REMARK  7 active torsions:
REMARK  status: ('A' for Active; 'I' for Inactive)
REMARK    1  A    between atoms: C_1  and  C_2
REMARK    2  A    between atoms: C_4  and  C_5
REMARK    3  A    between atoms: C_12  and  C_13
REMARK    4  A    between atoms: N_15  and  C_16
REMARK    5  A    between atoms: C_16  and  C_17
REMARK    6  A    between atoms: C_17  and  C_18
REMARK    7  A    between atoms: C_19  and  C_20
REMARK                            x       y       z     vdW  Elec       q    Type
REMARK                         _______ _______ _______ _____ _____    ______ ____
ROOT
ATOM      1  C   UNL     1       1.737   7.751  20.289  0.00  0.00    +0.000 C 
ATOM      2  O   UNL     1       2.369   7.982  19.265  0.00  0.00    +0.000 OA
ATOM      3  N   UNL     1       1.739   6.523  20.926  0.00  0.00    +0.000 N 
ATOM      4  H   UNL     1       1.337   6.412  21.848  0.00  0.00    +0.000 HD
ENDROOT
BRANCH   1  16
ATOM      5  C   UNL     1      -4.759  12.733  19.458  0.00  0.00    +0.000 C 
ATOM      6  C   UNL     1      -4.164  12.932  20.817  0.00  0.00    +0.000 A 
ATOM      7  C   UNL     1      -4.826  13.600  21.837  0.00  0.00    +0.000 A 
ATOM      8  C   UNL     1      -4.194  13.719  23.072  0.00  0.00    +0.000 A 
ATOM      9  C   UNL     1      -4.872  14.442  24.198  0.00  0.00    +0.000 C 
ATOM     10  N   UNL     1      -2.969  13.189  23.333  0.00  0.00    +0.000 NA
ATOM     11  C   UNL     1      -2.332  12.517  22.349  0.00  0.00    +0.000 A 
ATOM     12  N   UNL     1      -1.118  11.926  22.679  0.00  0.00    +0.000 N 
ATOM     13  C   UNL     1      -0.423  10.894  22.062  0.00  0.00    +0.000 A 
ATOM     14  N   UNL     1      -0.685  10.565  20.784  0.00  0.00    +0.000 NA
ATOM     15  C   UNL     1      -0.000   9.553  20.220  0.00  0.00    +0.000 A 
ATOM     16  C   UNL     1       0.941   8.827  20.894  0.00  0.00    +0.000 A 
ATOM     17  C   UNL     1       1.155   9.223  22.195  0.00  0.00    +0.000 A 
ATOM     18  N   UNL     1       0.494  10.245  22.796  0.00  0.00    +0.000 NA
ATOM     19  C   UNL     1      -2.902  12.407  21.083  0.00  0.00    +0.000 A 
ATOM     20  H   UNL     1      -0.864  12.052  23.646  0.00  0.00    +0.000 HD
ENDBRANCH   1  16
BRANCH   3  21
ATOM     21  C   UNL     1       2.539   5.435  20.385  0.00  0.00    +0.000 C 
BRANCH  21  22
ATOM     22  C   UNL     1       1.988   4.905  19.063  0.00  0.00    +0.000 C 
BRANCH  22  23
ATOM     23  C   UNL     1       3.034   4.209  18.247  0.00  0.00    +0.000 A 
ATOM     24  C   UNL     1       3.286   2.846  18.203  0.00  0.00    +0.000 A 
ATOM     25  C   UNL     1       2.663   1.703  18.919  0.00  0.00    +0.000 C 
ATOM     26  N   UNL     1       4.309   2.640  17.310  0.00  0.00    +0.000 N 
ATOM     27  C   UNL     1       4.743   3.835  16.787  0.00  0.00    +0.000 A 
ATOM     28  C   UNL     1       5.755   4.096  15.853  0.00  0.00    +0.000 A 
ATOM     29  C   UNL     1       5.995   5.430  15.513  0.00  0.00    +0.000 A 
ATOM     30  C   UNL     1       5.252   6.459  16.085  0.00  0.00    +0.000 A 
ATOM     31  C   UNL     1       4.239   6.179  17.009  0.00  0.00    +0.000 A 
ATOM     32  C   UNL     1       3.973   4.840  17.367  0.00  0.00    +0.000 A 
ATOM     33  H   UNL     1       4.702   1.746  17.070  0.00  0.00    +0.000 HD
ENDBRANCH  22  23
ENDBRANCH  21  22
ENDBRANCH   3  21
TORSDOF 4
ENDMDL
MODEL 7
REMARK VINA RESULT:      -8.7      3.113     10.315
REMARK  Name = 
REMARK  7 active torsions:
REMARK  status: ('A' for Active; 'I' for Inactive)
REMARK    1  A    between atoms: C_1  and  C_2
REMARK    2  A    between atoms: C_4  and  C_5
REMARK    3  A    between atoms: C_12  and  C_13
REMARK    4  A    between atoms: N_15  and  C_16
REMARK    5  A    between atoms: C_16  and  C_17
REMARK    6  A    between atoms: C_17  and  C_18
REMARK    7  A    between atoms: C_19  and  C_20
REMARK                            x       y       z     vdW  Elec       q    Type
REMARK                         _______ _______ _______ _____ _____    ______ ____
ROOT
ATOM      1  C   UNL     1       0.778   9.749  18.745  0.00  0.00    +0.000 C 
ATOM      2  O   UNL     1       0.019   9.615  17.792  0.00  0.00    +0.000 OA
ATOM      3  N   UNL     1       1.881   8.943  18.959  0.00  0.00    +0.000 N 
ATOM      4  H   UNL     1       2.571   9.177  19.661  0.00  0.00    +0.000 HD
ENDROOT
BRANCH   1  16
ATOM      5  C   UNL     1      -4.501  12.940  24.192  0.00  0.00    +0.000 C 
ATOM      6  C   UNL     1      -3.223  13.719  24.239  0.00  0.00    +0.000 A 
ATOM      7  C   UNL     1      -2.914  14.596  25.268  0.00  0.00    +0.000 A 
ATOM      8  C   UNL     1      -1.692  15.261  25.228  0.00  0.00    +0.000 A 
ATOM      9  C   UNL     1      -1.325  16.225  26.318  0.00  0.00    +0.000 C 
ATOM     10  N   UNL     1      -0.775  15.073  24.242  0.00  0.00    +0.000 NA
ATOM     11  C   UNL     1      -1.063  14.201  23.251  0.00  0.00    +0.000 A 
ATOM     12  N   UNL     1      -0.068  13.981  22.304  0.00  0.00    +0.000 N 
ATOM     13  C   UNL     1       0.114  12.924  21.423  0.00  0.00    +0.000 A 
ATOM     14  N   UNL     1      -0.911  12.110  21.111  0.00  0.00    +0.000 NA
ATOM     15  C   UNL     1      -0.696  11.089  20.262  0.00  0.00    +0.000 A 
ATOM     16  C   UNL     1       0.527  10.826  19.711  0.00  0.00    +0.000 A 
ATOM     17  C   UNL     1       1.525  11.701  20.075  0.00  0.00    +0.000 A 
ATOM     18  N   UNL     1       1.346  12.748  20.919  0.00  0.00    +0.000 NA
ATOM     19  C   UNL     1      -2.290  13.543  23.220  0.00  0.00    +0.000 A 
ATOM     20  H   UNL     1       0.779  14.492  22.491  0.00  0.00    +0.000 HD
ENDBRANCH   1  16
BRANCH   3  21
ATOM     21  C   UNL     1       2.192   7.884  18.012  0.00  0.00    +0.000 C 
BRANCH  21  22
ATOM     22  C   UNL     1       3.474   7.136  18.371  0.00  0.00    +0.000 C 
BRANCH  22  23
ATOM     23  C   UNL     1       3.467   5.721  17.880  0.00  0.00    +0.000 A 
ATOM     24  C   UNL     1       4.252   5.185  16.870  0.00  0.00    +0.000 A 
ATOM     25  C   UNL     1       5.274   5.799  15.983  0.00  0.00    +0.000 C 
ATOM     26  N   UNL     1       3.941   3.851  16.763  0.00  0.00    +0.000 N 
ATOM     27  C   UNL     1       2.959   3.510  17.663  0.00  0.00    +0.000 A 
ATOM     28  C   UNL     1       2.343   2.274  17.898  0.00  0.00    +0.000 A 
ATOM     29  C   UNL     1       1.347   2.221  18.878  0.00  0.00    +0.000 A 
ATOM     30  C   UNL     1       0.986   3.361  19.591  0.00  0.00    +0.000 A 
ATOM     31  C   UNL     1       1.618   4.586  19.348  0.00  0.00    +0.000 A 
ATOM     32  C   UNL     1       2.629   4.665  18.368  0.00  0.00    +0.000 A 
ATOM     33  H   UNL     1       4.358   3.205  16.115  0.00  0.00    +0.000 HD
ENDBRANCH  22  23
ENDBRANCH  21  22
ENDBRANCH   3  21
TORSDOF 4
ENDMDL
MODEL 8
REMARK VINA RESULT:      -8.6      4.470     10.591
REMARK  Name = 
REMARK  7 active torsions:
REMARK  status: ('A' for Active; 'I' for Inactive)
REMARK    1  A    between atoms: C_1  and  C_2
REMARK    2  A    between atoms: C_4  and  C_5
REMARK    3  A    between atoms: C_12  and  C_13
REMARK    4  A    between atoms: N_15  and  C_16
REMARK    5  A    between atoms: C_16  and  C_17
REMARK    6  A    between atoms: C_17  and  C_18
REMARK    7  A    between atoms: C_19  and  C_20
REMARK                            x       y       z     vdW  Elec       q    Type
REMARK                         _______ _______ _______ _____ _____    ______ ____
ROOT
ATOM      1  C   UNL     1       1.996   5.945  19.127  0.00  0.00    +0.000 C 
ATOM      2  O   UNL     1       2.278   5.549  20.251  0.00  0.00    +0.000 OA
ATOM      3  N   UNL     1       1.624   5.105  18.093  0.00  0.00    +0.000 N 
ATOM      4  H   UNL     1       1.247   5.474  17.230  0.00  0.00    +0.000 HD
ENDROOT
BRANCH   1  16
ATOM      5  C   UNL     1       0.050  13.475  21.816  0.00  0.00    +0.000 C 
ATOM      6  C   UNL     1       0.843  13.600  20.553  0.00  0.00    +0.000 A 
ATOM      7  C   UNL     1       1.409  14.795  20.135  0.00  0.00    +0.000 A 
ATOM      8  C   UNL     1       2.144  14.804  18.952  0.00  0.00    +0.000 A 
ATOM      9  C   UNL     1       2.764  16.079  18.462  0.00  0.00    +0.000 C 
ATOM     10  N   UNL     1       2.354  13.691  18.200  0.00  0.00    +0.000 NA
ATOM     11  C   UNL     1       1.824  12.520  18.617  0.00  0.00    +0.000 A 
ATOM     12  N   UNL     1       2.126  11.393  17.861  0.00  0.00    +0.000 N 
ATOM     13  C   UNL     1       2.075  10.046  18.196  0.00  0.00    +0.000 A 
ATOM     14  N   UNL     1       1.339   9.631  19.243  0.00  0.00    +0.000 NA
ATOM     15  C   UNL     1       1.321   8.320  19.546  0.00  0.00    +0.000 A 
ATOM     16  C   UNL     1       2.035   7.387  18.848  0.00  0.00    +0.000 A 
ATOM     17  C   UNL     1       2.762   7.886  17.791  0.00  0.00    +0.000 A 
ATOM     18  N   UNL     1       2.798   9.198  17.447  0.00  0.00    +0.000 NA
ATOM     19  C   UNL     1       1.045  12.466  19.770  0.00  0.00    +0.000 A 
ATOM     20  H   UNL     1       2.741  11.586  17.087  0.00  0.00    +0.000 HD
ENDBRANCH   1  16
BRANCH   3  21
ATOM     21  C   UNL     1       1.536   3.672  18.328  0.00  0.00    +0.000 C 
BRANCH  21  22
ATOM     22  C   UNL     1       2.584   2.886  17.544  0.00  0.00    +0.000 C 
BRANCH  22  23
ATOM     23  C   UNL     1       3.982   3.306  17.879  0.00  0.00    +0.000 A 
ATOM     24  C   UNL     1       4.642   3.120  19.084  0.00  0.00    +0.000 A 
ATOM     25  C   UNL     1       4.205   2.506  20.364  0.00  0.00    +0.000 C 
ATOM     26  N   UNL     1       5.909   3.632  18.949  0.00  0.00    +0.000 N 
ATOM     27  C   UNL     1       6.085   4.166  17.694  0.00  0.00    +0.000 A 
ATOM     28  C   UNL     1       7.205   4.789  17.128  0.00  0.00    +0.000 A 
ATOM     29  C   UNL     1       7.092   5.259  15.817  0.00  0.00    +0.000 A 
ATOM     30  C   UNL     1       5.905   5.111  15.104  0.00  0.00    +0.000 A 
ATOM     31  C   UNL     1       4.799   4.479  15.683  0.00  0.00    +0.000 A 
ATOM     32  C   UNL     1       4.887   3.991  17.003  0.00  0.00    +0.000 A 
ATOM     33  H   UNL     1       6.617   3.633  19.663  0.00  0.00    +0.000 HD
ENDBRANCH  22  23
ENDBRANCH  21  22
ENDBRANCH   3  21
TORSDOF 4
ENDMDL
MODEL 9
REMARK VINA RESULT:      -8.6      3.892     11.279
REMARK  Name = 
REMARK  7 active torsions:
REMARK  status: ('A' for Active; 'I' for Inactive)
REMARK    1  A    between atoms: C_1  and  C_2
REMARK    2  A    between atoms: C_4  and  C_5
REMARK    3  A    between atoms: C_12  and  C_13
REMARK    4  A    between atoms: N_15  and  C_16
REMARK    5  A    between atoms: C_16  and  C_17
REMARK    6  A    between atoms: C_17  and  C_18
REMARK    7  A    between atoms: C_19  and  C_20
REMARK                            x       y       z     vdW  Elec       q    Type
REMARK                         _______ _______ _______ _____ _____    ______ ____
ROOT
ATOM      1  C   UNL     1       2.944   6.320  19.057  0.00  0.00    +0.000 C 
ATOM      2  O   UNL     1       2.668   5.637  20.037  0.00  0.00    +0.000 OA
ATOM      3  N   UNL     1       3.803   5.904  18.057  0.00  0.00    +0.000 N 
ATOM      4  H   UNL     1       3.887   6.422  17.191  0.00  0.00    +0.000 HD
ENDROOT
BRANCH   1  16
ATOM      5  C   UNL     1      -1.008  12.453  22.861  0.00  0.00    +0.000 C 
ATOM      6  C   UNL     1      -0.712  12.865  21.453  0.00  0.00    +0.000 A 
ATOM      7  C   UNL     1      -0.807  14.179  21.018  0.00  0.00    +0.000 A 
ATOM      8  C   UNL     1      -0.494  14.463  19.691  0.00  0.00    +0.000 A 
ATOM      9  C   UNL     1      -0.592  15.869  19.180  0.00  0.00    +0.000 C 
ATOM     10  N   UNL     1      -0.075  13.517  18.808  0.00  0.00    +0.000 NA
ATOM     11  C   UNL     1       0.042  12.240  19.236  0.00  0.00    +0.000 A 
ATOM     12  N   UNL     1       0.545  11.319  18.324  0.00  0.00    +0.000 N 
ATOM     13  C   UNL     1       1.128  10.077  18.531  0.00  0.00    +0.000 A 
ATOM     14  N   UNL     1       0.938   9.418  19.689  0.00  0.00    +0.000 NA
ATOM     15  C   UNL     1       1.526   8.221  19.861  0.00  0.00    +0.000 A 
ATOM     16  C   UNL     1       2.329   7.646  18.916  0.00  0.00    +0.000 A 
ATOM     17  C   UNL     1       2.476   8.377  17.759  0.00  0.00    +0.000 A 
ATOM     18  N   UNL     1       1.891   9.582  17.543  0.00  0.00    +0.000 NA
ATOM     19  C   UNL     1      -0.301  11.897  20.541  0.00  0.00    +0.000 A 
ATOM     20  H   UNL     1       0.793  11.731  17.438  0.00  0.00    +0.000 HD
ENDBRANCH   1  16
BRANCH   3  21
ATOM     21  C   UNL     1       4.411   4.585  18.133  0.00  0.00    +0.000 C 
BRANCH  21  22
ATOM     22  C   UNL     1       4.545   3.922  16.764  0.00  0.00    +0.000 C 
BRANCH  22  23
ATOM     23  C   UNL     1       5.704   4.459  15.980  0.00  0.00    +0.000 A 
ATOM     24  C   UNL     1       6.730   5.261  16.455  0.00  0.00    +0.000 A 
ATOM     25  C   UNL     1       6.993   5.836  17.800  0.00  0.00    +0.000 C 
ATOM     26  N   UNL     1       7.590   5.499  15.410  0.00  0.00    +0.000 N 
ATOM     27  C   UNL     1       7.139   4.891  14.263  0.00  0.00    +0.000 A 
ATOM     28  C   UNL     1       7.692   4.871  12.976  0.00  0.00    +0.000 A 
ATOM     29  C   UNL     1       6.997   4.176  11.982  0.00  0.00    +0.000 A 
ATOM     30  C   UNL     1       5.797   3.529  12.268  0.00  0.00    +0.000 A 
ATOM     31  C   UNL     1       5.264   3.553  13.562  0.00  0.00    +0.000 A 
ATOM     32  C   UNL     1       5.948   4.243  14.585  0.00  0.00    +0.000 A 
ATOM     33  H   UNL     1       8.431   6.049  15.461  0.00  0.00    +0.000 HD
ENDBRANCH  22  23
ENDBRANCH  21  22
ENDBRANCH   3  21
TORSDOF 4
ENDMDL
