MODEL 1
REMARK VINA RESULT:      -7.0      0.000      0.000
REMARK  Name = 
REMARK  4 active torsions:
REMARK  status: ('A' for Active; 'I' for Inactive)
REMARK    1  A    between atoms: C_2  and  C_13
REMARK    2  A    between atoms: N_3  and  C_4
REMARK    3  A    between atoms: C_4  and  C_5
REMARK    4  A    between atoms: C_5  and  C_6
REMARK                            x       y       z     vdW  Elec       q    Type
REMARK                         _______ _______ _______ _____ _____    ______ ____
ROOT
ATOM      1  O   UNL     1       7.504   6.426  16.424  0.00  0.00    +0.000 OA
ATOM      2  C   UNL     1       7.125   5.301  16.118  0.00  0.00    +0.000 C 
ATOM      3  N   UNL     1       6.751   4.351  17.051  0.00  0.00    +0.000 N 
ATOM      4  H   UNL     1       6.442   3.445  16.705  0.00  0.00    +0.000 HD
ENDROOT
BRANCH   2   5
ATOM      5  C   UNL     1       7.056   4.891  14.687  0.00  0.00    +0.000 A 
ATOM      6  C   UNL     1       6.161   3.894  14.315  0.00  0.00    +0.000 A 
ATOM      7  N   UNL     1       6.031   3.475  13.031  0.00  0.00    +0.000 NA
ATOM      8  C   UNL     1       6.836   4.095  12.140  0.00  0.00    +0.000 A 
ATOM      9  C   UNL     1       7.733   5.088  12.511  0.00  0.00    +0.000 A 
ATOM     10  N   UNL     1       7.872   5.518  13.790  0.00  0.00    +0.000 NA
ENDBRANCH   2   5
BRANCH   3  11
ATOM     11  C   UNL     1       6.810   4.659  18.468  0.00  0.00    +0.000 C 
BRANCH  11  12
ATOM     12  C   UNL     1       5.593   5.426  18.983  0.00  0.00    +0.000 C 
BRANCH  12  13
ATOM     13  C   UNL     1       4.321   4.611  18.891  0.00  0.00    +0.000 A 
ATOM     14  C   UNL     1       3.236   5.060  18.123  0.00  0.00    +0.000 A 
ATOM     15  C   UNL     1       2.060   4.307  18.048  0.00  0.00    +0.000 A 
ATOM     16  C   UNL     1       1.960   3.104  18.743  0.00  0.00    +0.000 A 
ATOM     17 CL   UNL     1       0.514   2.176  18.646  0.00  0.00    +0.000 Cl
ATOM     18  C   UNL     1       3.025   2.648  19.515  0.00  0.00    +0.000 A 
ATOM     19  C   UNL     1       4.200   3.402  19.592  0.00  0.00    +0.000 A 
ENDBRANCH  12  13
ENDBRANCH  11  12
ENDBRANCH   3  11
TORSDOF 4
ENDMDL
MODEL 2
REMARK VINA RESULT:      -6.9      1.662      1.909
REMARK  Name = 
REMARK  4 active torsions:
REMARK  status: ('A' for Active; 'I' for Inactive)
REMARK    1  A    between atoms: C_2  and  C_13
REMARK    2  A    between atoms: N_3  and  C_4
REMARK    3  A    between atoms: C_4  and  C_5
REMARK    4  A    between atoms: C_5  and  C_6
REMARK                            x       y       z     vdW  Elec       q    Type
REMARK                         _______ _______ _______ _____ _____    ______ ____
ROOT
ATOM      1  O   UNL     1       5.949   4.206  16.655  0.00  0.00    +0.000 OA
ATOM      2  C   UNL     1       6.076   5.104  15.830  0.00  0.00    +0.000 C 
ATOM      3  N   UNL     1       5.797   6.430  16.109  0.00  0.00    +0.000 N 
ATOM      4  H   UNL     1       5.940   7.108  15.364  0.00  0.00    +0.000 HD
ENDROOT
BRANCH   2   5
ATOM      5  C   UNL     1       6.545   4.798  14.449  0.00  0.00    +0.000 A 
ATOM      6  C   UNL     1       5.880   3.822  13.714  0.00  0.00    +0.000 A 
ATOM      7  N   UNL     1       6.239   3.495  12.447  0.00  0.00    +0.000 NA
ATOM      8  C   UNL     1       7.289   4.186  11.951  0.00  0.00    +0.000 A 
ATOM      9  C   UNL     1       7.955   5.159  12.685  0.00  0.00    +0.000 A 
ATOM     10  N   UNL     1       7.606   5.497  13.952  0.00  0.00    +0.000 NA
ENDBRANCH   2   5
BRANCH   3  11
ATOM     11  C   UNL     1       5.314   6.812  17.422  0.00  0.00    +0.000 C 
BRANCH  11  12
ATOM     12  C   UNL     1       3.812   7.094  17.469  0.00  0.00    +0.000 C 
BRANCH  12  13
ATOM     13  C   UNL     1       3.064   6.073  18.299  0.00  0.00    +0.000 A 
ATOM     14  C   UNL     1       2.664   4.850  17.742  0.00  0.00    +0.000 A 
ATOM     15  C   UNL     1       1.965   3.914  18.511  0.00  0.00    +0.000 A 
ATOM     16  C   UNL     1       1.659   4.197  19.840  0.00  0.00    +0.000 A 
ATOM     17 CL   UNL     1       0.803   3.043  20.787  0.00  0.00    +0.000 Cl
ATOM     18  C   UNL     1       2.043   5.410  20.407  0.00  0.00    +0.000 A 
ATOM     19  C   UNL     1       2.739   6.347  19.637  0.00  0.00    +0.000 A 
ENDBRANCH  12  13
ENDBRANCH  11  12
ENDBRANCH   3  11
TORSDOF 4
ENDMDL
MODEL 3
REMARK VINA RESULT:      -6.6      0.297      1.177
REMARK  Name = 
REMARK  4 active torsions:
REMARK  status: ('A' for Active; 'I' for Inactive)
REMARK    1  A    between atoms: C_2  and  C_13
REMARK    2  A    between atoms: N_3  and  C_4
REMARK    3  A    between atoms: C_4  and  C_5
REMARK    4  A    between atoms: C_5  and  C_6
REMARK                            x       y       z     vdW  Elec       q    Type
REMARK                         _______ _______ _______ _____ _____    ______ ____
ROOT
ATOM      1  O   UNL     1       6.484   6.529  16.318  0.00  0.00    +0.000 OA
ATOM      2  C   UNL     1       6.709   5.351  16.061  0.00  0.00    +0.000 C 
ATOM      3  N   UNL     1       6.875   4.384  17.036  0.00  0.00    +0.000 N 
ATOM      4  H   UNL     1       7.050   3.430  16.728  0.00  0.00    +0.000 HD
ENDROOT
BRANCH   2   5
ATOM      5  C   UNL     1       6.824   4.897  14.646  0.00  0.00    +0.000 A 
ATOM      6  C   UNL     1       5.995   3.875  14.198  0.00  0.00    +0.000 A 
ATOM      7  N   UNL     1       6.032   3.414  12.922  0.00  0.00    +0.000 NA
ATOM      8  C   UNL     1       6.934   4.020  12.119  0.00  0.00    +0.000 A 
ATOM      9  C   UNL     1       7.764   5.040  12.566  0.00  0.00    +0.000 A 
ATOM     10  N   UNL     1       7.736   5.511  13.838  0.00  0.00    +0.000 NA
ENDBRANCH   2   5
BRANCH   3  11
ATOM     11  C   UNL     1       6.801   4.745  18.439  0.00  0.00    +0.000 C 
BRANCH  11  12
ATOM     12  C   UNL     1       5.564   5.566  18.801  0.00  0.00    +0.000 C 
BRANCH  12  13
ATOM     13  C   UNL     1       4.300   4.735  18.784  0.00  0.00    +0.000 A 
ATOM     14  C   UNL     1       4.234   3.515  19.474  0.00  0.00    +0.000 A 
ATOM     15  C   UNL     1       3.066   2.747  19.449  0.00  0.00    +0.000 A 
ATOM     16  C   UNL     1       1.959   3.191  18.730  0.00  0.00    +0.000 A 
ATOM     17 CL   UNL     1       0.520   2.247  18.703  0.00  0.00    +0.000 Cl
ATOM     18  C   UNL     1       2.009   4.396  18.034  0.00  0.00    +0.000 A 
ATOM     19  C   UNL     1       3.178   5.163  18.058  0.00  0.00    +0.000 A 
ENDBRANCH  12  13
ENDBRANCH  11  12
ENDBRANCH   3  11
TORSDOF 4
ENDMDL
MODEL 4
REMARK VINA RESULT:      -6.6      1.403      1.860
REMARK  Name = 
REMARK  4 active torsions:
REMARK  status: ('A' for Active; 'I' for Inactive)
REMARK    1  A    between atoms: C_2  and  C_13
REMARK    2  A    between atoms: N_3  and  C_4
REMARK    3  A    between atoms: C_4  and  C_5
REMARK    4  A    between atoms: C_5  and  C_6
REMARK                            x       y       z     vdW  Elec       q    Type
REMARK                         _______ _______ _______ _____ _____    ______ ____
ROOT
ATOM      1  O   UNL     1       6.183   4.200  16.633  0.00  0.00    +0.000 OA
ATOM      2  C   UNL     1       6.246   5.096  15.799  0.00  0.00    +0.000 C 
ATOM      3  N   UNL     1       5.946   6.416  16.085  0.00  0.00    +0.000 N 
ATOM      4  H   UNL     1       6.034   7.093  15.331  0.00  0.00    +0.000 HD
ENDROOT
BRANCH   2   5
ATOM      5  C   UNL     1       6.651   4.794  14.397  0.00  0.00    +0.000 A 
ATOM      6  C   UNL     1       5.965   3.809  13.695  0.00  0.00    +0.000 A 
ATOM      7  N   UNL     1       6.266   3.485  12.413  0.00  0.00    +0.000 NA
ATOM      8  C   UNL     1       7.284   4.188  11.867  0.00  0.00    +0.000 A 
ATOM      9  C   UNL     1       7.972   5.170  12.568  0.00  0.00    +0.000 A 
ATOM     10  N   UNL     1       7.679   5.505  13.849  0.00  0.00    +0.000 NA
ENDBRANCH   2   5
BRANCH   3  11
ATOM     11  C   UNL     1       5.520   6.793  17.419  0.00  0.00    +0.000 C 
BRANCH  11  12
ATOM     12  C   UNL     1       4.005   6.933  17.566  0.00  0.00    +0.000 C 
BRANCH  12  13
ATOM     13  C   UNL     1       3.394   5.776  18.327  0.00  0.00    +0.000 A 
ATOM     14  C   UNL     1       4.098   5.150  19.366  0.00  0.00    +0.000 A 
ATOM     15  C   UNL     1       3.532   4.076  20.060  0.00  0.00    +0.000 A 
ATOM     16  C   UNL     1       2.261   3.620  19.718  0.00  0.00    +0.000 A 
ATOM     17 CL   UNL     1       1.563   2.302  20.575  0.00  0.00    +0.000 Cl
ATOM     18  C   UNL     1       1.552   4.227  18.684  0.00  0.00    +0.000 A 
ATOM     19  C   UNL     1       2.119   5.299  17.988  0.00  0.00    +0.000 A 
ENDBRANCH  12  13
ENDBRANCH  11  12
ENDBRANCH   3  11
TORSDOF 4
ENDMDL
MODEL 5
REMARK VINA RESULT:      -6.5      6.606      8.121
REMARK  Name = 
REMARK  4 active torsions:
REMARK  status: ('A' for Active; 'I' for Inactive)
REMARK    1  A    between atoms: C_2  and  C_13
REMARK    2  A    between atoms: N_3  and  C_4
REMARK    3  A    between atoms: C_4  and  C_5
REMARK    4  A    between atoms: C_5  and  C_6
REMARK                            x       y       z     vdW  Elec       q    Type
REMARK                         _______ _______ _______ _____ _____    ______ ____
ROOT
ATOM      1  O   UNL     1       8.000   6.449  19.031  0.00  0.00    +0.000 OA
ATOM      2  C   UNL     1       7.651   6.767  17.900  0.00  0.00    +0.000 C 
ATOM      3  N   UNL     1       7.812   8.043  17.392  0.00  0.00    +0.000 N 
ATOM      4  H   UNL     1       7.499   8.214  16.439  0.00  0.00    +0.000 HD
ENDROOT
BRANCH   2   5
ATOM      5  C   UNL     1       7.013   5.767  16.998  0.00  0.00    +0.000 A 
ATOM      6  C   UNL     1       6.011   4.947  17.506  0.00  0.00    +0.000 A 
ATOM      7  N   UNL     1       5.373   4.021  16.745  0.00  0.00    +0.000 NA
ATOM      8  C   UNL     1       5.784   3.952  15.460  0.00  0.00    +0.000 A 
ATOM      9  C   UNL     1       6.787   4.769  14.953  0.00  0.00    +0.000 A 
ATOM     10  N   UNL     1       7.431   5.700  15.701  0.00  0.00    +0.000 NA
ENDBRANCH   2   5
BRANCH   3  11
ATOM     11  C   UNL     1       8.403   9.085  18.211  0.00  0.00    +0.000 C 
BRANCH  11  12
ATOM     12  C   UNL     1       8.140  10.499  17.695  0.00  0.00    +0.000 C 
BRANCH  12  13
ATOM     13  C   UNL     1       9.186  11.486  18.170  0.00  0.00    +0.000 A 
ATOM     14  C   UNL     1       9.080  12.849  17.857  0.00  0.00    +0.000 A 
ATOM     15  C   UNL     1      10.052  13.755  18.292  0.00  0.00    +0.000 A 
ATOM     16  C   UNL     1      11.138  13.303  19.038  0.00  0.00    +0.000 A 
ATOM     17 CL   UNL     1      12.332  14.419  19.577  0.00  0.00    +0.000 Cl
ATOM     18  C   UNL     1      11.262  11.951  19.352  0.00  0.00    +0.000 A 
ATOM     19  C   UNL     1      10.290  11.045  18.915  0.00  0.00    +0.000 A 
ENDBRANCH  12  13
ENDBRANCH  11  12
ENDBRANCH   3  11
TORSDOF 4
ENDMDL
MODEL 6
REMARK VINA RESULT:      -6.4      3.118      4.168
REMARK  Name = 
REMARK  4 active torsions:
REMARK  status: ('A' for Active; 'I' for Inactive)
REMARK    1  A    between atoms: C_2  and  C_13
REMARK    2  A    between atoms: N_3  and  C_4
REMARK    3  A    between atoms: C_4  and  C_5
REMARK    4  A    between atoms: C_5  and  C_6
REMARK                            x       y       z     vdW  Elec       q    Type
REMARK                         _______ _______ _______ _____ _____    ______ ____
ROOT
ATOM      1  O   UNL     1       4.768   3.812  16.029  0.00  0.00    +0.000 OA
ATOM      2  C   UNL     1       5.109   3.940  17.200  0.00  0.00    +0.000 C 
ATOM      3  N   UNL     1       4.570   3.190  18.229  0.00  0.00    +0.000 N 
ATOM      4  H   UNL     1       4.919   3.360  19.170  0.00  0.00    +0.000 HD
ENDROOT
BRANCH   2   5
ATOM      5  C   UNL     1       6.143   4.944  17.579  0.00  0.00    +0.000 A 
ATOM      6  C   UNL     1       6.522   5.904  16.647  0.00  0.00    +0.000 A 
ATOM      7  N   UNL     1       7.447   6.858  16.920  0.00  0.00    +0.000 NA
ATOM      8  C   UNL     1       7.975   6.807  18.163  0.00  0.00    +0.000 A 
ATOM      9  C   UNL     1       7.599   5.847  19.094  0.00  0.00    +0.000 A 
ATOM     10  N   UNL     1       6.674   4.889  18.835  0.00  0.00    +0.000 NA
ENDBRANCH   2   5
BRANCH   3  11
ATOM     11  C   UNL     1       3.540   2.206  17.951  0.00  0.00    +0.000 C 
BRANCH  11  12
ATOM     12  C   UNL     1       2.129   2.791  17.890  0.00  0.00    +0.000 C 
BRANCH  12  13
ATOM     13  C   UNL     1       2.018   4.099  18.644  0.00  0.00    +0.000 A 
ATOM     14  C   UNL     1       2.180   5.324  17.981  0.00  0.00    +0.000 A 
ATOM     15  C   UNL     1       2.084   6.530  18.683  0.00  0.00    +0.000 A 
ATOM     16  C   UNL     1       1.831   6.517  20.053  0.00  0.00    +0.000 A 
ATOM     17 CL   UNL     1       1.709   8.001  20.916  0.00  0.00    +0.000 Cl
ATOM     18  C   UNL     1       1.675   5.309  20.727  0.00  0.00    +0.000 A 
ATOM     19  C   UNL     1       1.773   4.103  20.025  0.00  0.00    +0.000 A 
ENDBRANCH  12  13
ENDBRANCH  11  12
ENDBRANCH   3  11
TORSDOF 4
ENDMDL
MODEL 7
REMARK VINA RESULT:      -6.4      5.615      7.644
REMARK  Name = 
REMARK  4 active torsions:
REMARK  status: ('A' for Active; 'I' for Inactive)
REMARK    1  A    between atoms: C_2  and  C_13
REMARK    2  A    between atoms: N_3  and  C_4
REMARK    3  A    between atoms: C_4  and  C_5
REMARK    4  A    between atoms: C_5  and  C_6
REMARK                            x       y       z     vdW  Elec       q    Type
REMARK                         _______ _______ _______ _____ _____    ______ ____
ROOT
ATOM      1  O   UNL     1       7.422   5.371  20.041  0.00  0.00    +0.000 OA
ATOM      2  C   UNL     1       6.728   5.579  19.052  0.00  0.00    +0.000 C 
ATOM      3  N   UNL     1       6.992   6.587  18.143  0.00  0.00    +0.000 N 
ATOM      4  H   UNL     1       6.365   6.680  17.347  0.00  0.00    +0.000 HD
ENDROOT
BRANCH   2   5
ATOM      5  C   UNL     1       5.530   4.735  18.781  0.00  0.00    +0.000 A 
ATOM      6  C   UNL     1       4.629   5.141  17.803  0.00  0.00    +0.000 A 
ATOM      7  N   UNL     1       3.522   4.422  17.490  0.00  0.00    +0.000 NA
ATOM      8  C   UNL     1       3.357   3.283  18.198  0.00  0.00    +0.000 A 
ATOM      9  C   UNL     1       4.255   2.878  19.177  0.00  0.00    +0.000 A 
ATOM     10  N   UNL     1       5.367   3.586  19.499  0.00  0.00    +0.000 NA
ENDBRANCH   2   5
BRANCH   3  11
ATOM     11  C   UNL     1       8.126   7.470  18.344  0.00  0.00    +0.000 C 
BRANCH  11  12
ATOM     12  C   UNL     1       8.041   8.772  17.547  0.00  0.00    +0.000 C 
BRANCH  12  13
ATOM     13  C   UNL     1       8.623   9.946  18.305  0.00  0.00    +0.000 A 
ATOM     14  C   UNL     1       8.678  11.220  17.721  0.00  0.00    +0.000 A 
ATOM     15  C   UNL     1       9.224  12.300  18.423  0.00  0.00    +0.000 A 
ATOM     16  C   UNL     1       9.722  12.111  19.710  0.00  0.00    +0.000 A 
ATOM     17 CL   UNL     1      10.390  13.440  20.575  0.00  0.00    +0.000 Cl
ATOM     18  C   UNL     1       9.681  10.851  20.301  0.00  0.00    +0.000 A 
ATOM     19  C   UNL     1       9.137   9.771  19.599  0.00  0.00    +0.000 A 
ENDBRANCH  12  13
ENDBRANCH  11  12
ENDBRANCH   3  11
TORSDOF 4
ENDMDL
MODEL 8
REMARK VINA RESULT:      -6.4      2.961      3.581
REMARK  Name = 
REMARK  4 active torsions:
REMARK  status: ('A' for Active; 'I' for Inactive)
REMARK    1  A    between atoms: C_2  and  C_13
REMARK    2  A    between atoms: N_3  and  C_4
REMARK    3  A    between atoms: C_4  and  C_5
REMARK    4  A    between atoms: C_5  and  C_6
REMARK                            x       y       z     vdW  Elec       q    Type
REMARK                         _______ _______ _______ _____ _____    ______ ____
ROOT
ATOM      1  O   UNL     1       7.413   4.714  16.914  0.00  0.00    +0.000 OA
ATOM      2  C   UNL     1       6.619   5.108  16.068  0.00  0.00    +0.000 C 
ATOM      3  N   UNL     1       5.482   5.832  16.378  0.00  0.00    +0.000 N 
ATOM      4  H   UNL     1       4.883   6.124  15.609  0.00  0.00    +0.000 HD
ENDROOT
BRANCH   2   5
ATOM      5  C   UNL     1       6.844   4.810  14.625  0.00  0.00    +0.000 A 
ATOM      6  C   UNL     1       6.064   3.838  14.009  0.00  0.00    +0.000 A 
ATOM      7  N   UNL     1       6.201   3.518  12.698  0.00  0.00    +0.000 NA
ATOM      8  C   UNL     1       7.152   4.212  12.034  0.00  0.00    +0.000 A 
ATOM      9  C   UNL     1       7.933   5.181  12.648  0.00  0.00    +0.000 A 
ATOM     10  N   UNL     1       7.806   5.512  13.958  0.00  0.00    +0.000 NA
ENDBRANCH   2   5
BRANCH   3  11
ATOM     11  C   UNL     1       5.173   6.146  17.761  0.00  0.00    +0.000 C 
BRANCH  11  12
ATOM     12  C   UNL     1       3.763   5.738  18.186  0.00  0.00    +0.000 C 
BRANCH  12  13
ATOM     13  C   UNL     1       2.922   6.928  18.596  0.00  0.00    +0.000 A 
ATOM     14  C   UNL     1       2.318   6.978  19.861  0.00  0.00    +0.000 A 
ATOM     15  C   UNL     1       1.536   8.076  20.232  0.00  0.00    +0.000 A 
ATOM     16  C   UNL     1       1.349   9.128  19.339  0.00  0.00    +0.000 A 
ATOM     17 CL   UNL     1       0.390  10.482  19.797  0.00  0.00    +0.000 Cl
ATOM     18  C   UNL     1       1.936   9.092  18.076  0.00  0.00    +0.000 A 
ATOM     19  C   UNL     1       2.716   7.992  17.705  0.00  0.00    +0.000 A 
ENDBRANCH  12  13
ENDBRANCH  11  12
ENDBRANCH   3  11
TORSDOF 4
ENDMDL
MODEL 9
REMARK VINA RESULT:      -6.4      3.284      4.274
REMARK  Name = 
REMARK  4 active torsions:
REMARK  status: ('A' for Active; 'I' for Inactive)
REMARK    1  A    between atoms: C_2  and  C_13
REMARK    2  A    between atoms: N_3  and  C_4
REMARK    3  A    between atoms: C_4  and  C_5
REMARK    4  A    between atoms: C_5  and  C_6
REMARK                            x       y       z     vdW  Elec       q    Type
REMARK                         _______ _______ _______ _____ _____    ______ ____
ROOT
ATOM      1  O   UNL     1       5.239   3.203  19.727  0.00  0.00    +0.000 OA
ATOM      2  C   UNL     1       5.250   3.735  18.622  0.00  0.00    +0.000 C 
ATOM      3  N   UNL     1       4.447   3.320  17.576  0.00  0.00    +0.000 N 
ATOM      4  H   UNL     1       4.519   3.827  16.697  0.00  0.00    +0.000 HD
ENDROOT
BRANCH   2   5
ATOM      5  C   UNL     1       6.162   4.882  18.348  0.00  0.00    +0.000 A 
ATOM      6  C   UNL     1       5.961   5.640  17.199  0.00  0.00    +0.000 A 
ATOM      7  N   UNL     1       6.740   6.706  16.886  0.00  0.00    +0.000 NA
ATOM      8  C   UNL     1       7.726   6.977  17.770  0.00  0.00    +0.000 A 
ATOM      9  C   UNL     1       7.929   6.219  18.916  0.00  0.00    +0.000 A 
ATOM     10  N   UNL     1       7.156   5.152  19.242  0.00  0.00    +0.000 NA
ENDBRANCH   2   5
BRANCH   3  11
ATOM     11  C   UNL     1       3.547   2.195  17.751  0.00  0.00    +0.000 C 
BRANCH  11  12
ATOM     12  C   UNL     1       2.096   2.601  18.004  0.00  0.00    +0.000 C 
BRANCH  12  13
ATOM     13  C   UNL     1       1.989   3.944  18.694  0.00  0.00    +0.000 A 
ATOM     14  C   UNL     1       2.107   5.136  17.963  0.00  0.00    +0.000 A 
ATOM     15  C   UNL     1       2.015   6.375  18.606  0.00  0.00    +0.000 A 
ATOM     16  C   UNL     1       1.810   6.429  19.983  0.00  0.00    +0.000 A 
ATOM     17 CL   UNL     1       1.692   7.953  20.773  0.00  0.00    +0.000 Cl
ATOM     18  C   UNL     1       1.697   5.255  20.724  0.00  0.00    +0.000 A 
ATOM     19  C   UNL     1       1.791   4.016  20.081  0.00  0.00    +0.000 A 
ENDBRANCH  12  13
ENDBRANCH  11  12
ENDBRANCH   3  11
TORSDOF 4
ENDMDL
