MODEL 1
REMARK VINA RESULT:      -7.8      0.000      0.000
REMARK  Name = 
REMARK  8 active torsions:
REMARK  status: ('A' for Active; 'I' for Inactive)
REMARK    1  A    between atoms: C_1  and  C_2
REMARK    2  A    between atoms: C_6  and  N_7
REMARK    3  A    between atoms: C_8  and  C_10
REMARK    4  A    between atoms: C_15  and  N_16
REMARK    5  A    between atoms: C_17  and  C_19
REMARK    6  A    between atoms: C_19  and  C_20
REMARK    7  A    between atoms: C_19  and  C_21
REMARK    8  A    between atoms: C_19  and  C_22
REMARK                            x       y       z     vdW  Elec       q    Type
REMARK                         _______ _______ _______ _____ _____    ______ ____
ROOT
ATOM      1  C   UNL     1       4.151   6.169  17.307  0.00  0.00    +0.000 A 
ATOM      2  C   UNL     1       4.868   6.891  16.331  0.00  0.00    +0.000 A 
ATOM      3  C   UNL     1       5.571   6.242  15.318  0.00  0.00    +0.000 A 
ATOM      4  C   UNL     1       5.538   4.858  15.242  0.00  0.00    +0.000 A 
ATOM      5  C   UNL     1       4.816   4.130  16.183  0.00  0.00    +0.000 A 
ATOM      6  C   UNL     1       4.123   4.746  17.238  0.00  0.00    +0.000 A 
ENDROOT
BRANCH   1   8
ATOM      7  N   UNL     1       2.762   8.099  17.881  0.00  0.00    +0.000 N 
ATOM      8  C   UNL     1       3.393   6.947  18.346  0.00  0.00    +0.000 C 
ATOM      9  O   UNL     1       3.420   6.544  19.502  0.00  0.00    +0.000 OA
ATOM     10  H   UNL     1       3.059   8.485  16.999  0.00  0.00    +0.000 HD
BRANCH   7  16
ATOM     11  C   UNL     1       0.358   9.027  21.942  0.00  0.00    +0.000 C 
ATOM     12  C   UNL     1       0.555   9.312  20.483  0.00  0.00    +0.000 A 
ATOM     13  C   UNL     1      -0.342  10.117  19.792  0.00  0.00    +0.000 A 
ATOM     14  C   UNL     1      -0.180  10.251  18.420  0.00  0.00    +0.000 A 
ATOM     15  C   UNL     1       0.862   9.570  17.786  0.00  0.00    +0.000 A 
ATOM     16  C   UNL     1       1.744   8.805  18.551  0.00  0.00    +0.000 A 
ATOM     17  N   UNL     1       1.586   8.670  19.878  0.00  0.00    +0.000 NA
ENDBRANCH   7  16
ENDBRANCH   1   8
BRANCH   6  18
ATOM     18  N   UNL     1       3.421   3.957  18.196  0.00  0.00    +0.000 N 
ATOM     19  C   UNL     1       2.040   3.744  18.228  0.00  0.00    +0.000 C 
ATOM     20  O   UNL     1       1.250   4.172  17.386  0.00  0.00    +0.000 OA
ATOM     21  H   UNL     1       4.016   3.462  18.861  0.00  0.00    +0.000 HD
BRANCH  19  22
ATOM     22  C   UNL     1       1.513   2.875  19.390  0.00  0.00    +0.000 C 
ATOM     23  C   UNL     1       0.456   1.891  18.875  0.00  0.00    +0.000 C 
ATOM     24  C   UNL     1       2.676   2.053  20.000  0.00  0.00    +0.000 C 
ATOM     25  C   UNL     1       0.945   3.772  20.497  0.00  0.00    +0.000 C 
ENDBRANCH  19  22
ENDBRANCH   6  18
TORSDOF 4
ENDMDL
MODEL 2
REMARK VINA RESULT:      -7.8      1.949      4.728
REMARK  Name = 
REMARK  8 active torsions:
REMARK  status: ('A' for Active; 'I' for Inactive)
REMARK    1  A    between atoms: C_1  and  C_2
REMARK    2  A    between atoms: C_6  and  N_7
REMARK    3  A    between atoms: C_8  and  C_10
REMARK    4  A    between atoms: C_15  and  N_16
REMARK    5  A    between atoms: C_17  and  C_19
REMARK    6  A    between atoms: C_19  and  C_20
REMARK    7  A    between atoms: C_19  and  C_21
REMARK    8  A    between atoms: C_19  and  C_22
REMARK                            x       y       z     vdW  Elec       q    Type
REMARK                         _______ _______ _______ _____ _____    ______ ____
ROOT
ATOM      1  C   UNL     1       2.741   4.851  20.139  0.00  0.00    +0.000 A 
ATOM      2  C   UNL     1       2.004   4.169  21.129  0.00  0.00    +0.000 A 
ATOM      3  C   UNL     1       2.347   2.878  21.528  0.00  0.00    +0.000 A 
ATOM      4  C   UNL     1       3.455   2.261  20.969  0.00  0.00    +0.000 A 
ATOM      5  C   UNL     1       4.208   2.930  20.007  0.00  0.00    +0.000 A 
ATOM      6  C   UNL     1       3.875   4.217  19.556  0.00  0.00    +0.000 A 
ENDROOT
BRANCH   1   8
ATOM      7  N   UNL     1       1.467   6.862  20.706  0.00  0.00    +0.000 N 
ATOM      8  C   UNL     1       2.324   6.254  19.792  0.00  0.00    +0.000 C 
ATOM      9  O   UNL     1       2.727   6.730  18.737  0.00  0.00    +0.000 OA
ATOM     10  H   UNL     1       0.971   6.278  21.361  0.00  0.00    +0.000 HD
BRANCH   7  16
ATOM     11  C   UNL     1       1.366  11.187  18.604  0.00  0.00    +0.000 C 
ATOM     12  C   UNL     1       1.112  10.357  19.827  0.00  0.00    +0.000 A 
ATOM     13  C   UNL     1       0.786  10.959  21.037  0.00  0.00    +0.000 A 
ATOM     14  C   UNL     1       0.679  10.154  22.162  0.00  0.00    +0.000 A 
ATOM     15  C   UNL     1       0.911   8.781  22.044  0.00  0.00    +0.000 A 
ATOM     16  C   UNL     1       1.201   8.242  20.789  0.00  0.00    +0.000 A 
ATOM     17  N   UNL     1       1.310   9.020  19.699  0.00  0.00    +0.000 NA
ENDBRANCH   7  16
ENDBRANCH   1   8
BRANCH   6  18
ATOM     18  N   UNL     1       4.659   4.852  18.547  0.00  0.00    +0.000 N 
ATOM     19  C   UNL     1       5.958   5.339  18.706  0.00  0.00    +0.000 C 
ATOM     20  O   UNL     1       6.622   5.231  19.738  0.00  0.00    +0.000 OA
ATOM     21  H   UNL     1       4.229   4.872  17.622  0.00  0.00    +0.000 HD
BRANCH  19  22
ATOM     22  C   UNL     1       6.585   6.018  17.468  0.00  0.00    +0.000 C 
ATOM     23  C   UNL     1       7.643   7.038  17.906  0.00  0.00    +0.000 C 
ATOM     24  C   UNL     1       7.282   4.955  16.583  0.00  0.00    +0.000 C 
ATOM     25  C   UNL     1       5.489   6.681  16.625  0.00  0.00    +0.000 C 
ENDBRANCH  19  22
ENDBRANCH   6  18
TORSDOF 4
ENDMDL
MODEL 3
REMARK VINA RESULT:      -7.8      1.632      2.079
REMARK  Name = 
REMARK  8 active torsions:
REMARK  status: ('A' for Active; 'I' for Inactive)
REMARK    1  A    between atoms: C_1  and  C_2
REMARK    2  A    between atoms: C_6  and  N_7
REMARK    3  A    between atoms: C_8  and  C_10
REMARK    4  A    between atoms: C_15  and  N_16
REMARK    5  A    between atoms: C_17  and  C_19
REMARK    6  A    between atoms: C_19  and  C_20
REMARK    7  A    between atoms: C_19  and  C_21
REMARK    8  A    between atoms: C_19  and  C_22
REMARK                            x       y       z     vdW  Elec       q    Type
REMARK                         _______ _______ _______ _____ _____    ______ ____
ROOT
ATOM      1  C   UNL     1       3.750   6.565  17.459  0.00  0.00    +0.000 A 
ATOM      2  C   UNL     1       4.684   7.130  16.568  0.00  0.00    +0.000 A 
ATOM      3  C   UNL     1       5.506   6.330  15.776  0.00  0.00    +0.000 A 
ATOM      4  C   UNL     1       5.380   4.950  15.834  0.00  0.00    +0.000 A 
ATOM      5  C   UNL     1       4.445   4.377  16.692  0.00  0.00    +0.000 A 
ATOM      6  C   UNL     1       3.623   5.148  17.530  0.00  0.00    +0.000 A 
ENDROOT
BRANCH   1   8
ATOM      7  N   UNL     1       2.602   8.719  17.639  0.00  0.00    +0.000 N 
ATOM      8  C   UNL     1       2.879   7.500  18.254  0.00  0.00    +0.000 C 
ATOM      9  O   UNL     1       2.522   7.145  19.370  0.00  0.00    +0.000 OA
ATOM     10  H   UNL     1       3.189   9.015  16.875  0.00  0.00    +0.000 HD
BRANCH   7  16
ATOM     11  C   UNL     1      -2.066   9.875  17.626  0.00  0.00    +0.000 C 
ATOM     12  C   UNL     1      -0.669  10.216  18.051  0.00  0.00    +0.000 A 
ATOM     13  C   UNL     1      -0.387  11.444  18.638  0.00  0.00    +0.000 A 
ATOM     14  C   UNL     1       0.939  11.755  18.902  0.00  0.00    +0.000 A 
ATOM     15  C   UNL     1       1.936  10.837  18.562  0.00  0.00    +0.000 A 
ATOM     16  C   UNL     1       1.575   9.609  18.006  0.00  0.00    +0.000 A 
ATOM     17  N   UNL     1       0.292   9.307  17.745  0.00  0.00    +0.000 NA
ENDBRANCH   7  16
ENDBRANCH   1   8
BRANCH   6  18
ATOM     18  N   UNL     1       2.701   4.515  18.414  0.00  0.00    +0.000 N 
ATOM     19  C   UNL     1       3.032   3.667  19.473  0.00  0.00    +0.000 C 
ATOM     20  O   UNL     1       4.183   3.397  19.817  0.00  0.00    +0.000 OA
ATOM     21  H   UNL     1       1.726   4.783  18.277  0.00  0.00    +0.000 HD
BRANCH  19  22
ATOM     22  C   UNL     1       1.845   3.077  20.268  0.00  0.00    +0.000 C 
ATOM     23  C   UNL     1       2.323   2.588  21.640  0.00  0.00    +0.000 C 
ATOM     24  C   UNL     1       0.772   4.170  20.496  0.00  0.00    +0.000 C 
ATOM     25  C   UNL     1       1.194   1.942  19.469  0.00  0.00    +0.000 C 
ENDBRANCH  19  22
ENDBRANCH   6  18
TORSDOF 4
ENDMDL
MODEL 4
REMARK VINA RESULT:      -7.7      1.803      4.534
REMARK  Name = 
REMARK  8 active torsions:
REMARK  status: ('A' for Active; 'I' for Inactive)
REMARK    1  A    between atoms: C_1  and  C_2
REMARK    2  A    between atoms: C_6  and  N_7
REMARK    3  A    between atoms: C_8  and  C_10
REMARK    4  A    between atoms: C_15  and  N_16
REMARK    5  A    between atoms: C_17  and  C_19
REMARK    6  A    between atoms: C_19  and  C_20
REMARK    7  A    between atoms: C_19  and  C_21
REMARK    8  A    between atoms: C_19  and  C_22
REMARK                            x       y       z     vdW  Elec       q    Type
REMARK                         _______ _______ _______ _____ _____    ______ ____
ROOT
ATOM      1  C   UNL     1       2.722   4.239  19.815  0.00  0.00    +0.000 A 
ATOM      2  C   UNL     1       1.996   3.626  20.856  0.00  0.00    +0.000 A 
ATOM      3  C   UNL     1       2.483   2.498  21.513  0.00  0.00    +0.000 A 
ATOM      4  C   UNL     1       3.723   1.986  21.166  0.00  0.00    +0.000 A 
ATOM      5  C   UNL     1       4.465   2.594  20.156  0.00  0.00    +0.000 A 
ATOM      6  C   UNL     1       3.993   3.711  19.447  0.00  0.00    +0.000 A 
ENDROOT
BRANCH   1   8
ATOM      7  N   UNL     1       2.031   6.578  20.020  0.00  0.00    +0.000 N 
ATOM      8  C   UNL     1       2.140   5.472  19.180  0.00  0.00    +0.000 C 
ATOM      9  O   UNL     1       1.776   5.402  18.012  0.00  0.00    +0.000 OA
ATOM     10  H   UNL     1       2.074   6.428  21.017  0.00  0.00    +0.000 HD
BRANCH   7  16
ATOM     11  C   UNL     1       0.052  10.896  20.773  0.00  0.00    +0.000 C 
ATOM     12  C   UNL     1       0.925  10.025  19.921  0.00  0.00    +0.000 A 
ATOM     13  C   UNL     1       1.384  10.471  18.687  0.00  0.00    +0.000 A 
ATOM     14  C   UNL     1       2.087   9.581  17.887  0.00  0.00    +0.000 A 
ATOM     15  C   UNL     1       2.298   8.277  18.340  0.00  0.00    +0.000 A 
ATOM     16  C   UNL     1       1.837   7.909  19.605  0.00  0.00    +0.000 A 
ATOM     17  N   UNL     1       1.152   8.767  20.379  0.00  0.00    +0.000 NA
ENDBRANCH   7  16
ENDBRANCH   1   8
BRANCH   6  18
ATOM     18  N   UNL     1       4.774   4.282  18.401  0.00  0.00    +0.000 N 
ATOM     19  C   UNL     1       5.901   5.092  18.568  0.00  0.00    +0.000 C 
ATOM     20  O   UNL     1       6.401   5.373  19.658  0.00  0.00    +0.000 OA
ATOM     21  H   UNL     1       4.502   3.998  17.460  0.00  0.00    +0.000 HD
BRANCH  19  22
ATOM     22  C   UNL     1       6.558   5.618  17.273  0.00  0.00    +0.000 C 
ATOM     23  C   UNL     1       5.479   6.082  16.287  0.00  0.00    +0.000 C 
ATOM     24  C   UNL     1       7.463   6.832  17.600  0.00  0.00    +0.000 C 
ATOM     25  C   UNL     1       7.443   4.528  16.656  0.00  0.00    +0.000 C 
ENDBRANCH  19  22
ENDBRANCH   6  18
TORSDOF 4
ENDMDL
MODEL 5
REMARK VINA RESULT:      -7.7      1.568      1.984
REMARK  Name = 
REMARK  8 active torsions:
REMARK  status: ('A' for Active; 'I' for Inactive)
REMARK    1  A    between atoms: C_1  and  C_2
REMARK    2  A    between atoms: C_6  and  N_7
REMARK    3  A    between atoms: C_8  and  C_10
REMARK    4  A    between atoms: C_15  and  N_16
REMARK    5  A    between atoms: C_17  and  C_19
REMARK    6  A    between atoms: C_19  and  C_20
REMARK    7  A    between atoms: C_19  and  C_21
REMARK    8  A    between atoms: C_19  and  C_22
REMARK                            x       y       z     vdW  Elec       q    Type
REMARK                         _______ _______ _______ _____ _____    ______ ____
ROOT
ATOM      1  C   UNL     1       3.887   6.395  17.326  0.00  0.00    +0.000 A 
ATOM      2  C   UNL     1       4.830   6.897  16.406  0.00  0.00    +0.000 A 
ATOM      3  C   UNL     1       5.588   6.043  15.606  0.00  0.00    +0.000 A 
ATOM      4  C   UNL     1       5.389   4.674  15.687  0.00  0.00    +0.000 A 
ATOM      5  C   UNL     1       4.446   4.163  16.574  0.00  0.00    +0.000 A 
ATOM      6  C   UNL     1       3.686   4.988  17.419  0.00  0.00    +0.000 A 
ENDROOT
BRANCH   1   8
ATOM      7  N   UNL     1       2.853   8.606  17.497  0.00  0.00    +0.000 N 
ATOM      8  C   UNL     1       3.087   7.386  18.126  0.00  0.00    +0.000 C 
ATOM      9  O   UNL     1       2.745   7.069  19.259  0.00  0.00    +0.000 OA
ATOM     10  H   UNL     1       3.431   8.859  16.711  0.00  0.00    +0.000 HD
BRANCH   7  16
ATOM     11  C   UNL     1       1.778  12.915  19.344  0.00  0.00    +0.000 C 
ATOM     12  C   UNL     1       1.295  11.629  18.743  0.00  0.00    +0.000 A 
ATOM     13  C   UNL     1      -0.060  11.323  18.719  0.00  0.00    +0.000 A 
ATOM     14  C   UNL     1      -0.442  10.069  18.261  0.00  0.00    +0.000 A 
ATOM     15  C   UNL     1       0.541   9.163  17.855  0.00  0.00    +0.000 A 
ATOM     16  C   UNL     1       1.881   9.552  17.876  0.00  0.00    +0.000 A 
ATOM     17  N   UNL     1       2.253  10.763  18.323  0.00  0.00    +0.000 NA
ENDBRANCH   7  16
ENDBRANCH   1   8
BRANCH   6  18
ATOM     18  N   UNL     1       2.752   4.418  18.333  0.00  0.00    +0.000 N 
ATOM     19  C   UNL     1       3.066   3.610  19.428  0.00  0.00    +0.000 C 
ATOM     20  O   UNL     1       4.212   3.330  19.782  0.00  0.00    +0.000 OA
ATOM     21  H   UNL     1       1.783   4.702  18.186  0.00  0.00    +0.000 HD
BRANCH  19  22
ATOM     22  C   UNL     1       1.869   3.085  20.251  0.00  0.00    +0.000 C 
ATOM     23  C   UNL     1       2.342   2.626  21.635  0.00  0.00    +0.000 C 
ATOM     24  C   UNL     1       0.832   4.219  20.451  0.00  0.00    +0.000 C 
ATOM     25  C   UNL     1       1.175   1.946  19.495  0.00  0.00    +0.000 C 
ENDBRANCH  19  22
ENDBRANCH   6  18
TORSDOF 4
ENDMDL
MODEL 6
REMARK VINA RESULT:      -7.5      1.344      1.532
REMARK  Name = 
REMARK  8 active torsions:
REMARK  status: ('A' for Active; 'I' for Inactive)
REMARK    1  A    between atoms: C_1  and  C_2
REMARK    2  A    between atoms: C_6  and  N_7
REMARK    3  A    between atoms: C_8  and  C_10
REMARK    4  A    between atoms: C_15  and  N_16
REMARK    5  A    between atoms: C_17  and  C_19
REMARK    6  A    between atoms: C_19  and  C_20
REMARK    7  A    between atoms: C_19  and  C_21
REMARK    8  A    between atoms: C_19  and  C_22
REMARK                            x       y       z     vdW  Elec       q    Type
REMARK                         _______ _______ _______ _____ _____    ______ ____
ROOT
ATOM      1  C   UNL     1       3.601   6.707  17.674  0.00  0.00    +0.000 A 
ATOM      2  C   UNL     1       4.506   7.392  16.838  0.00  0.00    +0.000 A 
ATOM      3  C   UNL     1       5.366   6.706  15.983  0.00  0.00    +0.000 A 
ATOM      4  C   UNL     1       5.309   5.322  15.921  0.00  0.00    +0.000 A 
ATOM      5  C   UNL     1       4.405   4.630  16.723  0.00  0.00    +0.000 A 
ATOM      6  C   UNL     1       3.546   5.284  17.621  0.00  0.00    +0.000 A 
ENDROOT
BRANCH   1   8
ATOM      7  N   UNL     1       2.226   8.708  17.971  0.00  0.00    +0.000 N 
ATOM      8  C   UNL     1       2.686   7.525  18.543  0.00  0.00    +0.000 C 
ATOM      9  O   UNL     1       2.452   7.119  19.675  0.00  0.00    +0.000 OA
ATOM     10  H   UNL     1       2.718   9.079  17.173  0.00  0.00    +0.000 HD
BRANCH   7  16
ATOM     11  C   UNL     1       0.111  11.231  21.477  0.00  0.00    +0.000 C 
ATOM     12  C   UNL     1       0.062  10.714  20.071  0.00  0.00    +0.000 A 
ATOM     13  C   UNL     1      -1.094  10.841  19.309  0.00  0.00    +0.000 A 
ATOM     14  C   UNL     1      -1.125  10.239  18.059  0.00  0.00    +0.000 A 
ATOM     15  C   UNL     1      -0.009   9.524  17.618  0.00  0.00    +0.000 A 
ATOM     16  C   UNL     1       1.130   9.467  18.424  0.00  0.00    +0.000 A 
ATOM     17  N   UNL     1       1.160  10.045  19.636  0.00  0.00    +0.000 NA
ENDBRANCH   7  16
ENDBRANCH   1   8
BRANCH   6  18
ATOM     18  N   UNL     1       2.657   4.532  18.444  0.00  0.00    +0.000 N 
ATOM     19  C   UNL     1       3.024   3.727  19.525  0.00  0.00    +0.000 C 
ATOM     20  O   UNL     1       4.176   3.607  19.945  0.00  0.00    +0.000 OA
ATOM     21  H   UNL     1       1.667   4.673  18.242  0.00  0.00    +0.000 HD
BRANCH  19  22
ATOM     22  C   UNL     1       1.874   2.985  20.241  0.00  0.00    +0.000 C 
ATOM     23  C   UNL     1       0.664   3.913  20.396  0.00  0.00    +0.000 C 
ATOM     24  C   UNL     1       1.435   1.761  19.399  0.00  0.00    +0.000 C 
ATOM     25  C   UNL     1       2.355   2.467  21.602  0.00  0.00    +0.000 C 
ENDBRANCH  19  22
ENDBRANCH   6  18
TORSDOF 4
ENDMDL
MODEL 7
REMARK VINA RESULT:      -7.5      1.769      4.131
REMARK  Name = 
REMARK  8 active torsions:
REMARK  status: ('A' for Active; 'I' for Inactive)
REMARK    1  A    between atoms: C_1  and  C_2
REMARK    2  A    between atoms: C_6  and  N_7
REMARK    3  A    between atoms: C_8  and  C_10
REMARK    4  A    between atoms: C_15  and  N_16
REMARK    5  A    between atoms: C_17  and  C_19
REMARK    6  A    between atoms: C_19  and  C_20
REMARK    7  A    between atoms: C_19  and  C_21
REMARK    8  A    between atoms: C_19  and  C_22
REMARK                            x       y       z     vdW  Elec       q    Type
REMARK                         _______ _______ _______ _____ _____    ______ ____
ROOT
ATOM      1  C   UNL     1       2.161   4.496  19.092  0.00  0.00    +0.000 A 
ATOM      2  C   UNL     1       1.069   3.708  19.510  0.00  0.00    +0.000 A 
ATOM      3  C   UNL     1       0.943   2.377  19.116  0.00  0.00    +0.000 A 
ATOM      4  C   UNL     1       1.926   1.800  18.327  0.00  0.00    +0.000 A 
ATOM      5  C   UNL     1       3.023   2.558  17.925  0.00  0.00    +0.000 A 
ATOM      6  C   UNL     1       3.169   3.910  18.273  0.00  0.00    +0.000 A 
ENDROOT
BRANCH   1   8
ATOM      7  N   UNL     1       2.159   6.893  18.602  0.00  0.00    +0.000 N 
ATOM      8  C   UNL     1       2.239   5.913  19.589  0.00  0.00    +0.000 C 
ATOM      9  O   UNL     1       2.403   6.095  20.789  0.00  0.00    +0.000 OA
ATOM     10  H   UNL     1       2.332   6.626  17.645  0.00  0.00    +0.000 HD
BRANCH   7  16
ATOM     11  C   UNL     1       0.199  10.327  21.340  0.00  0.00    +0.000 C 
ATOM     12  C   UNL     1       0.969   9.965  20.106  0.00  0.00    +0.000 A 
ATOM     13  C   UNL     1       1.246  10.923  19.138  0.00  0.00    +0.000 A 
ATOM     14  C   UNL     1       1.856  10.509  17.962  0.00  0.00    +0.000 A 
ATOM     15  C   UNL     1       2.157   9.156  17.788  0.00  0.00    +0.000 A 
ATOM     16  C   UNL     1       1.880   8.256  18.819  0.00  0.00    +0.000 A 
ATOM     17  N   UNL     1       1.286   8.654  19.956  0.00  0.00    +0.000 NA
ENDBRANCH   7  16
ENDBRANCH   1   8
BRANCH   6  18
ATOM     18  N   UNL     1       4.295   4.654  17.813  0.00  0.00    +0.000 N 
ATOM     19  C   UNL     1       5.560   4.677  18.407  0.00  0.00    +0.000 C 
ATOM     20  O   UNL     1       5.882   4.002  19.386  0.00  0.00    +0.000 OA
ATOM     21  H   UNL     1       4.151   5.148  16.932  0.00  0.00    +0.000 HD
BRANCH  19  22
ATOM     22  C   UNL     1       6.609   5.591  17.737  0.00  0.00    +0.000 C 
ATOM     23  C   UNL     1       7.275   4.859  16.567  0.00  0.00    +0.000 C 
ATOM     24  C   UNL     1       5.918   6.860  17.179  0.00  0.00    +0.000 C 
ATOM     25  C   UNL     1       7.646   6.041  18.774  0.00  0.00    +0.000 C 
ENDBRANCH  19  22
ENDBRANCH   6  18
TORSDOF 4
ENDMDL
MODEL 8
REMARK VINA RESULT:      -7.5      1.745      4.113
REMARK  Name = 
REMARK  8 active torsions:
REMARK  status: ('A' for Active; 'I' for Inactive)
REMARK    1  A    between atoms: C_1  and  C_2
REMARK    2  A    between atoms: C_6  and  N_7
REMARK    3  A    between atoms: C_8  and  C_10
REMARK    4  A    between atoms: C_15  and  N_16
REMARK    5  A    between atoms: C_17  and  C_19
REMARK    6  A    between atoms: C_19  and  C_20
REMARK    7  A    between atoms: C_19  and  C_21
REMARK    8  A    between atoms: C_19  and  C_22
REMARK                            x       y       z     vdW  Elec       q    Type
REMARK                         _______ _______ _______ _____ _____    ______ ____
ROOT
ATOM      1  C   UNL     1       2.765   4.362  18.700  0.00  0.00    +0.000 A 
ATOM      2  C   UNL     1       1.498   3.800  18.957  0.00  0.00    +0.000 A 
ATOM      3  C   UNL     1       1.242   2.450  18.724  0.00  0.00    +0.000 A 
ATOM      4  C   UNL     1       2.261   1.630  18.266  0.00  0.00    +0.000 A 
ATOM      5  C   UNL     1       3.525   2.164  18.029  0.00  0.00    +0.000 A 
ATOM      6  C   UNL     1       3.813   3.525  18.219  0.00  0.00    +0.000 A 
ENDROOT
BRANCH   1   8
ATOM      7  N   UNL     1       2.104   6.692  18.346  0.00  0.00    +0.000 N 
ATOM      8  C   UNL     1       2.965   5.820  19.009  0.00  0.00    +0.000 C 
ATOM      9  O   UNL     1       3.875   6.128  19.770  0.00  0.00    +0.000 OA
ATOM     10  H   UNL     1       1.615   6.355  17.532  0.00  0.00    +0.000 HD
BRANCH   7  16
ATOM     11  C   UNL     1       0.354   9.898  21.474  0.00  0.00    +0.000 C 
ATOM     12  C   UNL     1       1.054   9.636  20.174  0.00  0.00    +0.000 A 
ATOM     13  C   UNL     1       1.304  10.672  19.282  0.00  0.00    +0.000 A 
ATOM     14  C   UNL     1       1.846  10.355  18.044  0.00  0.00    +0.000 A 
ATOM     15  C   UNL     1       2.110   9.018  17.737  0.00  0.00    +0.000 A 
ATOM     16  C   UNL     1       1.865   8.034  18.697  0.00  0.00    +0.000 A 
ATOM     17  N   UNL     1       1.336   8.338  19.893  0.00  0.00    +0.000 NA
ENDBRANCH   7  16
ENDBRANCH   1   8
BRANCH   6  18
ATOM     18  N   UNL     1       5.115   4.033  17.936  0.00  0.00    +0.000 N 
ATOM     19  C   UNL     1       5.470   4.800  16.824  0.00  0.00    +0.000 C 
ATOM     20  O   UNL     1       4.679   5.188  15.963  0.00  0.00    +0.000 OA
ATOM     21  H   UNL     1       5.808   3.862  18.665  0.00  0.00    +0.000 HD
BRANCH  19  22
ATOM     22  C   UNL     1       6.958   5.204  16.724  0.00  0.00    +0.000 C 
ATOM     23  C   UNL     1       7.468   4.985  15.295  0.00  0.00    +0.000 C 
ATOM     24  C   UNL     1       7.118   6.706  17.066  0.00  0.00    +0.000 C 
ATOM     25  C   UNL     1       7.785   4.403  17.738  0.00  0.00    +0.000 C 
ENDBRANCH  19  22
ENDBRANCH   6  18
TORSDOF 4
ENDMDL
MODEL 9
REMARK VINA RESULT:      -7.5      2.000      4.539
REMARK  Name = 
REMARK  8 active torsions:
REMARK  status: ('A' for Active; 'I' for Inactive)
REMARK    1  A    between atoms: C_1  and  C_2
REMARK    2  A    between atoms: C_6  and  N_7
REMARK    3  A    between atoms: C_8  and  C_10
REMARK    4  A    between atoms: C_15  and  N_16
REMARK    5  A    between atoms: C_17  and  C_19
REMARK    6  A    between atoms: C_19  and  C_20
REMARK    7  A    between atoms: C_19  and  C_21
REMARK    8  A    between atoms: C_19  and  C_22
REMARK                            x       y       z     vdW  Elec       q    Type
REMARK                         _______ _______ _______ _____ _____    ______ ____
ROOT
ATOM      1  C   UNL     1       2.722   4.960  20.133  0.00  0.00    +0.000 A 
ATOM      2  C   UNL     1       2.054   4.275  21.169  0.00  0.00    +0.000 A 
ATOM      3  C   UNL     1       2.432   2.989  21.549  0.00  0.00    +0.000 A 
ATOM      4  C   UNL     1       3.509   2.379  20.925  0.00  0.00    +0.000 A 
ATOM      5  C   UNL     1       4.194   3.050  19.916  0.00  0.00    +0.000 A 
ATOM      6  C   UNL     1       3.823   4.333  19.482  0.00  0.00    +0.000 A 
ENDROOT
BRANCH   1   8
ATOM      7  N   UNL     1       1.370   6.916  20.710  0.00  0.00    +0.000 N 
ATOM      8  C   UNL     1       2.272   6.357  19.808  0.00  0.00    +0.000 C 
ATOM      9  O   UNL     1       2.691   6.872  18.778  0.00  0.00    +0.000 OA
ATOM     10  H   UNL     1       0.873   6.300  21.335  0.00  0.00    +0.000 HD
BRANCH   7  16
ATOM     11  C   UNL     1      -0.676  10.506  23.170  0.00  0.00    +0.000 C 
ATOM     12  C   UNL     1       0.105  10.067  21.968  0.00  0.00    +0.000 A 
ATOM     13  C   UNL     1       0.362  10.953  20.928  0.00  0.00    +0.000 A 
ATOM     14  C   UNL     1       0.984  10.462  19.788  0.00  0.00    +0.000 A 
ATOM     15  C   UNL     1       1.317   9.107  19.721  0.00  0.00    +0.000 A 
ATOM     16  C   UNL     1       1.058   8.284  20.819  0.00  0.00    +0.000 A 
ATOM     17  N   UNL     1       0.452   8.756  21.921  0.00  0.00    +0.000 NA
ENDBRANCH   7  16
ENDBRANCH   1   8
BRANCH   6  18
ATOM     18  N   UNL     1       4.537   4.970  18.424  0.00  0.00    +0.000 N 
ATOM     19  C   UNL     1       5.901   5.273  18.423  0.00  0.00    +0.000 C 
ATOM     20  O   UNL     1       6.682   4.972  19.326  0.00  0.00    +0.000 OA
ATOM     21  H   UNL     1       3.988   5.144  17.582  0.00  0.00    +0.000 HD
BRANCH  19  22
ATOM     22  C   UNL     1       6.435   5.998  17.168  0.00  0.00    +0.000 C 
ATOM     23  C   UNL     1       7.374   7.138  17.579  0.00  0.00    +0.000 C 
ATOM     24  C   UNL     1       7.238   5.006  16.291  0.00  0.00    +0.000 C 
ATOM     25  C   UNL     1       5.262   6.520  16.328  0.00  0.00    +0.000 C 
ENDBRANCH  19  22
ENDBRANCH   6  18
TORSDOF 4
ENDMDL
