MODEL 1
REMARK VINA RESULT:      -8.4      0.000      0.000
REMARK  Name = 
REMARK  9 active torsions:
REMARK  status: ('A' for Active; 'I' for Inactive)
REMARK    1  A    between atoms: N_2  and  C_4
REMARK    2  A    between atoms: C_7  and  N_8
REMARK    3  A    between atoms: C_11  and  N_12
REMARK    4  A    between atoms: N_12  and  C_13
REMARK    5  A    between atoms: C_13  and  C_14
REMARK    6  A    between atoms: C_14  and  C_15
REMARK    7  A    between atoms: C_15  and  O_16
REMARK    8  A    between atoms: C_15  and  C_17
REMARK    9  A    between atoms: C_27  and  C_28
REMARK                            x       y       z     vdW  Elec       q    Type
REMARK                         _______ _______ _______ _____ _____    ______ ____
ROOT
ATOM      1  N   UNL     1       4.538   3.869  17.432  0.00  0.00    +0.000 N 
ATOM      2  C   UNL     1       4.861   2.799  18.394  0.00  0.00    +0.000 C 
ATOM      3  C   UNL     1       3.711   1.793  18.428  0.00  0.00    +0.000 C 
ATOM      4  C   UNL     1       2.374   2.469  18.779  0.00  0.00    +0.000 C 
ATOM      5  C   UNL     1       2.115   3.577  17.754  0.00  0.00    +0.000 C 
ATOM      6  C   UNL     1       3.270   4.558  17.671  0.00  0.00    +0.000 C 
ENDROOT
BRANCH   1  10
ATOM      7  C   UNL     1       7.019   4.857  14.151  0.00  0.00    +0.000 A 
ATOM      8  C   UNL     1       5.909   4.042  13.991  0.00  0.00    +0.000 A 
ATOM      9  C   UNL     1       5.128   3.754  15.111  0.00  0.00    +0.000 A 
ATOM     10  C   UNL     1       5.418   4.220  16.423  0.00  0.00    +0.000 A 
ATOM     11  C   UNL     1       6.572   5.030  16.568  0.00  0.00    +0.000 A 
ATOM     12  C   UNL     1       7.342   5.349  15.412  0.00  0.00    +0.000 A 
BRANCH  11  13
ATOM     13  C   UNL     1       7.130   5.636  17.846  0.00  0.00    +0.000 C 
ATOM     14  F   UNL     1       7.814   6.806  17.761  0.00  0.00    +0.000 F 
ATOM     15  F   UNL     1       6.141   5.903  18.751  0.00  0.00    +0.000 F 
ATOM     16  F   UNL     1       7.969   4.764  18.482  0.00  0.00    +0.000 F 
ENDBRANCH  11  13
BRANCH   7  18
ATOM     17  O   UNL     1       8.827   5.939  13.176  0.00  0.00    +0.000 OA
ATOM     18  N   UNL     1       7.844   5.201  12.988  0.00  0.00    +0.000 N 
ATOM     19  O   UNL     1       7.516   4.732  11.893  0.00  0.00    +0.000 OA
ENDBRANCH   7  18
ENDBRANCH   1  10
BRANCH   4  20
ATOM     20  N   UNL     1       2.390   2.942  20.175  0.00  0.00    +0.000 NA
ATOM     21  H   UNL     1       3.044   3.715  20.287  0.00  0.00    +0.000 HD
BRANCH  20  22
ATOM     22  C   UNL     1       1.066   3.365  20.637  0.00  0.00    +0.000 C 
BRANCH  22  23
ATOM     23  C   UNL     1       0.809   4.795  20.184  0.00  0.00    +0.000 C 
BRANCH  23  24
ATOM     24  C   UNL     1       1.688   5.789  20.963  0.00  0.00    +0.000 C 
BRANCH  24  25
ATOM     25  C   UNL     1       1.413   7.247  20.661  0.00  0.00    +0.000 A 
ATOM     26  C   UNL     1       0.616   7.982  21.564  0.00  0.00    +0.000 A 
ATOM     27  C   UNL     1       0.267   9.303  21.293  0.00  0.00    +0.000 A 
ATOM     28  C   UNL     1       0.701   9.908  20.115  0.00  0.00    +0.000 A 
ATOM     29  F   UNL     1       0.333  11.171  19.866  0.00  0.00    +0.000 F 
ATOM     30  C   UNL     1       1.502   9.208  19.224  0.00  0.00    +0.000 A 
ATOM     31 CL   UNL     1       2.044   9.939  17.761  0.00  0.00    +0.000 Cl
ATOM     32  C   UNL     1       1.862   7.891  19.497  0.00  0.00    +0.000 A 
ENDBRANCH  24  25
BRANCH  24  33
ATOM     33  O   UNL     1       3.057   5.502  20.709  0.00  0.00    +0.000 OA
ATOM     34  H   UNL     1       3.445   6.286  20.284  0.00  0.00    +0.000 HD
ENDBRANCH  24  33
ENDBRANCH  23  24
ENDBRANCH  22  23
ENDBRANCH  20  22
ENDBRANCH   4  20
TORSDOF 9
ENDMDL
MODEL 2
REMARK VINA RESULT:      -8.3      1.336      1.741
REMARK  Name = 
REMARK  9 active torsions:
REMARK  status: ('A' for Active; 'I' for Inactive)
REMARK    1  A    between atoms: N_2  and  C_4
REMARK    2  A    between atoms: C_7  and  N_8
REMARK    3  A    between atoms: C_11  and  N_12
REMARK    4  A    between atoms: N_12  and  C_13
REMARK    5  A    between atoms: C_13  and  C_14
REMARK    6  A    between atoms: C_14  and  C_15
REMARK    7  A    between atoms: C_15  and  O_16
REMARK    8  A    between atoms: C_15  and  C_17
REMARK    9  A    between atoms: C_27  and  C_28
REMARK                            x       y       z     vdW  Elec       q    Type
REMARK                         _______ _______ _______ _____ _____    ______ ____
ROOT
ATOM      1  N   UNL     1       4.662   4.290  17.697  0.00  0.00    +0.000 N 
ATOM      2  C   UNL     1       5.218   3.924  19.012  0.00  0.00    +0.000 C 
ATOM      3  C   UNL     1       4.538   2.647  19.504  0.00  0.00    +0.000 C 
ATOM      4  C   UNL     1       3.009   2.807  19.574  0.00  0.00    +0.000 C 
ATOM      5  C   UNL     1       2.507   3.205  18.183  0.00  0.00    +0.000 C 
ATOM      6  C   UNL     1       3.208   4.444  17.656  0.00  0.00    +0.000 C 
ENDROOT
BRANCH   1  10
ATOM      7  C   UNL     1       6.976   4.871  14.203  0.00  0.00    +0.000 A 
ATOM      8  C   UNL     1       5.980   3.908  14.251  0.00  0.00    +0.000 A 
ATOM      9  C   UNL     1       5.249   3.766  15.432  0.00  0.00    +0.000 A 
ATOM     10  C   UNL     1       5.484   4.530  16.608  0.00  0.00    +0.000 A 
ATOM     11  C   UNL     1       6.524   5.491  16.545  0.00  0.00    +0.000 A 
ATOM     12  C   UNL     1       7.239   5.653  15.323  0.00  0.00    +0.000 A 
BRANCH  11  13
ATOM     13  C   UNL     1       7.006   6.416  17.650  0.00  0.00    +0.000 C 
ATOM     14  F   UNL     1       7.679   5.874  18.697  0.00  0.00    +0.000 F 
ATOM     15  F   UNL     1       7.860   7.370  17.172  0.00  0.00    +0.000 F 
ATOM     16  F   UNL     1       5.967   7.113  18.200  0.00  0.00    +0.000 F 
ENDBRANCH  11  13
BRANCH   7  18
ATOM     17  O   UNL     1       8.700   5.857  13.000  0.00  0.00    +0.000 OA
ATOM     18  N   UNL     1       7.744   5.064  12.968  0.00  0.00    +0.000 N 
ATOM     19  O   UNL     1       7.396   4.422  11.971  0.00  0.00    +0.000 OA
ENDBRANCH   7  18
ENDBRANCH   1  10
BRANCH   4  20
ATOM     20  N   UNL     1       2.642   3.761  20.635  0.00  0.00    +0.000 NA
ATOM     21  H   UNL     1       3.111   4.655  20.495  0.00  0.00    +0.000 HD
BRANCH  20  22
ATOM     22  C   UNL     1       1.196   3.985  20.709  0.00  0.00    +0.000 C 
BRANCH  22  23
ATOM     23  C   UNL     1       0.875   5.370  20.168  0.00  0.00    +0.000 C 
BRANCH  23  24
ATOM     24  C   UNL     1       1.742   6.445  20.847  0.00  0.00    +0.000 C 
BRANCH  24  25
ATOM     25  C   UNL     1       1.152   7.839  20.828  0.00  0.00    +0.000 A 
ATOM     26  C   UNL     1       1.396   8.657  19.706  0.00  0.00    +0.000 A 
ATOM     27  C   UNL     1       0.942   9.975  19.673  0.00  0.00    +0.000 A 
ATOM     28  C   UNL     1       0.247  10.496  20.762  0.00  0.00    +0.000 A 
ATOM     29  F   UNL     1      -0.158  11.772  20.717  0.00  0.00    +0.000 F 
ATOM     30  C   UNL     1      -0.021   9.701  21.866  0.00  0.00    +0.000 A 
ATOM     31 CL   UNL     1      -0.876  10.331  23.223  0.00  0.00    +0.000 Cl
ATOM     32  C   UNL     1       0.421   8.380  21.898  0.00  0.00    +0.000 A 
ENDBRANCH  24  25
BRANCH  24  33
ATOM     33  O   UNL     1       3.026   6.466  20.234  0.00  0.00    +0.000 OA
ATOM     34  H   UNL     1       3.588   7.064  20.755  0.00  0.00    +0.000 HD
ENDBRANCH  24  33
ENDBRANCH  23  24
ENDBRANCH  22  23
ENDBRANCH  20  22
ENDBRANCH   4  20
TORSDOF 9
ENDMDL
MODEL 3
REMARK VINA RESULT:      -8.1      2.072      2.740
REMARK  Name = 
REMARK  9 active torsions:
REMARK  status: ('A' for Active; 'I' for Inactive)
REMARK    1  A    between atoms: N_2  and  C_4
REMARK    2  A    between atoms: C_7  and  N_8
REMARK    3  A    between atoms: C_11  and  N_12
REMARK    4  A    between atoms: N_12  and  C_13
REMARK    5  A    between atoms: C_13  and  C_14
REMARK    6  A    between atoms: C_14  and  C_15
REMARK    7  A    between atoms: C_15  and  O_16
REMARK    8  A    between atoms: C_15  and  C_17
REMARK    9  A    between atoms: C_27  and  C_28
REMARK                            x       y       z     vdW  Elec       q    Type
REMARK                         _______ _______ _______ _____ _____    ______ ____
ROOT
ATOM      1  N   UNL     1       4.410   5.498  17.950  0.00  0.00    +0.000 N 
ATOM      2  C   UNL     1       4.788   4.942  19.262  0.00  0.00    +0.000 C 
ATOM      3  C   UNL     1       3.656   4.049  19.771  0.00  0.00    +0.000 C 
ATOM      4  C   UNL     1       2.323   4.813  19.856  0.00  0.00    +0.000 C 
ATOM      5  C   UNL     1       2.007   5.377  18.468  0.00  0.00    +0.000 C 
ATOM      6  C   UNL     1       3.142   6.226  17.925  0.00  0.00    +0.000 C 
ENDROOT
BRANCH   1  10
ATOM      7  C   UNL     1       6.736   5.007  14.450  0.00  0.00    +0.000 A 
ATOM      8  C   UNL     1       5.578   4.270  14.652  0.00  0.00    +0.000 A 
ATOM      9  C   UNL     1       4.853   4.479  15.826  0.00  0.00    +0.000 A 
ATOM     10  C   UNL     1       5.244   5.383  16.851  0.00  0.00    +0.000 A 
ATOM     11  C   UNL     1       6.444   6.107  16.636  0.00  0.00    +0.000 A 
ATOM     12  C   UNL     1       7.157   5.914  15.418  0.00  0.00    +0.000 A 
BRANCH  11  13
ATOM     13  C   UNL     1       7.107   7.109  17.567  0.00  0.00    +0.000 C 
ATOM     14  F   UNL     1       7.602   6.661  18.750  0.00  0.00    +0.000 F 
ATOM     15  F   UNL     1       8.179   7.715  16.975  0.00  0.00    +0.000 F 
ATOM     16  F   UNL     1       6.254   8.128  17.887  0.00  0.00    +0.000 F 
ENDBRANCH  11  13
BRANCH   7  18
ATOM     17  O   UNL     1       7.099   3.989  12.395  0.00  0.00    +0.000 OA
ATOM     18  N   UNL     1       7.506   4.831  13.215  0.00  0.00    +0.000 N 
ATOM     19  O   UNL     1       8.510   5.534  13.060  0.00  0.00    +0.000 OA
ENDBRANCH   7  18
ENDBRANCH   1  10
BRANCH   4  20
ATOM     20  N   UNL     1       2.386   5.837  20.914  0.00  0.00    +0.000 NA
ATOM     21  H   UNL     1       3.171   6.468  20.760  0.00  0.00    +0.000 HD
BRANCH  20  22
ATOM     22  C   UNL     1       1.152   6.621  21.006  0.00  0.00    +0.000 C 
BRANCH  22  23
ATOM     23  C   UNL     1       1.488   8.100  20.892  0.00  0.00    +0.000 C 
BRANCH  23  24
ATOM     24  C   UNL     1       1.149   8.849  22.192  0.00  0.00    +0.000 C 
BRANCH  24  25
ATOM     25  C   UNL     1       0.194  10.011  22.022  0.00  0.00    +0.000 A 
ATOM     26  C   UNL     1      -0.658  10.344  23.096  0.00  0.00    +0.000 A 
ATOM     27  C   UNL     1      -1.609  11.353  22.964  0.00  0.00    +0.000 A 
ATOM     28  C   UNL     1      -1.731  12.039  21.757  0.00  0.00    +0.000 A 
ATOM     29  F   UNL     1      -2.668  12.988  21.646  0.00  0.00    +0.000 F 
ATOM     30  C   UNL     1      -0.888  11.740  20.696  0.00  0.00    +0.000 A 
ATOM     31 CL   UNL     1      -1.026  12.576  19.195  0.00  0.00    +0.000 Cl
ATOM     32  C   UNL     1       0.072  10.740  20.828  0.00  0.00    +0.000 A 
ENDBRANCH  24  25
BRANCH  24  33
ATOM     33  O   UNL     1       2.352   9.307  22.796  0.00  0.00    +0.000 OA
ATOM     34  H   UNL     1       2.789   8.537  23.197  0.00  0.00    +0.000 HD
ENDBRANCH  24  33
ENDBRANCH  23  24
ENDBRANCH  22  23
ENDBRANCH  20  22
ENDBRANCH   4  20
TORSDOF 9
ENDMDL
MODEL 4
REMARK VINA RESULT:      -8.1      1.870      2.429
REMARK  Name = 
REMARK  9 active torsions:
REMARK  status: ('A' for Active; 'I' for Inactive)
REMARK    1  A    between atoms: N_2  and  C_4
REMARK    2  A    between atoms: C_7  and  N_8
REMARK    3  A    between atoms: C_11  and  N_12
REMARK    4  A    between atoms: N_12  and  C_13
REMARK    5  A    between atoms: C_13  and  C_14
REMARK    6  A    between atoms: C_14  and  C_15
REMARK    7  A    between atoms: C_15  and  O_16
REMARK    8  A    between atoms: C_15  and  C_17
REMARK    9  A    between atoms: C_27  and  C_28
REMARK                            x       y       z     vdW  Elec       q    Type
REMARK                         _______ _______ _______ _____ _____    ______ ____
ROOT
ATOM      1  N   UNL     1       4.491   5.078  17.786  0.00  0.00    +0.000 N 
ATOM      2  C   UNL     1       4.947   4.510  19.067  0.00  0.00    +0.000 C 
ATOM      3  C   UNL     1       3.884   3.546  19.593  0.00  0.00    +0.000 C 
ATOM      4  C   UNL     1       2.517   4.235  19.747  0.00  0.00    +0.000 C 
ATOM      5  C   UNL     1       2.119   4.816  18.388  0.00  0.00    +0.000 C 
ATOM      6  C   UNL     1       3.186   5.738  17.826  0.00  0.00    +0.000 C 
ENDROOT
BRANCH   1  10
ATOM      7  C   UNL     1       6.703   4.802  14.189  0.00  0.00    +0.000 A 
ATOM      8  C   UNL     1       5.589   4.006  14.409  0.00  0.00    +0.000 A 
ATOM      9  C   UNL     1       4.900   4.146  15.615  0.00  0.00    +0.000 A 
ATOM     10  C   UNL     1       5.288   5.036  16.653  0.00  0.00    +0.000 A 
ATOM     11  C   UNL     1       6.444   5.822  16.418  0.00  0.00    +0.000 A 
ATOM     12  C   UNL     1       7.119   5.699  15.170  0.00  0.00    +0.000 A 
BRANCH  11  13
ATOM     13  C   UNL     1       7.095   6.825  17.356  0.00  0.00    +0.000 C 
ATOM     14  F   UNL     1       8.113   7.587  16.880  0.00  0.00    +0.000 F 
ATOM     15  F   UNL     1       6.192   7.741  17.820  0.00  0.00    +0.000 F 
ATOM     16  F   UNL     1       7.586   6.211  18.474  0.00  0.00    +0.000 F 
ENDBRANCH  11  13
BRANCH   7  18
ATOM     17  O   UNL     1       7.082   3.815  12.122  0.00  0.00    +0.000 OA
ATOM     18  N   UNL     1       7.433   4.700  12.921  0.00  0.00    +0.000 N 
ATOM     19  O   UNL     1       8.350   5.504  12.721  0.00  0.00    +0.000 OA
ENDBRANCH   7  18
ENDBRANCH   1  10
BRANCH   4  20
ATOM     20  N   UNL     1       2.567   5.233  20.830  0.00  0.00    +0.000 NA
ATOM     21  H   UNL     1       3.415   5.795  20.764  0.00  0.00    +0.000 HD
BRANCH  20  22
ATOM     22  C   UNL     1       1.402   6.122  20.824  0.00  0.00    +0.000 C 
BRANCH  22  23
ATOM     23  C   UNL     1       1.869   7.560  20.662  0.00  0.00    +0.000 C 
BRANCH  23  24
ATOM     24  C   UNL     1       1.020   8.519  21.515  0.00  0.00    +0.000 C 
BRANCH  24  25
ATOM     25  C   UNL     1       0.362   9.640  20.740  0.00  0.00    +0.000 A 
ATOM     26  C   UNL     1       0.300   9.540  19.335  0.00  0.00    +0.000 A 
ATOM     27  C   UNL     1      -0.224  10.580  18.569  0.00  0.00    +0.000 A 
ATOM     28  C   UNL     1      -0.685  11.737  19.193  0.00  0.00    +0.000 A 
ATOM     29  F   UNL     1      -1.162  12.732  18.435  0.00  0.00    +0.000 F 
ATOM     30  C   UNL     1      -0.652  11.846  20.576  0.00  0.00    +0.000 A 
ATOM     31 CL   UNL     1      -1.215  13.271  21.364  0.00  0.00    +0.000 Cl
ATOM     32  C   UNL     1      -0.140  10.804  21.346  0.00  0.00    +0.000 A 
ENDBRANCH  24  25
BRANCH  24  33
ATOM     33  O   UNL     1       1.829   9.067  22.548  0.00  0.00    +0.000 OA
ATOM     34  H   UNL     1       1.327   9.001  23.378  0.00  0.00    +0.000 HD
ENDBRANCH  24  33
ENDBRANCH  23  24
ENDBRANCH  22  23
ENDBRANCH  20  22
ENDBRANCH   4  20
TORSDOF 9
ENDMDL
MODEL 5
REMARK VINA RESULT:      -8.1      2.271      2.886
REMARK  Name = 
REMARK  9 active torsions:
REMARK  status: ('A' for Active; 'I' for Inactive)
REMARK    1  A    between atoms: N_2  and  C_4
REMARK    2  A    between atoms: C_7  and  N_8
REMARK    3  A    between atoms: C_11  and  N_12
REMARK    4  A    between atoms: N_12  and  C_13
REMARK    5  A    between atoms: C_13  and  C_14
REMARK    6  A    between atoms: C_14  and  C_15
REMARK    7  A    between atoms: C_15  and  O_16
REMARK    8  A    between atoms: C_15  and  C_17
REMARK    9  A    between atoms: C_27  and  C_28
REMARK                            x       y       z     vdW  Elec       q    Type
REMARK                         _______ _______ _______ _____ _____    ______ ____
ROOT
ATOM      1  N   UNL     1       4.450   5.406  17.880  0.00  0.00    +0.000 N 
ATOM      2  C   UNL     1       4.841   4.816  19.173  0.00  0.00    +0.000 C 
ATOM      3  C   UNL     1       3.703   3.934  19.685  0.00  0.00    +0.000 C 
ATOM      4  C   UNL     1       2.386   4.721  19.810  0.00  0.00    +0.000 C 
ATOM      5  C   UNL     1       2.055   5.319  18.440  0.00  0.00    +0.000 C 
ATOM      6  C   UNL     1       3.195   6.158  17.892  0.00  0.00    +0.000 C 
ENDROOT
BRANCH   1  10
ATOM      7  C   UNL     1       6.704   4.936  14.330  0.00  0.00    +0.000 A 
ATOM      8  C   UNL     1       5.554   4.193  14.554  0.00  0.00    +0.000 A 
ATOM      9  C   UNL     1       4.853   4.395  15.743  0.00  0.00    +0.000 A 
ATOM     10  C   UNL     1       5.262   5.298  16.763  0.00  0.00    +0.000 A 
ATOM     11  C   UNL     1       6.453   6.029  16.525  0.00  0.00    +0.000 A 
ATOM     12  C   UNL     1       7.141   5.842  15.292  0.00  0.00    +0.000 A 
BRANCH  11  13
ATOM     13  C   UNL     1       7.131   7.030  17.445  0.00  0.00    +0.000 C 
ATOM     14  F   UNL     1       8.171   7.754  16.956  0.00  0.00    +0.000 F 
ATOM     15  F   UNL     1       6.254   7.981  17.889  0.00  0.00    +0.000 F 
ATOM     16  F   UNL     1       7.602   6.425  18.575  0.00  0.00    +0.000 F 
ENDBRANCH  11  13
BRANCH   7  18
ATOM     17  O   UNL     1       7.136   3.814  12.344  0.00  0.00    +0.000 OA
ATOM     18  N   UNL     1       7.448   4.767  13.078  0.00  0.00    +0.000 N 
ATOM     19  O   UNL     1       8.338   5.587  12.825  0.00  0.00    +0.000 OA
ENDBRANCH   7  18
ENDBRANCH   1  10
BRANCH   4  20
ATOM     20  N   UNL     1       2.488   5.721  20.887  0.00  0.00    +0.000 NA
ATOM     21  H   UNL     1       3.268   6.355  20.719  0.00  0.00    +0.000 HD
BRANCH  20  22
ATOM     22  C   UNL     1       1.259   6.504  21.040  0.00  0.00    +0.000 C 
BRANCH  22  23
ATOM     23  C   UNL     1       1.579   7.980  20.860  0.00  0.00    +0.000 C 
BRANCH  23  24
ATOM     24  C   UNL     1       1.136   8.798  22.086  0.00  0.00    +0.000 C 
BRANCH  24  25
ATOM     25  C   UNL     1       0.228   9.967  21.772  0.00  0.00    +0.000 A 
ATOM     26  C   UNL     1       0.391  10.632  20.539  0.00  0.00    +0.000 A 
ATOM     27  C   UNL     1      -0.365  11.763  20.234  0.00  0.00    +0.000 A 
ATOM     28  C   UNL     1      -1.288  12.250  21.158  0.00  0.00    +0.000 A 
ATOM     29  F   UNL     1      -1.986  13.351  20.852  0.00  0.00    +0.000 F 
ATOM     30  C   UNL     1      -1.478  11.597  22.367  0.00  0.00    +0.000 A 
ATOM     31 CL   UNL     1      -2.612  12.189  23.522  0.00  0.00    +0.000 Cl
ATOM     32  C   UNL     1      -0.732  10.461  22.671  0.00  0.00    +0.000 A 
ENDBRANCH  24  25
BRANCH  24  33
ATOM     33  O   UNL     1       2.287   9.264  22.778  0.00  0.00    +0.000 OA
ATOM     34  H   UNL     1       2.947   9.516  22.110  0.00  0.00    +0.000 HD
ENDBRANCH  24  33
ENDBRANCH  23  24
ENDBRANCH  22  23
ENDBRANCH  20  22
ENDBRANCH   4  20
TORSDOF 9
ENDMDL
MODEL 6
REMARK VINA RESULT:      -8.0      1.440      1.830
REMARK  Name = 
REMARK  9 active torsions:
REMARK  status: ('A' for Active; 'I' for Inactive)
REMARK    1  A    between atoms: N_2  and  C_4
REMARK    2  A    between atoms: C_7  and  N_8
REMARK    3  A    between atoms: C_11  and  N_12
REMARK    4  A    between atoms: N_12  and  C_13
REMARK    5  A    between atoms: C_13  and  C_14
REMARK    6  A    between atoms: C_14  and  C_15
REMARK    7  A    between atoms: C_15  and  O_16
REMARK    8  A    between atoms: C_15  and  C_17
REMARK    9  A    between atoms: C_27  and  C_28
REMARK                            x       y       z     vdW  Elec       q    Type
REMARK                         _______ _______ _______ _____ _____    ______ ____
ROOT
ATOM      1  N   UNL     1       4.471   4.093  17.557  0.00  0.00    +0.000 N 
ATOM      2  C   UNL     1       4.973   3.796  18.910  0.00  0.00    +0.000 C 
ATOM      3  C   UNL     1       4.412   2.450  19.367  0.00  0.00    +0.000 C 
ATOM      4  C   UNL     1       2.874   2.433  19.331  0.00  0.00    +0.000 C 
ATOM      5  C   UNL     1       2.426   2.768  17.905  0.00  0.00    +0.000 C 
ATOM      6  C   UNL     1       3.015   4.079  17.415  0.00  0.00    +0.000 C 
ENDROOT
BRANCH   1  10
ATOM      7  C   UNL     1       6.966   4.896  14.236  0.00  0.00    +0.000 A 
ATOM      8  C   UNL     1       6.211   3.735  14.301  0.00  0.00    +0.000 A 
ATOM      9  C   UNL     1       5.405   3.529  15.421  0.00  0.00    +0.000 A 
ATOM     10  C   UNL     1       5.333   4.423  16.524  0.00  0.00    +0.000 A 
ATOM     11  C   UNL     1       6.133   5.591  16.448  0.00  0.00    +0.000 A 
ATOM     12  C   UNL     1       6.924   5.811  15.284  0.00  0.00    +0.000 A 
BRANCH  11  13
ATOM     13  C   UNL     1       6.272   6.694  17.485  0.00  0.00    +0.000 C 
ATOM     14  F   UNL     1       6.991   7.799  17.159  0.00  0.00    +0.000 F 
ATOM     15  F   UNL     1       5.055   7.195  17.854  0.00  0.00    +0.000 F 
ATOM     16  F   UNL     1       6.828   6.221  18.640  0.00  0.00    +0.000 F 
ENDBRANCH  11  13
BRANCH   7  18
ATOM     17  O   UNL     1       7.510   4.571  12.002  0.00  0.00    +0.000 OA
ATOM     18  N   UNL     1       7.802   5.157  13.059  0.00  0.00    +0.000 N 
ATOM     19  O   UNL     1       8.743   5.947  13.188  0.00  0.00    +0.000 OA
ENDBRANCH   7  18
ENDBRANCH   1  10
BRANCH   4  20
ATOM     20  N   UNL     1       2.327   3.340  20.355  0.00  0.00    +0.000 NA
ATOM     21  H   UNL     1       3.069   3.694  20.957  0.00  0.00    +0.000 HD
BRANCH  20  22
ATOM     22  C   UNL     1       1.604   4.472  19.771  0.00  0.00    +0.000 C 
BRANCH  22  23
ATOM     23  C   UNL     1       1.746   5.682  20.681  0.00  0.00    +0.000 C 
BRANCH  23  24
ATOM     24  C   UNL     1       2.222   6.915  19.893  0.00  0.00    +0.000 C 
BRANCH  24  25
ATOM     25  C   UNL     1       1.467   8.191  20.199  0.00  0.00    +0.000 A 
ATOM     26  C   UNL     1       1.394   9.185  19.200  0.00  0.00    +0.000 A 
ATOM     27  C   UNL     1       0.779  10.409  19.457  0.00  0.00    +0.000 A 
ATOM     28  C   UNL     1       0.238  10.663  20.715  0.00  0.00    +0.000 A 
ATOM     29  F   UNL     1      -0.326  11.855  20.946  0.00  0.00    +0.000 F 
ATOM     30  C   UNL     1       0.281   9.690  21.704  0.00  0.00    +0.000 A 
ATOM     31 CL   UNL     1      -0.380   9.989  23.267  0.00  0.00    +0.000 Cl
ATOM     32  C   UNL     1       0.885   8.462  21.448  0.00  0.00    +0.000 A 
ENDBRANCH  24  25
BRANCH  24  33
ATOM     33  O   UNL     1       2.143   6.640  18.500  0.00  0.00    +0.000 OA
ATOM     34  H   UNL     1       2.206   5.676  18.390  0.00  0.00    +0.000 HD
ENDBRANCH  24  33
ENDBRANCH  23  24
ENDBRANCH  22  23
ENDBRANCH  20  22
ENDBRANCH   4  20
TORSDOF 9
ENDMDL
MODEL 7
REMARK VINA RESULT:      -8.0      0.980      1.389
REMARK  Name = 
REMARK  9 active torsions:
REMARK  status: ('A' for Active; 'I' for Inactive)
REMARK    1  A    between atoms: N_2  and  C_4
REMARK    2  A    between atoms: C_7  and  N_8
REMARK    3  A    between atoms: C_11  and  N_12
REMARK    4  A    between atoms: N_12  and  C_13
REMARK    5  A    between atoms: C_13  and  C_14
REMARK    6  A    between atoms: C_14  and  C_15
REMARK    7  A    between atoms: C_15  and  O_16
REMARK    8  A    between atoms: C_15  and  C_17
REMARK    9  A    between atoms: C_27  and  C_28
REMARK                            x       y       z     vdW  Elec       q    Type
REMARK                         _______ _______ _______ _____ _____    ______ ____
ROOT
ATOM      1  N   UNL     1       4.488   3.886  17.281  0.00  0.00    +0.000 N 
ATOM      2  C   UNL     1       4.681   2.643  18.051  0.00  0.00    +0.000 C 
ATOM      3  C   UNL     1       3.386   1.832  18.023  0.00  0.00    +0.000 C 
ATOM      4  C   UNL     1       2.196   2.641  18.567  0.00  0.00    +0.000 C 
ATOM      5  C   UNL     1       2.069   3.921  17.736  0.00  0.00    +0.000 C 
ATOM      6  C   UNL     1       3.362   4.715  17.710  0.00  0.00    +0.000 C 
ENDROOT
BRANCH   1  10
ATOM      7  C   UNL     1       6.987   4.847  14.006  0.00  0.00    +0.000 A 
ATOM      8  C   UNL     1       6.073   3.807  13.929  0.00  0.00    +0.000 A 
ATOM      9  C   UNL     1       5.275   3.541  15.043  0.00  0.00    +0.000 A 
ATOM     10  C   UNL     1       5.362   4.251  16.271  0.00  0.00    +0.000 A 
ATOM     11  C   UNL     1       6.321   5.293  16.336  0.00  0.00    +0.000 A 
ATOM     12  C   UNL     1       7.105   5.582  15.182  0.00  0.00    +0.000 A 
BRANCH  11  13
ATOM     13  C   UNL     1       6.645   6.188  17.521  0.00  0.00    +0.000 C 
ATOM     14  F   UNL     1       5.708   7.082  17.930  0.00  0.00    +0.000 F 
ATOM     15  F   UNL     1       6.912   5.459  18.646  0.00  0.00    +0.000 F 
ATOM     16  F   UNL     1       7.778   6.919  17.294  0.00  0.00    +0.000 F 
ENDBRANCH  11  13
BRANCH   7  18
ATOM     17  O   UNL     1       8.749   5.982  13.006  0.00  0.00    +0.000 OA
ATOM     18  N   UNL     1       7.821   5.171  12.844  0.00  0.00    +0.000 N 
ATOM     19  O   UNL     1       7.554   4.613  11.773  0.00  0.00    +0.000 OA
ENDBRANCH   7  18
ENDBRANCH   1  10
BRANCH   4  20
ATOM     20  N   UNL     1       2.358   2.883  20.011  0.00  0.00    +0.000 NA
ATOM     21  H   UNL     1       3.080   3.582  20.181  0.00  0.00    +0.000 HD
BRANCH  20  22
ATOM     22  C   UNL     1       1.112   3.317  20.649  0.00  0.00    +0.000 C 
BRANCH  22  23
ATOM     23  C   UNL     1       0.783   4.732  20.198  0.00  0.00    +0.000 C 
BRANCH  23  24
ATOM     24  C   UNL     1       1.615   5.768  20.974  0.00  0.00    +0.000 C 
BRANCH  24  25
ATOM     25  C   UNL     1       1.378   7.205  20.563  0.00  0.00    +0.000 A 
ATOM     26  C   UNL     1       1.851   7.631  19.303  0.00  0.00    +0.000 A 
ATOM     27  C   UNL     1       1.728   8.962  18.910  0.00  0.00    +0.000 A 
ATOM     28  C   UNL     1       1.142   9.889  19.769  0.00  0.00    +0.000 A 
ATOM     29  F   UNL     1       1.057  11.166  19.378  0.00  0.00    +0.000 F 
ATOM     30  C   UNL     1       0.652   9.485  21.003  0.00  0.00    +0.000 A 
ATOM     31 CL   UNL     1      -0.074  10.619  22.079  0.00  0.00    +0.000 Cl
ATOM     32  C   UNL     1       0.762   8.153  21.395  0.00  0.00    +0.000 A 
ENDBRANCH  24  25
BRANCH  24  33
ATOM     33  O   UNL     1       2.996   5.457  20.837  0.00  0.00    +0.000 OA
ATOM     34  H   UNL     1       3.080   4.820  20.107  0.00  0.00    +0.000 HD
ENDBRANCH  24  33
ENDBRANCH  23  24
ENDBRANCH  22  23
ENDBRANCH  20  22
ENDBRANCH   4  20
TORSDOF 9
ENDMDL
MODEL 8
REMARK VINA RESULT:      -7.9      4.890      6.408
REMARK  Name = 
REMARK  9 active torsions:
REMARK  status: ('A' for Active; 'I' for Inactive)
REMARK    1  A    between atoms: N_2  and  C_4
REMARK    2  A    between atoms: C_7  and  N_8
REMARK    3  A    between atoms: C_11  and  N_12
REMARK    4  A    between atoms: N_12  and  C_13
REMARK    5  A    between atoms: C_13  and  C_14
REMARK    6  A    between atoms: C_14  and  C_15
REMARK    7  A    between atoms: C_15  and  O_16
REMARK    8  A    between atoms: C_15  and  C_17
REMARK    9  A    between atoms: C_27  and  C_28
REMARK                            x       y       z     vdW  Elec       q    Type
REMARK                         _______ _______ _______ _____ _____    ______ ____
ROOT
ATOM      1  N   UNL     1       2.422   7.347  18.399  0.00  0.00    +0.000 N 
ATOM      2  C   UNL     1       1.903   8.519  17.671  0.00  0.00    +0.000 C 
ATOM      3  C   UNL     1       1.977   9.745  18.581  0.00  0.00    +0.000 C 
ATOM      4  C   UNL     1       1.210   9.525  19.896  0.00  0.00    +0.000 C 
ATOM      5  C   UNL     1       1.787   8.285  20.584  0.00  0.00    +0.000 C 
ATOM      6  C   UNL     1       1.768   7.068  19.677  0.00  0.00    +0.000 C 
ENDROOT
BRANCH   1  10
ATOM      7  C   UNL     1       5.647   5.114  16.815  0.00  0.00    +0.000 A 
ATOM      8  C   UNL     1       5.758   6.479  17.032  0.00  0.00    +0.000 A 
ATOM      9  C   UNL     1       4.660   7.159  17.559  0.00  0.00    +0.000 A 
ATOM     10  C   UNL     1       3.414   6.544  17.860  0.00  0.00    +0.000 A 
ATOM     11  C   UNL     1       3.314   5.153  17.607  0.00  0.00    +0.000 A 
ATOM     12  C   UNL     1       4.452   4.461  17.103  0.00  0.00    +0.000 A 
BRANCH  11  13
ATOM     13  C   UNL     1       2.105   4.255  17.806  0.00  0.00    +0.000 C 
ATOM     14  F   UNL     1       2.154   2.988  17.320  0.00  0.00    +0.000 F 
ATOM     15  F   UNL     1       1.817   4.083  19.132  0.00  0.00    +0.000 F 
ATOM     16  F   UNL     1       0.979   4.812  17.268  0.00  0.00    +0.000 F 
ENDBRANCH  11  13
BRANCH   7  18
ATOM     17  O   UNL     1       7.846   4.379  16.948  0.00  0.00    +0.000 OA
ATOM     18  N   UNL     1       6.792   4.364  16.288  0.00  0.00    +0.000 N 
ATOM     19  O   UNL     1       6.639   3.758  15.222  0.00  0.00    +0.000 OA
ENDBRANCH   7  18
ENDBRANCH   1  10
BRANCH   4  20
ATOM     20  N   UNL     1      -0.238   9.441  19.636  0.00  0.00    +0.000 NA
ATOM     21  H   UNL     1      -0.755   9.325  20.507  0.00  0.00    +0.000 HD
BRANCH  20  22
ATOM     22  C   UNL     1      -0.749  10.619  18.931  0.00  0.00    +0.000 C 
BRANCH  22  23
ATOM     23  C   UNL     1      -1.905  10.205  18.034  0.00  0.00    +0.000 C 
BRANCH  23  24
ATOM     24  C   UNL     1      -2.569  11.432  17.383  0.00  0.00    +0.000 C 
BRANCH  24  25
ATOM     25  C   UNL     1      -4.003  11.671  17.802  0.00  0.00    +0.000 A 
ATOM     26  C   UNL     1      -4.949  11.993  16.806  0.00  0.00    +0.000 A 
ATOM     27  C   UNL     1      -6.265  12.301  17.147  0.00  0.00    +0.000 A 
ATOM     28  C   UNL     1      -6.653  12.300  18.486  0.00  0.00    +0.000 A 
ATOM     29  F   UNL     1      -7.917  12.622  18.790  0.00  0.00    +0.000 F 
ATOM     30  C   UNL     1      -5.742  11.966  19.478  0.00  0.00    +0.000 A 
ATOM     31 CL   UNL     1      -6.205  11.963  21.138  0.00  0.00    +0.000 Cl
ATOM     32  C   UNL     1      -4.429  11.647  19.140  0.00  0.00    +0.000 A 
ENDBRANCH  24  25
BRANCH  24  33
ATOM     33  O   UNL     1      -2.503  11.303  15.968  0.00  0.00    +0.000 OA
ATOM     34  H   UNL     1      -2.017  12.073  15.628  0.00  0.00    +0.000 HD
ENDBRANCH  24  33
ENDBRANCH  23  24
ENDBRANCH  22  23
ENDBRANCH  20  22
ENDBRANCH   4  20
TORSDOF 9
ENDMDL
MODEL 9
REMARK VINA RESULT:      -7.9      1.532      2.127
REMARK  Name = 
REMARK  9 active torsions:
REMARK  status: ('A' for Active; 'I' for Inactive)
REMARK    1  A    between atoms: N_2  and  C_4
REMARK    2  A    between atoms: C_7  and  N_8
REMARK    3  A    between atoms: C_11  and  N_12
REMARK    4  A    between atoms: N_12  and  C_13
REMARK    5  A    between atoms: C_13  and  C_14
REMARK    6  A    between atoms: C_14  and  C_15
REMARK    7  A    between atoms: C_15  and  O_16
REMARK    8  A    between atoms: C_15  and  C_17
REMARK    9  A    between atoms: C_27  and  C_28
REMARK                            x       y       z     vdW  Elec       q    Type
REMARK                         _______ _______ _______ _____ _____    ______ ____
ROOT
ATOM      1  N   UNL     1       4.367   4.778  17.684  0.00  0.00    +0.000 N 
ATOM      2  C   UNL     1       4.543   3.816  18.787  0.00  0.00    +0.000 C 
ATOM      3  C   UNL     1       3.251   3.019  18.966  0.00  0.00    +0.000 C 
ATOM      4  C   UNL     1       2.045   3.940  19.221  0.00  0.00    +0.000 C 
ATOM      5  C   UNL     1       1.937   4.921  18.050  0.00  0.00    +0.000 C 
ATOM      6  C   UNL     1       3.229   5.685  17.825  0.00  0.00    +0.000 C 
ENDROOT
BRANCH   1  10
ATOM      7  C   UNL     1       6.882   4.928  14.285  0.00  0.00    +0.000 A 
ATOM      8  C   UNL     1       5.600   4.405  14.206  0.00  0.00    +0.000 A 
ATOM      9  C   UNL     1       4.818   4.386  15.361  0.00  0.00    +0.000 A 
ATOM     10  C   UNL     1       5.265   4.841  16.632  0.00  0.00    +0.000 A 
ATOM     11  C   UNL     1       6.588   5.347  16.695  0.00  0.00    +0.000 A 
ATOM     12  C   UNL     1       7.365   5.398  15.503  0.00  0.00    +0.000 A 
BRANCH  11  13
ATOM     13  C   UNL     1       7.328   5.869  17.916  0.00  0.00    +0.000 C 
ATOM     14  F   UNL     1       6.606   6.181  19.024  0.00  0.00    +0.000 F 
ATOM     15  F   UNL     1       8.249   4.968  18.371  0.00  0.00    +0.000 F 
ATOM     16  F   UNL     1       8.047   6.992  17.617  0.00  0.00    +0.000 F 
ENDBRANCH  11  13
BRANCH   7  18
ATOM     17  O   UNL     1       8.714   5.734  13.108  0.00  0.00    +0.000 OA
ATOM     18  N   UNL     1       7.719   4.989  13.082  0.00  0.00    +0.000 N 
ATOM     19  O   UNL     1       7.389   4.291  12.117  0.00  0.00    +0.000 OA
ENDBRANCH   7  18
ENDBRANCH   1  10
BRANCH   4  20
ATOM     20  N   UNL     1       2.170   4.595  20.536  0.00  0.00    +0.000 NA
ATOM     21  H   UNL     1       3.091   5.017  20.643  0.00  0.00    +0.000 HD
BRANCH  20  22
ATOM     22  C   UNL     1       1.146   5.620  20.749  0.00  0.00    +0.000 C 
BRANCH  22  23
ATOM     23  C   UNL     1       1.813   6.983  20.851  0.00  0.00    +0.000 C 
BRANCH  23  24
ATOM     24  C   UNL     1       0.766   8.106  20.958  0.00  0.00    +0.000 C 
BRANCH  24  25
ATOM     25  C   UNL     1       1.045   9.315  20.091  0.00  0.00    +0.000 A 
ATOM     26  C   UNL     1       1.578   9.108  18.802  0.00  0.00    +0.000 A 
ATOM     27  C   UNL     1       1.926  10.189  17.994  0.00  0.00    +0.000 A 
ATOM     28  C   UNL     1       1.756  11.490  18.464  0.00  0.00    +0.000 A 
ATOM     29  F   UNL     1       2.120  12.511  17.679  0.00  0.00    +0.000 F 
ATOM     30  C   UNL     1       1.214  11.714  19.721  0.00  0.00    +0.000 A 
ATOM     31 CL   UNL     1       1.001  13.316  20.319  0.00  0.00    +0.000 Cl
ATOM     32  C   UNL     1       0.854  10.636  20.527  0.00  0.00    +0.000 A 
ENDBRANCH  24  25
BRANCH  24  33
ATOM     33  O   UNL     1       0.654   8.512  22.317  0.00  0.00    +0.000 OA
ATOM     34  H   UNL     1       0.731   7.714  22.867  0.00  0.00    +0.000 HD
ENDBRANCH  24  33
ENDBRANCH  23  24
ENDBRANCH  22  23
ENDBRANCH  20  22
ENDBRANCH   4  20
TORSDOF 9
ENDMDL
