MODEL 1
REMARK VINA RESULT:      -7.0      0.000      0.000
REMARK  Name = 
REMARK  4 active torsions:
REMARK  status: ('A' for Active; 'I' for Inactive)
REMARK    1  A    between atoms: C_2  and  O_3
REMARK    2  A    between atoms: C_2  and  C_4
REMARK    3  A    between atoms: C_7  and  O_8
REMARK    4  A    between atoms: C_12  and  N_13
REMARK                            x       y       z     vdW  Elec       q    Type
REMARK                         _______ _______ _______ _____ _____    ______ ____
ROOT
ATOM      1  C   UNL     1       2.620   3.425  19.803  0.00  0.00    +0.000 A 
ATOM      2  C   UNL     1       3.189   2.348  19.103  0.00  0.00    +0.000 A 
ATOM      3  C   UNL     1       3.913   2.581  17.943  0.00  0.00    +0.000 A 
ATOM      4  C   UNL     1       4.029   3.883  17.461  0.00  0.00    +0.000 A 
ATOM      5  C   UNL     1       3.436   4.980  18.103  0.00  0.00    +0.000 A 
ATOM      6  N   UNL     1       3.533   6.208  17.559  0.00  0.00    +0.000 NA
ATOM      7  C   UNL     1       2.938   7.253  18.185  0.00  0.00    +0.000 A 
ATOM      8  C   UNL     1       2.261   7.194  19.396  0.00  0.00    +0.000 A 
ATOM      9  C   UNL     1       2.192   5.908  19.941  0.00  0.00    +0.000 A 
ATOM     10  C   UNL     1       2.738   4.758  19.308  0.00  0.00    +0.000 A 
ENDROOT
BRANCH   8  11
ATOM     11  N   UNL     1       1.697   8.280  20.021  0.00  0.00    +0.000 N 
ATOM     12  C   UNL     1       1.281   8.332  21.419  0.00  0.00    +0.000 C 
ATOM     13  C   UNL     1       0.033   9.205  21.380  0.00  0.00    +0.000 C 
ATOM     14  C   UNL     1       0.354  10.217  20.296  0.00  0.00    +0.000 C 
ATOM     15  C   UNL     1       1.164   9.421  19.272  0.00  0.00    +0.000 C 
ENDBRANCH   8  11
BRANCH   1  17
ATOM     16  O   UNL     1       2.301   3.024  22.145  0.00  0.00    +0.000 OA
ATOM     17  C   UNL     1       1.826   3.113  21.024  0.00  0.00    +0.000 C 
BRANCH  17  18
ATOM     18  O   UNL     1       0.508   2.938  20.784  0.00  0.00    +0.000 OA
ATOM     19  H   UNL     1       0.284   2.268  20.113  0.00  0.00    +0.000 HD
ENDBRANCH  17  18
ENDBRANCH   1  17
BRANCH   4  20
ATOM     20  O   UNL     1       4.745   4.094  16.305  0.00  0.00    +0.000 OA
ATOM     21  H   UNL     1       5.694   4.020  16.481  0.00  0.00    +0.000 HD
ENDBRANCH   4  20
TORSDOF 4
ENDMDL
MODEL 2
REMARK VINA RESULT:      -7.0      3.108      5.921
REMARK  Name = 
REMARK  4 active torsions:
REMARK  status: ('A' for Active; 'I' for Inactive)
REMARK    1  A    between atoms: C_2  and  O_3
REMARK    2  A    between atoms: C_2  and  C_4
REMARK    3  A    between atoms: C_7  and  O_8
REMARK    4  A    between atoms: C_12  and  N_13
REMARK                            x       y       z     vdW  Elec       q    Type
REMARK                         _______ _______ _______ _____ _____    ______ ____
ROOT
ATOM      1  C   UNL     1       3.499   3.650  19.153  0.00  0.00    +0.000 A 
ATOM      2  C   UNL     1       2.729   4.149  20.216  0.00  0.00    +0.000 A 
ATOM      3  C   UNL     1       2.362   5.487  20.237  0.00  0.00    +0.000 A 
ATOM      4  C   UNL     1       2.802   6.331  19.220  0.00  0.00    +0.000 A 
ATOM      5  C   UNL     1       3.612   5.883  18.166  0.00  0.00    +0.000 A 
ATOM      6  N   UNL     1       4.054   6.757  17.243  0.00  0.00    +0.000 NA
ATOM      7  C   UNL     1       4.851   6.308  16.242  0.00  0.00    +0.000 A 
ATOM      8  C   UNL     1       5.226   4.988  16.035  0.00  0.00    +0.000 A 
ATOM      9  C   UNL     1       4.737   4.104  17.002  0.00  0.00    +0.000 A 
ATOM     10  C   UNL     1       3.950   4.515  18.112  0.00  0.00    +0.000 A 
ENDROOT
BRANCH   8  11
ATOM     11  N   UNL     1       6.009   4.560  14.989  0.00  0.00    +0.000 N 
ATOM     12  C   UNL     1       7.393   4.955  14.749  0.00  0.00    +0.000 C 
ATOM     13  C   UNL     1       7.479   5.022  13.230  0.00  0.00    +0.000 C 
ATOM     14  C   UNL     1       6.571   3.891  12.783  0.00  0.00    +0.000 C 
ATOM     15  C   UNL     1       5.443   3.890  13.815  0.00  0.00    +0.000 C 
ENDBRANCH   8  11
BRANCH   1  17
ATOM     16  O   UNL     1       3.291   1.321  18.621  0.00  0.00    +0.000 OA
ATOM     17  C   UNL     1       3.890   2.213  19.199  0.00  0.00    +0.000 C 
BRANCH  17  18
ATOM     18  O   UNL     1       4.991   1.975  19.945  0.00  0.00    +0.000 OA
ATOM     19  H   UNL     1       5.581   1.272  19.620  0.00  0.00    +0.000 HD
ENDBRANCH  17  18
ENDBRANCH   1  17
BRANCH   4  20
ATOM     20  O   UNL     1       2.434   7.656  19.262  0.00  0.00    +0.000 OA
ATOM     21  H   UNL     1       2.467   8.041  18.374  0.00  0.00    +0.000 HD
ENDBRANCH   4  20
TORSDOF 4
ENDMDL
MODEL 3
REMARK VINA RESULT:      -7.0      2.761      5.598
REMARK  Name = 
REMARK  4 active torsions:
REMARK  status: ('A' for Active; 'I' for Inactive)
REMARK    1  A    between atoms: C_2  and  O_3
REMARK    2  A    between atoms: C_2  and  C_4
REMARK    3  A    between atoms: C_7  and  O_8
REMARK    4  A    between atoms: C_12  and  N_13
REMARK                            x       y       z     vdW  Elec       q    Type
REMARK                         _______ _______ _______ _____ _____    ______ ____
ROOT
ATOM      1  C   UNL     1       2.404   3.442  19.072  0.00  0.00    +0.000 A 
ATOM      2  C   UNL     1       1.620   3.889  20.147  0.00  0.00    +0.000 A 
ATOM      3  C   UNL     1       1.595   5.237  20.473  0.00  0.00    +0.000 A 
ATOM      4  C   UNL     1       2.389   6.127  19.752  0.00  0.00    +0.000 A 
ATOM      5  C   UNL     1       3.223   5.714  18.703  0.00  0.00    +0.000 A 
ATOM      6  N   UNL     1       4.011   6.611  18.081  0.00  0.00    +0.000 NA
ATOM      7  C   UNL     1       4.825   6.189  17.082  0.00  0.00    +0.000 A 
ATOM      8  C   UNL     1       4.891   4.896  16.582  0.00  0.00    +0.000 A 
ATOM      9  C   UNL     1       4.048   3.993  17.239  0.00  0.00    +0.000 A 
ATOM     10  C   UNL     1       3.218   4.353  18.335  0.00  0.00    +0.000 A 
ENDROOT
BRANCH   8  11
ATOM     11  N   UNL     1       5.703   4.507  15.543  0.00  0.00    +0.000 N 
ATOM     12  C   UNL     1       7.133   4.776  15.439  0.00  0.00    +0.000 C 
ATOM     13  C   UNL     1       7.339   5.005  13.947  0.00  0.00    +0.000 C 
ATOM     14  C   UNL     1       6.358   4.035  13.312  0.00  0.00    +0.000 C 
ATOM     15  C   UNL     1       5.162   4.039  14.264  0.00  0.00    +0.000 C 
ENDBRANCH   8  11
BRANCH   1  17
ATOM     16  O   UNL     1       3.427   1.295  18.762  0.00  0.00    +0.000 OA
ATOM     17  C   UNL     1       2.417   1.979  18.788  0.00  0.00    +0.000 C 
BRANCH  17  18
ATOM     18  O   UNL     1       1.190   1.461  18.562  0.00  0.00    +0.000 OA
ATOM     19  H   UNL     1       1.138   0.777  17.870  0.00  0.00    +0.000 HD
ENDBRANCH  17  18
ENDBRANCH   1  17
BRANCH   4  20
ATOM     20  O   UNL     1       2.358   7.460  20.094  0.00  0.00    +0.000 OA
ATOM     21  H   UNL     1       2.429   8.011  19.301  0.00  0.00    +0.000 HD
ENDBRANCH   4  20
TORSDOF 4
ENDMDL
MODEL 4
REMARK VINA RESULT:      -6.9      2.769      5.488
REMARK  Name = 
REMARK  4 active torsions:
REMARK  status: ('A' for Active; 'I' for Inactive)
REMARK    1  A    between atoms: C_2  and  O_3
REMARK    2  A    between atoms: C_2  and  C_4
REMARK    3  A    between atoms: C_7  and  O_8
REMARK    4  A    between atoms: C_12  and  N_13
REMARK                            x       y       z     vdW  Elec       q    Type
REMARK                         _______ _______ _______ _____ _____    ______ ____
ROOT
ATOM      1  C   UNL     1       3.475   3.037  19.758  0.00  0.00    +0.000 A 
ATOM      2  C   UNL     1       2.716   3.166  20.932  0.00  0.00    +0.000 A 
ATOM      3  C   UNL     1       2.126   4.382  21.245  0.00  0.00    +0.000 A 
ATOM      4  C   UNL     1       2.334   5.476  20.408  0.00  0.00    +0.000 A 
ATOM      5  C   UNL     1       3.124   5.402  19.252  0.00  0.00    +0.000 A 
ATOM      6  N   UNL     1       3.337   6.507  18.513  0.00  0.00    +0.000 NA
ATOM      7  C   UNL     1       4.119   6.419  17.410  0.00  0.00    +0.000 A 
ATOM      8  C   UNL     1       4.699   5.257  16.918  0.00  0.00    +0.000 A 
ATOM      9  C   UNL     1       4.446   4.126  17.699  0.00  0.00    +0.000 A 
ATOM     10  C   UNL     1       3.688   4.158  18.901  0.00  0.00    +0.000 A 
ENDROOT
BRANCH   8  11
ATOM     11  N   UNL     1       5.460   5.196  15.775  0.00  0.00    +0.000 N 
ATOM     12  C   UNL     1       5.034   4.625  14.501  0.00  0.00    +0.000 C 
ATOM     13  C   UNL     1       6.308   3.989  13.960  0.00  0.00    +0.000 C 
ATOM     14  C   UNL     1       7.393   4.944  14.422  0.00  0.00    +0.000 C 
ATOM     15  C   UNL     1       6.908   5.425  15.789  0.00  0.00    +0.000 C 
ENDBRANCH   8  11
BRANCH   1  17
ATOM     16  O   UNL     1       3.702   0.914  18.665  0.00  0.00    +0.000 OA
ATOM     17  C   UNL     1       4.111   1.716  19.488  0.00  0.00    +0.000 C 
BRANCH  17  18
ATOM     18  O   UNL     1       5.206   1.478  20.244  0.00  0.00    +0.000 OA
ATOM     19  H   UNL     1       5.048   1.369  21.199  0.00  0.00    +0.000 HD
ENDBRANCH  17  18
ENDBRANCH   1  17
BRANCH   4  20
ATOM     20  O   UNL     1       1.747   6.676  20.739  0.00  0.00    +0.000 OA
ATOM     21  H   UNL     1       0.984   6.844  20.167  0.00  0.00    +0.000 HD
ENDBRANCH   4  20
TORSDOF 4
ENDMDL
MODEL 5
REMARK VINA RESULT:      -6.8      2.586      5.430
REMARK  Name = 
REMARK  4 active torsions:
REMARK  status: ('A' for Active; 'I' for Inactive)
REMARK    1  A    between atoms: C_2  and  O_3
REMARK    2  A    between atoms: C_2  and  C_4
REMARK    3  A    between atoms: C_7  and  O_8
REMARK    4  A    between atoms: C_12  and  N_13
REMARK                            x       y       z     vdW  Elec       q    Type
REMARK                         _______ _______ _______ _____ _____    ______ ____
ROOT
ATOM      1  C   UNL     1       2.411   3.506  19.216  0.00  0.00    +0.000 A 
ATOM      2  C   UNL     1       1.640   3.774  20.357  0.00  0.00    +0.000 A 
ATOM      3  C   UNL     1       1.490   5.080  20.801  0.00  0.00    +0.000 A 
ATOM      4  C   UNL     1       2.149   6.108  20.128  0.00  0.00    +0.000 A 
ATOM      5  C   UNL     1       2.966   5.877  19.013  0.00  0.00    +0.000 A 
ATOM      6  N   UNL     1       3.623   6.903  18.439  0.00  0.00    +0.000 NA
ATOM      7  C   UNL     1       4.424   6.656  17.374  0.00  0.00    +0.000 A 
ATOM      8  C   UNL     1       4.600   5.424  16.760  0.00  0.00    +0.000 A 
ATOM      9  C   UNL     1       3.892   4.383  17.371  0.00  0.00    +0.000 A 
ATOM     10  C   UNL     1       3.086   4.559  18.528  0.00  0.00    +0.000 A 
ENDROOT
BRANCH   8  11
ATOM     11  N   UNL     1       5.394   5.214  15.658  0.00  0.00    +0.000 N 
ATOM     12  C   UNL     1       4.984   4.531  14.435  0.00  0.00    +0.000 C 
ATOM     13  C   UNL     1       6.246   3.791  14.008  0.00  0.00    +0.000 C 
ATOM     14  C   UNL     1       7.357   4.745  14.409  0.00  0.00    +0.000 C 
ATOM     15  C   UNL     1       6.849   5.385  15.702  0.00  0.00    +0.000 C 
ENDBRANCH   8  11
BRANCH   1  17
ATOM     16  O   UNL     1       3.634   1.500  18.731  0.00  0.00    +0.000 OA
ATOM     17  C   UNL     1       2.563   2.082  18.804  0.00  0.00    +0.000 C 
BRANCH  17  18
ATOM     18  O   UNL     1       1.392   1.473  18.516  0.00  0.00    +0.000 OA
ATOM     19  H   UNL     1       1.166   1.411  17.571  0.00  0.00    +0.000 HD
ENDBRANCH  17  18
ENDBRANCH   1  17
BRANCH   4  20
ATOM     20  O   UNL     1       1.995   7.397  20.588  0.00  0.00    +0.000 OA
ATOM     21  H   UNL     1       2.272   7.457  21.513  0.00  0.00    +0.000 HD
ENDBRANCH   4  20
TORSDOF 4
ENDMDL
MODEL 6
REMARK VINA RESULT:      -6.8      3.042      4.894
REMARK  Name = 
REMARK  4 active torsions:
REMARK  status: ('A' for Active; 'I' for Inactive)
REMARK    1  A    between atoms: C_2  and  O_3
REMARK    2  A    between atoms: C_2  and  C_4
REMARK    3  A    between atoms: C_7  and  O_8
REMARK    4  A    between atoms: C_12  and  N_13
REMARK                            x       y       z     vdW  Elec       q    Type
REMARK                         _______ _______ _______ _____ _____    ______ ____
ROOT
ATOM      1  C   UNL     1       1.966   5.563  20.041  0.00  0.00    +0.000 A 
ATOM      2  C   UNL     1       0.854   4.758  20.333  0.00  0.00    +0.000 A 
ATOM      3  C   UNL     1       0.891   3.399  20.057  0.00  0.00    +0.000 A 
ATOM      4  C   UNL     1       2.022   2.858  19.447  0.00  0.00    +0.000 A 
ATOM      5  C   UNL     1       3.134   3.636  19.096  0.00  0.00    +0.000 A 
ATOM      6  N   UNL     1       4.174   3.068  18.457  0.00  0.00    +0.000 NA
ATOM      7  C   UNL     1       5.232   3.841  18.108  0.00  0.00    +0.000 A 
ATOM      8  C   UNL     1       5.382   5.190  18.400  0.00  0.00    +0.000 A 
ATOM      9  C   UNL     1       4.291   5.745  19.077  0.00  0.00    +0.000 A 
ATOM     10  C   UNL     1       3.123   5.009  19.417  0.00  0.00    +0.000 A 
ENDROOT
BRANCH   8  11
ATOM     11  N   UNL     1       6.484   5.938  18.061  0.00  0.00    +0.000 N 
ATOM     12  C   UNL     1       7.788   5.868  18.712  0.00  0.00    +0.000 C 
ATOM     13  C   UNL     1       8.274   7.312  18.676  0.00  0.00    +0.000 C 
ATOM     14  C   UNL     1       7.739   7.822  17.350  0.00  0.00    +0.000 C 
ATOM     15  C   UNL     1       6.390   7.119  17.198  0.00  0.00    +0.000 C 
ENDBRANCH   8  11
BRANCH   1  17
ATOM     16  O   UNL     1       1.899   7.893  19.478  0.00  0.00    +0.000 OA
ATOM     17  C   UNL     1       1.858   7.021  20.331  0.00  0.00    +0.000 C 
BRANCH  17  18
ATOM     18  O   UNL     1       1.703   7.303  21.643  0.00  0.00    +0.000 OA
ATOM     19  H   UNL     1       0.933   6.895  22.077  0.00  0.00    +0.000 HD
ENDBRANCH  17  18
ENDBRANCH   1  17
BRANCH   4  20
ATOM     20  O   UNL     1       2.037   1.509  19.173  0.00  0.00    +0.000 OA
ATOM     21  H   UNL     1       1.153   1.133  19.295  0.00  0.00    +0.000 HD
ENDBRANCH   4  20
TORSDOF 4
ENDMDL
MODEL 7
REMARK VINA RESULT:      -6.7      0.642      1.121
REMARK  Name = 
REMARK  4 active torsions:
REMARK  status: ('A' for Active; 'I' for Inactive)
REMARK    1  A    between atoms: C_2  and  O_3
REMARK    2  A    between atoms: C_2  and  C_4
REMARK    3  A    between atoms: C_7  and  O_8
REMARK    4  A    between atoms: C_12  and  N_13
REMARK                            x       y       z     vdW  Elec       q    Type
REMARK                         _______ _______ _______ _____ _____    ______ ____
ROOT
ATOM      1  C   UNL     1       2.710   3.801  19.963  0.00  0.00    +0.000 A 
ATOM      2  C   UNL     1       3.421   2.835  19.234  0.00  0.00    +0.000 A 
ATOM      3  C   UNL     1       4.142   3.207  18.109  0.00  0.00    +0.000 A 
ATOM      4  C   UNL     1       4.114   4.536  17.691  0.00  0.00    +0.000 A 
ATOM      5  C   UNL     1       3.378   5.523  18.363  0.00  0.00    +0.000 A 
ATOM      6  N   UNL     1       3.343   6.779  17.879  0.00  0.00    +0.000 NA
ATOM      7  C   UNL     1       2.610   7.714  18.532  0.00  0.00    +0.000 A 
ATOM      8  C   UNL     1       1.915   7.517  19.717  0.00  0.00    +0.000 A 
ATOM      9  C   UNL     1       1.985   6.206  20.201  0.00  0.00    +0.000 A 
ATOM     10  C   UNL     1       2.681   5.162  19.534  0.00  0.00    +0.000 A 
ENDROOT
BRANCH   8  11
ATOM     11  N   UNL     1       1.209   8.497  20.374  0.00  0.00    +0.000 N 
ATOM     12  C   UNL     1       0.696   9.722  19.768  0.00  0.00    +0.000 C 
ATOM     13  C   UNL     1       0.854  10.752  20.879  0.00  0.00    +0.000 C 
ATOM     14  C   UNL     1       0.569   9.951  22.136  0.00  0.00    +0.000 C 
ATOM     15  C   UNL     1       1.152   8.569  21.836  0.00  0.00    +0.000 C 
ENDBRANCH   8  11
BRANCH   1  17
ATOM     16  O   UNL     1       2.384   3.237  22.271  0.00  0.00    +0.000 OA
ATOM     17  C   UNL     1       1.928   3.338  21.144  0.00  0.00    +0.000 C 
BRANCH  17  18
ATOM     18  O   UNL     1       0.642   3.038  20.858  0.00  0.00    +0.000 OA
ATOM     19  H   UNL     1       0.168   3.683  20.303  0.00  0.00    +0.000 HD
ENDBRANCH  17  18
ENDBRANCH   1  17
BRANCH   4  20
ATOM     20  O   UNL     1       4.829   4.886  16.568  0.00  0.00    +0.000 OA
ATOM     21  H   UNL     1       4.261   5.361  15.944  0.00  0.00    +0.000 HD
ENDBRANCH   4  20
TORSDOF 4
ENDMDL
MODEL 8
REMARK VINA RESULT:      -6.6      4.429      7.280
REMARK  Name = 
REMARK  4 active torsions:
REMARK  status: ('A' for Active; 'I' for Inactive)
REMARK    1  A    between atoms: C_2  and  O_3
REMARK    2  A    between atoms: C_2  and  C_4
REMARK    3  A    between atoms: C_7  and  O_8
REMARK    4  A    between atoms: C_12  and  N_13
REMARK                            x       y       z     vdW  Elec       q    Type
REMARK                         _______ _______ _______ _____ _____    ______ ____
ROOT
ATOM      1  C   UNL     1       4.648   3.967  17.595  0.00  0.00    +0.000 A 
ATOM      2  C   UNL     1       4.843   4.497  18.881  0.00  0.00    +0.000 A 
ATOM      3  C   UNL     1       5.849   5.426  19.102  0.00  0.00    +0.000 A 
ATOM      4  C   UNL     1       6.686   5.788  18.048  0.00  0.00    +0.000 A 
ATOM      5  C   UNL     1       6.556   5.247  16.761  0.00  0.00    +0.000 A 
ATOM      6  N   UNL     1       7.430   5.592  15.798  0.00  0.00    +0.000 NA
ATOM      7  C   UNL     1       7.299   5.043  14.565  0.00  0.00    +0.000 A 
ATOM      8  C   UNL     1       6.291   4.176  14.167  0.00  0.00    +0.000 A 
ATOM      9  C   UNL     1       5.391   3.851  15.187  0.00  0.00    +0.000 A 
ATOM     10  C   UNL     1       5.506   4.338  16.517  0.00  0.00    +0.000 A 
ENDROOT
BRANCH   8  11
ATOM     11  N   UNL     1       6.166   3.663  12.897  0.00  0.00    +0.000 N 
ATOM     12  C   UNL     1       4.912   3.284  12.255  0.00  0.00    +0.000 C 
ATOM     13  C   UNL     1       5.299   2.065  11.427  0.00  0.00    +0.000 C 
ATOM     14  C   UNL     1       6.708   2.393  10.968  0.00  0.00    +0.000 C 
ATOM     15  C   UNL     1       7.317   3.150  12.148  0.00  0.00    +0.000 C 
ENDBRANCH   8  11
BRANCH   1  17
ATOM     16  O   UNL     1       2.465   3.194  16.972  0.00  0.00    +0.000 OA
ATOM     17  C   UNL     1       3.573   2.950  17.423  0.00  0.00    +0.000 C 
BRANCH  17  18
ATOM     18  O   UNL     1       3.935   1.708  17.812  0.00  0.00    +0.000 OA
ATOM     19  H   UNL     1       3.287   1.002  17.637  0.00  0.00    +0.000 HD
ENDBRANCH  17  18
ENDBRANCH   1  17
BRANCH   4  20
ATOM     20  O   UNL     1       7.684   6.705  18.289  0.00  0.00    +0.000 OA
ATOM     21  H   UNL     1       8.550   6.271  18.263  0.00  0.00    +0.000 HD
ENDBRANCH   4  20
TORSDOF 4
ENDMDL
MODEL 9
REMARK VINA RESULT:      -6.6      1.087      1.341
REMARK  Name = 
REMARK  4 active torsions:
REMARK  status: ('A' for Active; 'I' for Inactive)
REMARK    1  A    between atoms: C_2  and  O_3
REMARK    2  A    between atoms: C_2  and  C_4
REMARK    3  A    between atoms: C_7  and  O_8
REMARK    4  A    between atoms: C_12  and  N_13
REMARK                            x       y       z     vdW  Elec       q    Type
REMARK                         _______ _______ _______ _____ _____    ______ ____
ROOT
ATOM      1  C   UNL     1       2.574   3.847  20.028  0.00  0.00    +0.000 A 
ATOM      2  C   UNL     1       3.253   2.998  19.139  0.00  0.00    +0.000 A 
ATOM      3  C   UNL     1       3.881   3.526  18.020  0.00  0.00    +0.000 A 
ATOM      4  C   UNL     1       3.792   4.894  17.770  0.00  0.00    +0.000 A 
ATOM      5  C   UNL     1       3.084   5.769  18.607  0.00  0.00    +0.000 A 
ATOM      6  N   UNL     1       2.984   7.072  18.283  0.00  0.00    +0.000 NA
ATOM      7  C   UNL     1       2.279   7.898  19.096  0.00  0.00    +0.000 A 
ATOM      8  C   UNL     1       1.677   7.538  20.293  0.00  0.00    +0.000 A 
ATOM      9  C   UNL     1       1.813   6.182  20.607  0.00  0.00    +0.000 A 
ATOM     10  C   UNL     1       2.483   5.248  19.771  0.00  0.00    +0.000 A 
ENDROOT
BRANCH   8  11
ATOM     11  N   UNL     1       0.998   8.409  21.111  0.00  0.00    +0.000 N 
ATOM     12  C   UNL     1       1.611   9.366  22.026  0.00  0.00    +0.000 C 
ATOM     13  C   UNL     1       0.658   9.375  23.213  0.00  0.00    +0.000 C 
ATOM     14  C   UNL     1      -0.703   9.200  22.564  0.00  0.00    +0.000 C 
ATOM     15  C   UNL     1      -0.435   8.265  21.385  0.00  0.00    +0.000 C 
ENDBRANCH   8  11
BRANCH   1  17
ATOM     16  O   UNL     1       2.425   3.018  22.273  0.00  0.00    +0.000 OA
ATOM     17  C   UNL     1       1.891   3.221  21.195  0.00  0.00    +0.000 C 
BRANCH  17  18
ATOM     18  O   UNL     1       0.602   2.894  20.956  0.00  0.00    +0.000 OA
ATOM     19  H   UNL     1       0.125   3.471  20.333  0.00  0.00    +0.000 HD
ENDBRANCH  17  18
ENDBRANCH   1  17
BRANCH   4  20
ATOM     20  O   UNL     1       4.415   5.399  16.652  0.00  0.00    +0.000 OA
ATOM     21  H   UNL     1       5.361   5.517  16.821  0.00  0.00    +0.000 HD
ENDBRANCH   4  20
TORSDOF 4
ENDMDL
