MODEL 1
REMARK VINA RESULT:      -6.6      0.000      0.000
REMARK  Name = 
REMARK  6 active torsions:
REMARK  status: ('A' for Active; 'I' for Inactive)
REMARK    1  A    between atoms: C_1  and  O_2
REMARK    2  A    between atoms: O_2  and  C_3
REMARK    3  A    between atoms: C_3  and  C_5
REMARK    4  A    between atoms: C_11  and  O_12
REMARK    5  A    between atoms: C_13  and  O_14
REMARK    6  A    between atoms: O_14  and  C_15
REMARK                            x       y       z     vdW  Elec       q    Type
REMARK                         _______ _______ _______ _____ _____    ______ ____
ROOT
ATOM      1  C   UNL     1       6.542   6.381  16.311  0.00  0.00    +0.000 C 
ATOM      2  N   UNL     1       7.457   5.379  15.691  0.00  0.00    +0.000 NA
ATOM      3  C   UNL     1       6.746   4.411  14.866  0.00  0.00    +0.000 C 
ATOM      4  C   UNL     1       5.722   3.605  15.666  0.00  0.00    +0.000 C 
ATOM      5  C   UNL     1       4.835   4.487  16.503  0.00  0.00    +0.000 A 
ATOM      6  C   UNL     1       3.625   3.976  17.000  0.00  0.00    +0.000 A 
ATOM      7  C   UNL     1       2.775   4.767  17.783  0.00  0.00    +0.000 A 
ATOM      8  C   UNL     1       3.124   6.086  18.075  0.00  0.00    +0.000 A 
ATOM      9  C   UNL     1       4.337   6.586  17.579  0.00  0.00    +0.000 A 
ATOM     10  C   UNL     1       5.226   5.797  16.822  0.00  0.00    +0.000 A 
ATOM     11  H   UNL     1       7.935   4.897  16.459  0.00  0.00    +0.000 HD
ENDROOT
BRANCH   1  12
ATOM     12  C   UNL     1       7.345   7.062  17.449  0.00  0.00    +0.000 C 
ATOM     13  O   UNL     1       7.661   6.509  18.499  0.00  0.00    +0.000 OA
BRANCH  12  15
ATOM     14  C   UNL     1       8.325   9.058  18.181  0.00  0.00    +0.000 C 
ATOM     15  O   UNL     1       7.630   8.363  17.144  0.00  0.00    +0.000 OA
ENDBRANCH  12  15
ENDBRANCH   1  12
BRANCH   7  16
ATOM     16  O   UNL     1       1.613   4.214  18.236  0.00  0.00    +0.000 OA
ATOM     17  H   UNL     1       1.211   4.807  18.892  0.00  0.00    +0.000 HD
ENDBRANCH   7  16
BRANCH   8  18
ATOM     18  O   UNL     1       2.429   7.009  18.808  0.00  0.00    +0.000 OA
ATOM     19  C   UNL     1       2.200   8.288  18.237  0.00  0.00    +0.000 C 
ENDBRANCH   8  18
TORSDOF 4
ENDMDL
MODEL 2
REMARK VINA RESULT:      -6.6      1.138      1.312
REMARK  Name = 
REMARK  6 active torsions:
REMARK  status: ('A' for Active; 'I' for Inactive)
REMARK    1  A    between atoms: C_1  and  O_2
REMARK    2  A    between atoms: O_2  and  C_3
REMARK    3  A    between atoms: C_3  and  C_5
REMARK    4  A    between atoms: C_11  and  O_12
REMARK    5  A    between atoms: C_13  and  O_14
REMARK    6  A    between atoms: O_14  and  C_15
REMARK                            x       y       z     vdW  Elec       q    Type
REMARK                         _______ _______ _______ _____ _____    ______ ____
ROOT
ATOM      1  C   UNL     1       6.695   5.893  17.210  0.00  0.00    +0.000 C 
ATOM      2  N   UNL     1       7.604   5.057  16.373  0.00  0.00    +0.000 NA
ATOM      3  C   UNL     1       6.938   4.523  15.191  0.00  0.00    +0.000 C 
ATOM      4  C   UNL     1       5.753   3.625  15.547  0.00  0.00    +0.000 C 
ATOM      5  C   UNL     1       4.832   4.271  16.547  0.00  0.00    +0.000 A 
ATOM      6  C   UNL     1       3.529   3.775  16.706  0.00  0.00    +0.000 A 
ATOM      7  C   UNL     1       2.645   4.349  17.627  0.00  0.00    +0.000 A 
ATOM      8  C   UNL     1       3.054   5.437  18.399  0.00  0.00    +0.000 A 
ATOM      9  C   UNL     1       4.359   5.923  18.237  0.00  0.00    +0.000 A 
ATOM     10  C   UNL     1       5.278   5.336  17.346  0.00  0.00    +0.000 A 
ATOM     11  H   UNL     1       7.931   4.288  16.966  0.00  0.00    +0.000 HD
ENDROOT
BRANCH   1  12
ATOM     12  C   UNL     1       7.384   6.043  18.591  0.00  0.00    +0.000 C 
ATOM     13  O   UNL     1       7.198   5.287  19.541  0.00  0.00    +0.000 OA
BRANCH  12  15
ATOM     14  C   UNL     1       7.781   8.193  17.755  0.00  0.00    +0.000 C 
ATOM     15  O   UNL     1       8.202   7.136  18.620  0.00  0.00    +0.000 OA
ENDBRANCH  12  15
ENDBRANCH   1  12
BRANCH   7  16
ATOM     16  O   UNL     1       1.391   3.822  17.736  0.00  0.00    +0.000 OA
ATOM     17  H   UNL     1       1.421   3.042  18.313  0.00  0.00    +0.000 HD
ENDBRANCH   7  16
BRANCH   8  18
ATOM     18  O   UNL     1       2.340   6.134  19.337  0.00  0.00    +0.000 OA
ATOM     19  C   UNL     1       2.060   5.501  20.576  0.00  0.00    +0.000 C 
ENDBRANCH   8  18
TORSDOF 4
ENDMDL
MODEL 3
REMARK VINA RESULT:      -6.4      2.668      3.835
REMARK  Name = 
REMARK  6 active torsions:
REMARK  status: ('A' for Active; 'I' for Inactive)
REMARK    1  A    between atoms: C_1  and  O_2
REMARK    2  A    between atoms: O_2  and  C_3
REMARK    3  A    between atoms: C_3  and  C_5
REMARK    4  A    between atoms: C_11  and  O_12
REMARK    5  A    between atoms: C_13  and  O_14
REMARK    6  A    between atoms: O_14  and  C_15
REMARK                            x       y       z     vdW  Elec       q    Type
REMARK                         _______ _______ _______ _____ _____    ______ ____
ROOT
ATOM      1  C   UNL     1       3.756   3.629  17.200  0.00  0.00    +0.000 C 
ATOM      2  N   UNL     1       3.922   2.262  17.772  0.00  0.00    +0.000 NA
ATOM      3  C   UNL     1       2.829   1.895  18.664  0.00  0.00    +0.000 C 
ATOM      4  C   UNL     1       2.712   2.838  19.861  0.00  0.00    +0.000 C 
ATOM      5  C   UNL     1       2.723   4.286  19.445  0.00  0.00    +0.000 A 
ATOM      6  C   UNL     1       2.260   5.264  20.339  0.00  0.00    +0.000 A 
ATOM      7  C   UNL     1       2.257   6.619  19.988  0.00  0.00    +0.000 A 
ATOM      8  C   UNL     1       2.714   7.013  18.730  0.00  0.00    +0.000 A 
ATOM      9  C   UNL     1       3.181   6.030  17.846  0.00  0.00    +0.000 A 
ATOM     10  C   UNL     1       3.230   4.665  18.192  0.00  0.00    +0.000 A 
ATOM     11  H   UNL     1       4.807   2.260  18.289  0.00  0.00    +0.000 HD
ENDROOT
BRANCH   1  12
ATOM     12  C   UNL     1       5.139   4.036  16.629  0.00  0.00    +0.000 C 
ATOM     13  O   UNL     1       5.370   4.211  15.435  0.00  0.00    +0.000 OA
BRANCH  12  15
ATOM     14  C   UNL     1       7.323   4.676  17.179  0.00  0.00    +0.000 C 
ATOM     15  O   UNL     1       6.071   4.149  17.622  0.00  0.00    +0.000 OA
ENDBRANCH  12  15
ENDBRANCH   1  12
BRANCH   7  16
ATOM     16  O   UNL     1       1.794   7.522  20.900  0.00  0.00    +0.000 OA
ATOM     17  H   UNL     1       1.904   8.420  20.545  0.00  0.00    +0.000 HD
ENDBRANCH   7  16
BRANCH   8  18
ATOM     18  O   UNL     1       2.781   8.275  18.204  0.00  0.00    +0.000 OA
ATOM     19  C   UNL     1       1.577   8.887  17.767  0.00  0.00    +0.000 C 
ENDBRANCH   8  18
TORSDOF 4
ENDMDL
MODEL 4
REMARK VINA RESULT:      -6.3      0.672      1.178
REMARK  Name = 
REMARK  6 active torsions:
REMARK  status: ('A' for Active; 'I' for Inactive)
REMARK    1  A    between atoms: C_1  and  O_2
REMARK    2  A    between atoms: O_2  and  C_3
REMARK    3  A    between atoms: C_3  and  C_5
REMARK    4  A    between atoms: C_11  and  O_12
REMARK    5  A    between atoms: C_13  and  O_14
REMARK    6  A    between atoms: O_14  and  C_15
REMARK                            x       y       z     vdW  Elec       q    Type
REMARK                         _______ _______ _______ _____ _____    ______ ____
ROOT
ATOM      1  C   UNL     1       6.555   6.290  16.237  0.00  0.00    +0.000 C 
ATOM      2  N   UNL     1       7.421   5.317  15.512  0.00  0.00    +0.000 NA
ATOM      3  C   UNL     1       6.655   4.416  14.661  0.00  0.00    +0.000 C 
ATOM      4  C   UNL     1       5.655   3.575  15.454  0.00  0.00    +0.000 C 
ATOM      5  C   UNL     1       4.823   4.415  16.387  0.00  0.00    +0.000 A 
ATOM      6  C   UNL     1       3.629   3.891  16.907  0.00  0.00    +0.000 A 
ATOM      7  C   UNL     1       2.830   4.642  17.778  0.00  0.00    +0.000 A 
ATOM      8  C   UNL     1       3.216   5.934  18.137  0.00  0.00    +0.000 A 
ATOM      9  C   UNL     1       4.414   6.446  17.618  0.00  0.00    +0.000 A 
ATOM     10  C   UNL     1       5.252   5.695  16.772  0.00  0.00    +0.000 A 
ATOM     11  H   UNL     1       7.925   4.779  16.224  0.00  0.00    +0.000 HD
ENDROOT
BRANCH   1  12
ATOM     12  C   UNL     1       7.421   6.884  17.378  0.00  0.00    +0.000 C 
ATOM     13  O   UNL     1       7.542   8.086  17.600  0.00  0.00    +0.000 OA
BRANCH  12  15
ATOM     14  C   UNL     1       7.629   5.809  19.447  0.00  0.00    +0.000 C 
ATOM     15  O   UNL     1       8.051   5.899  18.085  0.00  0.00    +0.000 OA
ENDBRANCH  12  15
ENDBRANCH   1  12
BRANCH   7  16
ATOM     16  O   UNL     1       1.681   4.078  18.249  0.00  0.00    +0.000 OA
ATOM     17  H   UNL     1       1.138   3.783  17.499  0.00  0.00    +0.000 HD
ENDBRANCH   7  16
BRANCH   8  18
ATOM     18  O   UNL     1       2.573   6.818  18.961  0.00  0.00    +0.000 OA
ATOM     19  C   UNL     1       2.221   8.090  18.438  0.00  0.00    +0.000 C 
ENDBRANCH   8  18
TORSDOF 4
ENDMDL
MODEL 5
REMARK VINA RESULT:      -6.3      2.814      3.863
REMARK  Name = 
REMARK  6 active torsions:
REMARK  status: ('A' for Active; 'I' for Inactive)
REMARK    1  A    between atoms: C_1  and  O_2
REMARK    2  A    between atoms: O_2  and  C_3
REMARK    3  A    between atoms: C_3  and  C_5
REMARK    4  A    between atoms: C_11  and  O_12
REMARK    5  A    between atoms: C_13  and  O_14
REMARK    6  A    between atoms: O_14  and  C_15
REMARK                            x       y       z     vdW  Elec       q    Type
REMARK                         _______ _______ _______ _____ _____    ______ ____
ROOT
ATOM      1  C   UNL     1       3.886   3.692  17.201  0.00  0.00    +0.000 C 
ATOM      2  N   UNL     1       4.072   2.328  17.776  0.00  0.00    +0.000 NA
ATOM      3  C   UNL     1       2.972   1.936  18.647  0.00  0.00    +0.000 C 
ATOM      4  C   UNL     1       2.813   2.875  19.843  0.00  0.00    +0.000 C 
ATOM      5  C   UNL     1       2.800   4.323  19.429  0.00  0.00    +0.000 A 
ATOM      6  C   UNL     1       2.299   5.289  20.315  0.00  0.00    +0.000 A 
ATOM      7  C   UNL     1       2.272   6.645  19.965  0.00  0.00    +0.000 A 
ATOM      8  C   UNL     1       2.743   7.051  18.716  0.00  0.00    +0.000 A 
ATOM      9  C   UNL     1       3.246   6.079  17.839  0.00  0.00    +0.000 A 
ATOM     10  C   UNL     1       3.319   4.715  18.185  0.00  0.00    +0.000 A 
ATOM     11  H   UNL     1       4.948   2.346  18.307  0.00  0.00    +0.000 HD
ENDROOT
BRANCH   1  12
ATOM     12  C   UNL     1       5.269   4.130  16.655  0.00  0.00    +0.000 C 
ATOM     13  O   UNL     1       6.259   4.325  17.356  0.00  0.00    +0.000 OA
BRANCH  12  15
ATOM     14  C   UNL     1       6.525   4.257  14.683  0.00  0.00    +0.000 C 
ATOM     15  O   UNL     1       5.236   4.297  15.300  0.00  0.00    +0.000 OA
ENDBRANCH  12  15
ENDBRANCH   1  12
BRANCH   7  16
ATOM     16  O   UNL     1       1.773   7.537  20.869  0.00  0.00    +0.000 OA
ATOM     17  H   UNL     1       0.935   7.198  21.223  0.00  0.00    +0.000 HD
ENDBRANCH   7  16
BRANCH   8  18
ATOM     18  O   UNL     1       2.791   8.314  18.192  0.00  0.00    +0.000 OA
ATOM     19  C   UNL     1       1.571   8.931  17.810  0.00  0.00    +0.000 C 
ENDBRANCH   8  18
TORSDOF 4
ENDMDL
MODEL 6
REMARK VINA RESULT:      -6.3      2.381      3.770
REMARK  Name = 
REMARK  6 active torsions:
REMARK  status: ('A' for Active; 'I' for Inactive)
REMARK    1  A    between atoms: C_1  and  O_2
REMARK    2  A    between atoms: O_2  and  C_3
REMARK    3  A    between atoms: C_3  and  C_5
REMARK    4  A    between atoms: C_11  and  O_12
REMARK    5  A    between atoms: C_13  and  O_14
REMARK    6  A    between atoms: O_14  and  C_15
REMARK                            x       y       z     vdW  Elec       q    Type
REMARK                         _______ _______ _______ _____ _____    ______ ____
ROOT
ATOM      1  C   UNL     1       6.195   4.269  16.440  0.00  0.00    +0.000 C 
ATOM      2  N   UNL     1       7.471   4.977  16.753  0.00  0.00    +0.000 NA
ATOM      3  C   UNL     1       7.811   4.911  18.169  0.00  0.00    +0.000 C 
ATOM      4  C   UNL     1       6.746   5.558  19.054  0.00  0.00    +0.000 C 
ATOM      5  C   UNL     1       5.360   5.074  18.720  0.00  0.00    +0.000 A 
ATOM      6  C   UNL     1       4.322   5.261  19.645  0.00  0.00    +0.000 A 
ATOM      7  C   UNL     1       3.020   4.825  19.368  0.00  0.00    +0.000 A 
ATOM      8  C   UNL     1       2.742   4.188  18.158  0.00  0.00    +0.000 A 
ATOM      9  C   UNL     1       3.785   4.011  17.237  0.00  0.00    +0.000 A 
ATOM     10  C   UNL     1       5.092   4.476  17.478  0.00  0.00    +0.000 A 
ATOM     11  H   UNL     1       7.346   5.954  16.470  0.00  0.00    +0.000 HD
ENDROOT
BRANCH   1  12
ATOM     12  C   UNL     1       5.756   4.758  15.036  0.00  0.00    +0.000 C 
ATOM     13  O   UNL     1       5.538   5.932  14.749  0.00  0.00    +0.000 OA
BRANCH  12  15
ATOM     14  C   UNL     1       6.404   3.840  12.982  0.00  0.00    +0.000 C 
ATOM     15  O   UNL     1       5.618   3.711  14.169  0.00  0.00    +0.000 OA
ENDBRANCH  12  15
ENDBRANCH   1  12
BRANCH   7  16
ATOM     16  O   UNL     1       2.054   5.036  20.308  0.00  0.00    +0.000 OA
ATOM     17  H   UNL     1       1.771   4.181  20.673  0.00  0.00    +0.000 HD
ENDBRANCH   7  16
BRANCH   8  18
ATOM     18  O   UNL     1       1.549   3.689  17.713  0.00  0.00    +0.000 OA
ATOM     19  C   UNL     1       0.946   2.632  18.444  0.00  0.00    +0.000 C 
ENDBRANCH   8  18
TORSDOF 4
ENDMDL
MODEL 7
REMARK VINA RESULT:      -6.1      2.182      4.666
REMARK  Name = 
REMARK  6 active torsions:
REMARK  status: ('A' for Active; 'I' for Inactive)
REMARK    1  A    between atoms: C_1  and  O_2
REMARK    2  A    between atoms: O_2  and  C_3
REMARK    3  A    between atoms: C_3  and  C_5
REMARK    4  A    between atoms: C_11  and  O_12
REMARK    5  A    between atoms: C_13  and  O_14
REMARK    6  A    between atoms: O_14  and  C_15
REMARK                            x       y       z     vdW  Elec       q    Type
REMARK                         _______ _______ _______ _____ _____    ______ ____
ROOT
ATOM      1  C   UNL     1       2.933   5.379  19.103  0.00  0.00    +0.000 C 
ATOM      2  N   UNL     1       1.748   4.652  18.565  0.00  0.00    +0.000 NA
ATOM      3  C   UNL     1       2.075   3.301  18.126  0.00  0.00    +0.000 C 
ATOM      4  C   UNL     1       3.117   3.288  17.008  0.00  0.00    +0.000 C 
ATOM      5  C   UNL     1       4.309   4.147  17.334  0.00  0.00    +0.000 A 
ATOM      6  C   UNL     1       5.504   3.970  16.619  0.00  0.00    +0.000 A 
ATOM      7  C   UNL     1       6.633   4.751  16.894  0.00  0.00    +0.000 A 
ATOM      8  C   UNL     1       6.581   5.721  17.896  0.00  0.00    +0.000 A 
ATOM      9  C   UNL     1       5.381   5.895  18.601  0.00  0.00    +0.000 A 
ATOM     10  C   UNL     1       4.222   5.148  18.315  0.00  0.00    +0.000 A 
ATOM     11  H   UNL     1       1.397   5.199  17.773  0.00  0.00    +0.000 HD
ENDROOT
BRANCH   1  12
ATOM     12  C   UNL     1       2.548   6.880  19.139  0.00  0.00    +0.000 C 
ATOM     13  O   UNL     1       2.198   7.481  20.152  0.00  0.00    +0.000 OA
BRANCH  12  15
ATOM     14  C   UNL     1       2.070   8.756  17.822  0.00  0.00    +0.000 C 
ATOM     15  O   UNL     1       2.621   7.440  17.895  0.00  0.00    +0.000 OA
ENDBRANCH  12  15
ENDBRANCH   1  12
BRANCH   7  16
ATOM     16  O   UNL     1       7.765   4.531  16.165  0.00  0.00    +0.000 OA
ATOM     17  H   UNL     1       7.769   5.122  15.394  0.00  0.00    +0.000 HD
ENDBRANCH   7  16
BRANCH   8  18
ATOM     18  O   UNL     1       7.571   6.569  18.314  0.00  0.00    +0.000 OA
ATOM     19  C   UNL     1       7.742   7.796  17.621  0.00  0.00    +0.000 C 
ENDBRANCH   8  18
TORSDOF 4
ENDMDL
MODEL 8
REMARK VINA RESULT:      -6.1      2.793      4.127
REMARK  Name = 
REMARK  6 active torsions:
REMARK  status: ('A' for Active; 'I' for Inactive)
REMARK    1  A    between atoms: C_1  and  O_2
REMARK    2  A    between atoms: O_2  and  C_3
REMARK    3  A    between atoms: C_3  and  C_5
REMARK    4  A    between atoms: C_11  and  O_12
REMARK    5  A    between atoms: C_13  and  O_14
REMARK    6  A    between atoms: O_14  and  C_15
REMARK                            x       y       z     vdW  Elec       q    Type
REMARK                         _______ _______ _______ _____ _____    ______ ____
ROOT
ATOM      1  C   UNL     1       5.334   4.379  18.859  0.00  0.00    +0.000 C 
ATOM      2  N   UNL     1       6.200   4.101  17.677  0.00  0.00    +0.000 NA
ATOM      3  C   UNL     1       6.673   5.321  17.034  0.00  0.00    +0.000 C 
ATOM      4  C   UNL     1       5.525   6.188  16.516  0.00  0.00    +0.000 C 
ATOM      5  C   UNL     1       4.460   6.401  17.560  0.00  0.00    +0.000 A 
ATOM      6  C   UNL     1       3.539   7.448  17.402  0.00  0.00    +0.000 A 
ATOM      7  C   UNL     1       2.535   7.676  18.351  0.00  0.00    +0.000 A 
ATOM      8  C   UNL     1       2.443   6.857  19.477  0.00  0.00    +0.000 A 
ATOM      9  C   UNL     1       3.364   5.810  19.623  0.00  0.00    +0.000 A 
ATOM     10  C   UNL     1       4.357   5.538  18.662  0.00  0.00    +0.000 A 
ATOM     11  H   UNL     1       5.638   3.555  17.017  0.00  0.00    +0.000 HD
ENDROOT
BRANCH   1  12
ATOM     12  C   UNL     1       4.591   3.055  19.178  0.00  0.00    +0.000 C 
ATOM     13  O   UNL     1       4.759   2.398  20.202  0.00  0.00    +0.000 OA
BRANCH  12  15
ATOM     14  C   UNL     1       2.524   2.117  18.608  0.00  0.00    +0.000 C 
ATOM     15  O   UNL     1       3.748   2.703  18.163  0.00  0.00    +0.000 OA
ENDBRANCH  12  15
ENDBRANCH   1  12
BRANCH   7  16
ATOM     16  O   UNL     1       1.670   8.710  18.141  0.00  0.00    +0.000 OA
ATOM     17  H   UNL     1       2.009   9.271  17.424  0.00  0.00    +0.000 HD
ENDBRANCH   7  16
BRANCH   8  18
ATOM     18  O   UNL     1       1.546   6.924  20.509  0.00  0.00    +0.000 OA
ATOM     19  C   UNL     1       1.432   8.146  21.223  0.00  0.00    +0.000 C 
ENDBRANCH   8  18
TORSDOF 4
ENDMDL
MODEL 9
REMARK VINA RESULT:      -6.1      2.532      5.659
REMARK  Name = 
REMARK  6 active torsions:
REMARK  status: ('A' for Active; 'I' for Inactive)
REMARK    1  A    between atoms: C_1  and  O_2
REMARK    2  A    between atoms: O_2  and  C_3
REMARK    3  A    between atoms: C_3  and  C_5
REMARK    4  A    between atoms: C_11  and  O_12
REMARK    5  A    between atoms: C_13  and  O_14
REMARK    6  A    between atoms: O_14  and  C_15
REMARK                            x       y       z     vdW  Elec       q    Type
REMARK                         _______ _______ _______ _____ _____    ______ ____
ROOT
ATOM      1  C   UNL     1       2.574   4.259  17.922  0.00  0.00    +0.000 C 
ATOM      2  N   UNL     1       2.034   5.042  19.070  0.00  0.00    +0.000 NA
ATOM      3  C   UNL     1       2.208   6.478  18.896  0.00  0.00    +0.000 C 
ATOM      4  C   UNL     1       3.679   6.876  18.774  0.00  0.00    +0.000 C 
ATOM      5  C   UNL     1       4.414   6.029  17.769  0.00  0.00    +0.000 A 
ATOM      6  C   UNL     1       5.642   6.475  17.258  0.00  0.00    +0.000 A 
ATOM      7  C   UNL     1       6.354   5.714  16.323  0.00  0.00    +0.000 A 
ATOM      8  C   UNL     1       5.841   4.493  15.883  0.00  0.00    +0.000 A 
ATOM      9  C   UNL     1       4.616   4.052  16.404  0.00  0.00    +0.000 A 
ATOM     10  C   UNL     1       3.901   4.783  17.374  0.00  0.00    +0.000 A 
ATOM     11  H   UNL     1       2.536   4.729  19.907  0.00  0.00    +0.000 HD
ENDROOT
BRANCH   1  12
ATOM     12  C   UNL     1       2.698   2.792  18.410  0.00  0.00    +0.000 C 
ATOM     13  O   UNL     1       2.536   1.809  17.693  0.00  0.00    +0.000 OA
BRANCH  12  15
ATOM     14  C   UNL     1       4.300   2.265  20.033  0.00  0.00    +0.000 C 
ATOM     15  O   UNL     1       2.983   2.737  19.745  0.00  0.00    +0.000 OA
ENDBRANCH  12  15
ENDBRANCH   1  12
BRANCH   7  16
ATOM     16  O   UNL     1       7.543   6.201  15.863  0.00  0.00    +0.000 OA
ATOM     17  H   UNL     1       7.472   7.163  15.750  0.00  0.00    +0.000 HD
ENDBRANCH   7  16
BRANCH   8  18
ATOM     18  O   UNL     1       6.379   3.619  14.978  0.00  0.00    +0.000 OA
ATOM     19  C   UNL     1       6.193   3.882  13.596  0.00  0.00    +0.000 C 
ENDBRANCH   8  18
TORSDOF 4
ENDMDL
