MODEL 1
REMARK VINA RESULT:      -9.1      0.000      0.000
REMARK  Name = 
REMARK  8 active torsions:
REMARK  status: ('A' for Active; 'I' for Inactive)
REMARK    1  A    between atoms: C_1  and  O_2
REMARK    2  A    between atoms: O_2  and  C_3
REMARK    3  A    between atoms: C_6  and  N_7
REMARK    4  A    between atoms: C_8  and  C_10
REMARK    5  A    between atoms: C_10  and  S_11
REMARK    6  A    between atoms: S_11  and  C_12
REMARK    7  A    between atoms: C_21  and  N_22
REMARK    8  A    between atoms: C_25  and  C_26
REMARK                            x       y       z     vdW  Elec       q    Type
REMARK                         _______ _______ _______ _____ _____    ______ ____
ROOT
ATOM      1  C   UNL     1       2.669   6.881  18.797  0.00  0.00    +0.000 A 
ATOM      2  N   UNL     1       2.141   6.530  19.985  0.00  0.00    +0.000 NA
ATOM      3  C   UNL     1       1.943   5.194  20.129  0.00  0.00    +0.000 A 
ATOM      4  C   UNL     1       2.135   4.463  21.300  0.00  0.00    +0.000 A 
ATOM      5  C   UNL     1       1.863   3.091  21.340  0.00  0.00    +0.000 A 
ATOM      6  C   UNL     1       1.155   2.526  20.292  0.00  0.00    +0.000 A 
ATOM      7  C   UNL     1       1.046   3.241  19.106  0.00  0.00    +0.000 A 
ATOM      8  C   UNL     1       1.776   4.421  18.989  0.00  0.00    +0.000 A 
ATOM      9  N   UNL     1       2.532   4.741  17.918  0.00  0.00    +0.000 NA
ATOM     10  C   UNL     1       3.240   5.894  18.001  0.00  0.00    +0.000 A 
ENDROOT
BRANCH  10  11
ATOM     11  N   UNL     1       4.601   5.941  17.647  0.00  0.00    +0.000 N 
ATOM     12  C   UNL     1       4.989   6.799  16.512  0.00  0.00    +0.000 C 
ATOM     13  C   UNL     1       5.300   5.994  15.227  0.00  0.00    +0.000 C 
ATOM     14  C   UNL     1       6.206   4.770  15.444  0.00  0.00    +0.000 C 
ATOM     15  C   UNL     1       6.280   3.892  14.187  0.00  0.00    +0.000 C 
ATOM     16  C   UNL     1       5.707   3.949  16.634  0.00  0.00    +0.000 C 
ATOM     17  C   UNL     1       5.507   4.812  17.877  0.00  0.00    +0.000 C 
ENDBRANCH  10  11
BRANCH   1  18
ATOM     18  S   UNL     1       2.196   8.412  17.969  0.00  0.00    +0.000 S 
BRANCH  18  19
ATOM     19  C   UNL     1       1.748   9.489  19.344  0.00  0.00    +0.000 C 
BRANCH  19  21
ATOM     20  N   UNL     1      -0.297  10.315  18.300  0.00  0.00    +0.000 N 
ATOM     21  C   UNL     1       0.262   9.756  19.439  0.00  0.00    +0.000 C 
ATOM     22  O   UNL     1      -0.352   9.367  20.419  0.00  0.00    +0.000 OA
ATOM     23  H   UNL     1       0.344  10.488  17.531  0.00  0.00    +0.000 HD
BRANCH  20  27
ATOM     24  C   UNL     1      -4.375  11.100  17.607  0.00  0.00    +0.000 A 
ATOM     25  C   UNL     1      -3.703  11.802  18.598  0.00  0.00    +0.000 A 
ATOM     26  C   UNL     1      -2.339  11.593  18.826  0.00  0.00    +0.000 A 
ATOM     27  C   UNL     1      -1.655  10.629  18.089  0.00  0.00    +0.000 A 
ATOM     28  C   UNL     1      -2.325   9.930  17.083  0.00  0.00    +0.000 A 
ATOM     29  C   UNL     1      -3.695  10.168  16.856  0.00  0.00    +0.000 A 
BRANCH  24  31
ATOM     30  C   UNL     1      -6.004  12.744  17.108  0.00  0.00    +0.000 C 
ATOM     31  O   UNL     1      -5.697  11.414  17.494  0.00  0.00    +0.000 OA
ENDBRANCH  24  31
ENDBRANCH  20  27
ENDBRANCH  19  21
ENDBRANCH  18  19
ENDBRANCH   1  18
TORSDOF 6
ENDMDL
MODEL 2
REMARK VINA RESULT:      -9.1      0.568      1.042
REMARK  Name = 
REMARK  8 active torsions:
REMARK  status: ('A' for Active; 'I' for Inactive)
REMARK    1  A    between atoms: C_1  and  O_2
REMARK    2  A    between atoms: O_2  and  C_3
REMARK    3  A    between atoms: C_6  and  N_7
REMARK    4  A    between atoms: C_8  and  C_10
REMARK    5  A    between atoms: C_10  and  S_11
REMARK    6  A    between atoms: S_11  and  C_12
REMARK    7  A    between atoms: C_21  and  N_22
REMARK    8  A    between atoms: C_25  and  C_26
REMARK                            x       y       z     vdW  Elec       q    Type
REMARK                         _______ _______ _______ _____ _____    ______ ____
ROOT
ATOM      1  C   UNL     1       2.721   6.800  18.605  0.00  0.00    +0.000 A 
ATOM      2  N   UNL     1       2.194   6.557  19.820  0.00  0.00    +0.000 NA
ATOM      3  C   UNL     1       1.971   5.242  20.074  0.00  0.00    +0.000 A 
ATOM      4  C   UNL     1       2.157   4.606  21.301  0.00  0.00    +0.000 A 
ATOM      5  C   UNL     1       1.860   3.247  21.455  0.00  0.00    +0.000 A 
ATOM      6  C   UNL     1       1.134   2.611  20.461  0.00  0.00    +0.000 A 
ATOM      7  C   UNL     1       1.031   3.228  19.220  0.00  0.00    +0.000 A 
ATOM      8  C   UNL     1       1.783   4.380  19.004  0.00  0.00    +0.000 A 
ATOM      9  N   UNL     1       2.538   4.597  17.906  0.00  0.00    +0.000 NA
ATOM     10  C   UNL     1       3.268   5.739  17.890  0.00  0.00    +0.000 A 
ENDROOT
BRANCH  10  11
ATOM     11  N   UNL     1       4.627   5.731  17.527  0.00  0.00    +0.000 N 
ATOM     12  C   UNL     1       5.069   6.676  16.485  0.00  0.00    +0.000 C 
ATOM     13  C   UNL     1       5.318   5.993  15.118  0.00  0.00    +0.000 C 
ATOM     14  C   UNL     1       6.138   4.694  15.194  0.00  0.00    +0.000 C 
ATOM     15  C   UNL     1       6.146   3.951  13.850  0.00  0.00    +0.000 C 
ATOM     16  C   UNL     1       5.589   3.787  16.296  0.00  0.00    +0.000 C 
ATOM     17  C   UNL     1       5.455   4.524  17.625  0.00  0.00    +0.000 C 
ENDBRANCH  10  11
BRANCH   1  18
ATOM     18  S   UNL     1       2.271   8.265  17.656  0.00  0.00    +0.000 S 
BRANCH  18  19
ATOM     19  C   UNL     1       2.026   9.511  18.936  0.00  0.00    +0.000 C 
BRANCH  19  21
ATOM     20  N   UNL     1      -0.156  10.307  18.187  0.00  0.00    +0.000 N 
ATOM     21  C   UNL     1       0.569   9.778  19.244  0.00  0.00    +0.000 C 
ATOM     22  O   UNL     1       0.109   9.413  20.313  0.00  0.00    +0.000 OA
ATOM     23  H   UNL     1       0.363  10.463  17.328  0.00  0.00    +0.000 HD
BRANCH  20  27
ATOM     24  C   UNL     1      -4.228  11.375  18.194  0.00  0.00    +0.000 A 
ATOM     25  C   UNL     1      -3.794  10.342  17.374  0.00  0.00    +0.000 A 
ATOM     26  C   UNL     1      -2.456   9.937  17.379  0.00  0.00    +0.000 A 
ATOM     27  C   UNL     1      -1.531  10.613  18.172  0.00  0.00    +0.000 A 
ATOM     28  C   UNL     1      -1.967  11.644  19.007  0.00  0.00    +0.000 A 
ATOM     29  C   UNL     1      -3.323  12.026  19.002  0.00  0.00    +0.000 A 
BRANCH  24  31
ATOM     30  C   UNL     1      -6.456  10.643  18.517  0.00  0.00    +0.000 C 
ATOM     31  O   UNL     1      -5.559  11.655  18.089  0.00  0.00    +0.000 OA
ENDBRANCH  24  31
ENDBRANCH  20  27
ENDBRANCH  19  21
ENDBRANCH  18  19
ENDBRANCH   1  18
TORSDOF 6
ENDMDL
MODEL 3
REMARK VINA RESULT:      -8.9      1.065      1.734
REMARK  Name = 
REMARK  8 active torsions:
REMARK  status: ('A' for Active; 'I' for Inactive)
REMARK    1  A    between atoms: C_1  and  O_2
REMARK    2  A    between atoms: O_2  and  C_3
REMARK    3  A    between atoms: C_6  and  N_7
REMARK    4  A    between atoms: C_8  and  C_10
REMARK    5  A    between atoms: C_10  and  S_11
REMARK    6  A    between atoms: S_11  and  C_12
REMARK    7  A    between atoms: C_21  and  N_22
REMARK    8  A    between atoms: C_25  and  C_26
REMARK                            x       y       z     vdW  Elec       q    Type
REMARK                         _______ _______ _______ _____ _____    ______ ____
ROOT
ATOM      1  C   UNL     1       2.881   6.480  18.438  0.00  0.00    +0.000 A 
ATOM      2  N   UNL     1       2.519   6.380  19.731  0.00  0.00    +0.000 NA
ATOM      3  C   UNL     1       2.175   5.123  20.114  0.00  0.00    +0.000 A 
ATOM      4  C   UNL     1       2.464   4.539  21.346  0.00  0.00    +0.000 A 
ATOM      5  C   UNL     1       2.026   3.243  21.644  0.00  0.00    +0.000 A 
ATOM      6  C   UNL     1       1.084   2.656  20.815  0.00  0.00    +0.000 A 
ATOM      7  C   UNL     1       0.872   3.210  19.559  0.00  0.00    +0.000 A 
ATOM      8  C   UNL     1       1.720   4.236  19.150  0.00  0.00    +0.000 A 
ATOM      9  N   UNL     1       2.320   4.286  17.942  0.00  0.00    +0.000 NA
ATOM     10  C   UNL     1       3.176   5.317  17.734  0.00  0.00    +0.000 A 
ENDROOT
BRANCH  10  11
ATOM     11  N   UNL     1       4.453   5.104  17.182  0.00  0.00    +0.000 N 
ATOM     12  C   UNL     1       5.426   4.331  17.975  0.00  0.00    +0.000 C 
ATOM     13  C   UNL     1       6.514   5.218  18.627  0.00  0.00    +0.000 C 
ATOM     14  C   UNL     1       7.139   6.258  17.681  0.00  0.00    +0.000 C 
ATOM     15  C   UNL     1       8.029   7.251  18.442  0.00  0.00    +0.000 C 
ATOM     16  C   UNL     1       6.044   7.006  16.920  0.00  0.00    +0.000 C 
ATOM     17  C   UNL     1       5.066   6.049  16.245  0.00  0.00    +0.000 C 
ENDBRANCH  10  11
BRANCH   1  18
ATOM     18  S   UNL     1       2.479   7.937  17.455  0.00  0.00    +0.000 S 
BRANCH  18  19
ATOM     19  C   UNL     1       2.329   9.232  18.701  0.00  0.00    +0.000 C 
BRANCH  19  21
ATOM     20  N   UNL     1       0.184  10.145  17.980  0.00  0.00    +0.000 N 
ATOM     21  C   UNL     1       0.894   9.585  19.030  0.00  0.00    +0.000 C 
ATOM     22  O   UNL     1       0.432   9.256  20.110  0.00  0.00    +0.000 OA
ATOM     23  H   UNL     1       0.696  10.263  17.111  0.00  0.00    +0.000 HD
BRANCH  20  27
ATOM     24  C   UNL     1      -3.907  11.143  17.941  0.00  0.00    +0.000 A 
ATOM     25  C   UNL     1      -3.042  11.838  18.775  0.00  0.00    +0.000 A 
ATOM     26  C   UNL     1      -1.672  11.558  18.781  0.00  0.00    +0.000 A 
ATOM     27  C   UNL     1      -1.172  10.530  17.984  0.00  0.00    +0.000 A 
ATOM     28  C   UNL     1      -2.037   9.838  17.135  0.00  0.00    +0.000 A 
ATOM     29  C   UNL     1      -3.412  10.147  17.128  0.00  0.00    +0.000 A 
BRANCH  24  31
ATOM     30  C   UNL     1      -5.617  12.100  19.269  0.00  0.00    +0.000 C 
ATOM     31  O   UNL     1      -5.211  11.529  18.036  0.00  0.00    +0.000 OA
ENDBRANCH  24  31
ENDBRANCH  20  27
ENDBRANCH  19  21
ENDBRANCH  18  19
ENDBRANCH   1  18
TORSDOF 6
ENDMDL
MODEL 4
REMARK VINA RESULT:      -8.7      1.150      1.942
REMARK  Name = 
REMARK  8 active torsions:
REMARK  status: ('A' for Active; 'I' for Inactive)
REMARK    1  A    between atoms: C_1  and  O_2
REMARK    2  A    between atoms: O_2  and  C_3
REMARK    3  A    between atoms: C_6  and  N_7
REMARK    4  A    between atoms: C_8  and  C_10
REMARK    5  A    between atoms: C_10  and  S_11
REMARK    6  A    between atoms: S_11  and  C_12
REMARK    7  A    between atoms: C_21  and  N_22
REMARK    8  A    between atoms: C_25  and  C_26
REMARK                            x       y       z     vdW  Elec       q    Type
REMARK                         _______ _______ _______ _____ _____    ______ ____
ROOT
ATOM      1  C   UNL     1       2.769   6.685  18.505  0.00  0.00    +0.000 A 
ATOM      2  N   UNL     1       2.494   6.523  19.813  0.00  0.00    +0.000 NA
ATOM      3  C   UNL     1       2.156   5.252  20.154  0.00  0.00    +0.000 A 
ATOM      4  C   UNL     1       2.519   4.602  21.332  0.00  0.00    +0.000 A 
ATOM      5  C   UNL     1       2.082   3.297  21.593  0.00  0.00    +0.000 A 
ATOM      6  C   UNL     1       1.077   2.765  20.802  0.00  0.00    +0.000 A 
ATOM      7  C   UNL     1       0.789   3.386  19.593  0.00  0.00    +0.000 A 
ATOM      8  C   UNL     1       1.623   4.422  19.180  0.00  0.00    +0.000 A 
ATOM      9  N   UNL     1       2.141   4.527  17.938  0.00  0.00    +0.000 NA
ATOM     10  C   UNL     1       2.998   5.556  17.725  0.00  0.00    +0.000 A 
ENDROOT
BRANCH  10  11
ATOM     11  N   UNL     1       4.230   5.357  17.077  0.00  0.00    +0.000 N 
ATOM     12  C   UNL     1       5.109   4.285  17.582  0.00  0.00    +0.000 C 
ATOM     13  C   UNL     1       6.307   4.824  18.400  0.00  0.00    +0.000 C 
ATOM     14  C   UNL     1       7.046   6.005  17.748  0.00  0.00    +0.000 C 
ATOM     15  C   UNL     1       8.063   6.635  18.709  0.00  0.00    +0.000 C 
ATOM     16  C   UNL     1       6.044   7.057  17.272  0.00  0.00    +0.000 C 
ATOM     17  C   UNL     1       4.946   6.446  16.406  0.00  0.00    +0.000 C 
ENDBRANCH  10  11
BRANCH   1  18
ATOM     18  S   UNL     1       2.324   8.196  17.627  0.00  0.00    +0.000 S 
BRANCH  18  19
ATOM     19  C   UNL     1       1.774   9.284  18.955  0.00  0.00    +0.000 C 
BRANCH  19  21
ATOM     20  N   UNL     1      -0.519   9.574  18.172  0.00  0.00    +0.000 N 
ATOM     21  C   UNL     1       0.653  10.214  18.544  0.00  0.00    +0.000 C 
ATOM     22  O   UNL     1       0.798  11.418  18.679  0.00  0.00    +0.000 OA
ATOM     23  H   UNL     1      -0.501   8.559  18.209  0.00  0.00    +0.000 HD
BRANCH  20  27
ATOM     24  C   UNL     1      -4.112  11.510  17.135  0.00  0.00    +0.000 A 
ATOM     25  C   UNL     1      -3.478  10.700  16.202  0.00  0.00    +0.000 A 
ATOM     26  C   UNL     1      -2.305  10.012  16.529  0.00  0.00    +0.000 A 
ATOM     27  C   UNL     1      -1.731  10.183  17.787  0.00  0.00    +0.000 A 
ATOM     28  C   UNL     1      -2.372  10.986  18.731  0.00  0.00    +0.000 A 
ATOM     29  C   UNL     1      -3.563  11.656  18.390  0.00  0.00    +0.000 A 
BRANCH  24  31
ATOM     30  C   UNL     1      -6.311  12.248  17.608  0.00  0.00    +0.000 C 
ATOM     31  O   UNL     1      -5.248  12.110  16.679  0.00  0.00    +0.000 OA
ENDBRANCH  24  31
ENDBRANCH  20  27
ENDBRANCH  19  21
ENDBRANCH  18  19
ENDBRANCH   1  18
TORSDOF 6
ENDMDL
MODEL 5
REMARK VINA RESULT:      -8.4      2.847      3.894
REMARK  Name = 
REMARK  8 active torsions:
REMARK  status: ('A' for Active; 'I' for Inactive)
REMARK    1  A    between atoms: C_1  and  O_2
REMARK    2  A    between atoms: O_2  and  C_3
REMARK    3  A    between atoms: C_6  and  N_7
REMARK    4  A    between atoms: C_8  and  C_10
REMARK    5  A    between atoms: C_10  and  S_11
REMARK    6  A    between atoms: S_11  and  C_12
REMARK    7  A    between atoms: C_21  and  N_22
REMARK    8  A    between atoms: C_25  and  C_26
REMARK                            x       y       z     vdW  Elec       q    Type
REMARK                         _______ _______ _______ _____ _____    ______ ____
ROOT
ATOM      1  C   UNL     1       3.228   6.446  18.573  0.00  0.00    +0.000 A 
ATOM      2  N   UNL     1       2.693   6.300  19.799  0.00  0.00    +0.000 NA
ATOM      3  C   UNL     1       2.237   5.047  20.059  0.00  0.00    +0.000 A 
ATOM      4  C   UNL     1       2.329   4.382  21.280  0.00  0.00    +0.000 A 
ATOM      5  C   UNL     1       1.790   3.100  21.441  0.00  0.00    +0.000 A 
ATOM      6  C   UNL     1       0.938   2.614  20.463  0.00  0.00    +0.000 A 
ATOM      7  C   UNL     1       0.924   3.244  19.225  0.00  0.00    +0.000 A 
ATOM      8  C   UNL     1       1.870   4.239  18.992  0.00  0.00    +0.000 A 
ATOM      9  N   UNL     1       2.628   4.318  17.878  0.00  0.00    +0.000 NA
ATOM     10  C   UNL     1       3.555   5.306  17.846  0.00  0.00    +0.000 A 
ENDROOT
BRANCH  10  11
ATOM     11  N   UNL     1       4.881   5.049  17.453  0.00  0.00    +0.000 N 
ATOM     12  C   UNL     1       5.814   4.533  18.473  0.00  0.00    +0.000 C 
ATOM     13  C   UNL     1       6.806   5.608  18.980  0.00  0.00    +0.000 C 
ATOM     14  C   UNL     1       7.467   6.441  17.869  0.00  0.00    +0.000 C 
ATOM     15  C   UNL     1       8.249   7.630  18.444  0.00  0.00    +0.000 C 
ATOM     16  C   UNL     1       6.412   6.932  16.877  0.00  0.00    +0.000 C 
ATOM     17  C   UNL     1       5.534   5.791  16.370  0.00  0.00    +0.000 C 
ENDBRANCH  10  11
BRANCH   1  18
ATOM     18  S   UNL     1       3.036   7.974  17.635  0.00  0.00    +0.000 S 
BRANCH  18  19
ATOM     19  C   UNL     1       1.362   8.494  18.055  0.00  0.00    +0.000 C 
BRANCH  19  21
ATOM     20  N   UNL     1       1.499  10.929  17.972  0.00  0.00    +0.000 N 
ATOM     21  C   UNL     1       1.309   9.820  18.782  0.00  0.00    +0.000 C 
ATOM     22  O   UNL     1       0.992   9.842  19.960  0.00  0.00    +0.000 OA
ATOM     23  H   UNL     1       1.656  10.736  16.987  0.00  0.00    +0.000 HD
BRANCH  20  27
ATOM     24  C   UNL     1       1.512  15.000  19.047  0.00  0.00    +0.000 A 
ATOM     25  C   UNL     1       0.334  14.271  19.146  0.00  0.00    +0.000 A 
ATOM     26  C   UNL     1       0.307  12.907  18.835  0.00  0.00    +0.000 A 
ATOM     27  C   UNL     1       1.459  12.282  18.365  0.00  0.00    +0.000 A 
ATOM     28  C   UNL     1       2.648  13.009  18.276  0.00  0.00    +0.000 A 
ATOM     29  C   UNL     1       2.661  14.377  18.612  0.00  0.00    +0.000 A 
BRANCH  24  31
ATOM     30  C   UNL     1       1.922  17.261  18.478  0.00  0.00    +0.000 C 
ATOM     31  O   UNL     1       1.390  16.314  19.390  0.00  0.00    +0.000 OA
ENDBRANCH  24  31
ENDBRANCH  20  27
ENDBRANCH  19  21
ENDBRANCH  18  19
ENDBRANCH   1  18
TORSDOF 6
ENDMDL
MODEL 6
REMARK VINA RESULT:      -8.4      2.428      3.352
REMARK  Name = 
REMARK  8 active torsions:
REMARK  status: ('A' for Active; 'I' for Inactive)
REMARK    1  A    between atoms: C_1  and  O_2
REMARK    2  A    between atoms: O_2  and  C_3
REMARK    3  A    between atoms: C_6  and  N_7
REMARK    4  A    between atoms: C_8  and  C_10
REMARK    5  A    between atoms: C_10  and  S_11
REMARK    6  A    between atoms: S_11  and  C_12
REMARK    7  A    between atoms: C_21  and  N_22
REMARK    8  A    between atoms: C_25  and  C_26
REMARK                            x       y       z     vdW  Elec       q    Type
REMARK                         _______ _______ _______ _____ _____    ______ ____
ROOT
ATOM      1  C   UNL     1       3.222   6.489  18.619  0.00  0.00    +0.000 A 
ATOM      2  N   UNL     1       2.650   6.299  19.823  0.00  0.00    +0.000 NA
ATOM      3  C   UNL     1       2.144   5.051  20.004  0.00  0.00    +0.000 A 
ATOM      4  C   UNL     1       2.181   4.321  21.191  0.00  0.00    +0.000 A 
ATOM      5  C   UNL     1       1.594   3.053  21.270  0.00  0.00    +0.000 A 
ATOM      6  C   UNL     1       0.751   2.649  20.247  0.00  0.00    +0.000 A 
ATOM      7  C   UNL     1       0.790   3.344  19.045  0.00  0.00    +0.000 A 
ATOM      8  C   UNL     1       1.777   4.315  18.888  0.00  0.00    +0.000 A 
ATOM      9  N   UNL     1       2.565   4.423  17.798  0.00  0.00    +0.000 NA
ATOM     10  C   UNL     1       3.528   5.378  17.840  0.00  0.00    +0.000 A 
ENDROOT
BRANCH  10  11
ATOM     11  N   UNL     1       4.853   5.093  17.467  0.00  0.00    +0.000 N 
ATOM     12  C   UNL     1       5.770   4.592  18.507  0.00  0.00    +0.000 C 
ATOM     13  C   UNL     1       6.772   5.665  18.996  0.00  0.00    +0.000 C 
ATOM     14  C   UNL     1       7.454   6.462  17.870  0.00  0.00    +0.000 C 
ATOM     15  C   UNL     1       8.247   7.655  18.422  0.00  0.00    +0.000 C 
ATOM     16  C   UNL     1       6.414   6.941  16.857  0.00  0.00    +0.000 C 
ATOM     17  C   UNL     1       5.525   5.799  16.371  0.00  0.00    +0.000 C 
ENDBRANCH  10  11
BRANCH   1  18
ATOM     18  S   UNL     1       3.108   8.070  17.759  0.00  0.00    +0.000 S 
BRANCH  18  19
ATOM     19  C   UNL     1       1.344   8.437  17.828  0.00  0.00    +0.000 C 
BRANCH  19  21
ATOM     20  N   UNL     1      -0.004   9.485  19.571  0.00  0.00    +0.000 N 
ATOM     21  C   UNL     1       1.016   9.664  18.650  0.00  0.00    +0.000 C 
ATOM     22  O   UNL     1       1.720  10.655  18.547  0.00  0.00    +0.000 OA
ATOM     23  H   UNL     1      -0.423   8.560  19.594  0.00  0.00    +0.000 HD
BRANCH  20  27
ATOM     24  C   UNL     1      -1.573  12.357  22.221  0.00  0.00    +0.000 A 
ATOM     25  C   UNL     1      -0.814  11.308  22.722  0.00  0.00    +0.000 A 
ATOM     26  C   UNL     1      -0.245  10.361  21.864  0.00  0.00    +0.000 A 
ATOM     27  C   UNL     1      -0.488  10.434  20.494  0.00  0.00    +0.000 A 
ATOM     28  C   UNL     1      -1.240  11.495  19.986  0.00  0.00    +0.000 A 
ATOM     29  C   UNL     1      -1.789  12.450  20.864  0.00  0.00    +0.000 A 
BRANCH  24  31
ATOM     30  C   UNL     1      -1.183  14.238  23.605  0.00  0.00    +0.000 C 
ATOM     31  O   UNL     1      -2.055  13.206  23.172  0.00  0.00    +0.000 OA
ENDBRANCH  24  31
ENDBRANCH  20  27
ENDBRANCH  19  21
ENDBRANCH  18  19
ENDBRANCH   1  18
TORSDOF 6
ENDMDL
MODEL 7
REMARK VINA RESULT:      -8.4      2.972      3.751
REMARK  Name = 
REMARK  8 active torsions:
REMARK  status: ('A' for Active; 'I' for Inactive)
REMARK    1  A    between atoms: C_1  and  O_2
REMARK    2  A    between atoms: O_2  and  C_3
REMARK    3  A    between atoms: C_6  and  N_7
REMARK    4  A    between atoms: C_8  and  C_10
REMARK    5  A    between atoms: C_10  and  S_11
REMARK    6  A    between atoms: S_11  and  C_12
REMARK    7  A    between atoms: C_21  and  N_22
REMARK    8  A    between atoms: C_25  and  C_26
REMARK                            x       y       z     vdW  Elec       q    Type
REMARK                         _______ _______ _______ _____ _____    ______ ____
ROOT
ATOM      1  C   UNL     1       2.569   6.992  19.048  0.00  0.00    +0.000 A 
ATOM      2  N   UNL     1       2.069   6.527  20.209  0.00  0.00    +0.000 NA
ATOM      3  C   UNL     1       1.921   5.177  20.247  0.00  0.00    +0.000 A 
ATOM      4  C   UNL     1       2.154   4.363  21.353  0.00  0.00    +0.000 A 
ATOM      5  C   UNL     1       1.934   2.982  21.285  0.00  0.00    +0.000 A 
ATOM      6  C   UNL     1       1.233   2.476  20.202  0.00  0.00    +0.000 A 
ATOM      7  C   UNL     1       1.084   3.280  19.078  0.00  0.00    +0.000 A 
ATOM      8  C   UNL     1       1.769   4.492  19.050  0.00  0.00    +0.000 A 
ATOM      9  N   UNL     1       2.500   4.925  18.002  0.00  0.00    +0.000 NA
ATOM     10  C   UNL     1       3.167   6.094  18.170  0.00  0.00    +0.000 A 
ENDROOT
BRANCH  10  11
ATOM     11  N   UNL     1       4.520   6.219  17.809  0.00  0.00    +0.000 N 
ATOM     12  C   UNL     1       4.841   6.995  16.597  0.00  0.00    +0.000 C 
ATOM     13  C   UNL     1       5.223   6.101  15.393  0.00  0.00    +0.000 C 
ATOM     14  C   UNL     1       6.226   4.982  15.722  0.00  0.00    +0.000 C 
ATOM     15  C   UNL     1       6.379   3.999  14.553  0.00  0.00    +0.000 C 
ATOM     16  C   UNL     1       5.792   4.239  16.985  0.00  0.00    +0.000 C 
ATOM     17  C   UNL     1       5.516   5.196  18.141  0.00  0.00    +0.000 C 
ENDBRANCH  10  11
BRANCH   1  18
ATOM     18  S   UNL     1       2.030   8.565  18.351  0.00  0.00    +0.000 S 
BRANCH  18  19
ATOM     19  C   UNL     1       0.981   9.241  19.652  0.00  0.00    +0.000 C 
BRANCH  19  21
ATOM     20  N   UNL     1       1.349  11.492  18.782  0.00  0.00    +0.000 N 
ATOM     21  C   UNL     1       1.229  10.710  19.920  0.00  0.00    +0.000 C 
ATOM     22  O   UNL     1       1.185  11.121  21.068  0.00  0.00    +0.000 OA
ATOM     23  H   UNL     1       1.264  11.001  17.897  0.00  0.00    +0.000 HD
BRANCH  20  27
ATOM     24  C   UNL     1       2.037  15.637  18.513  0.00  0.00    +0.000 A 
ATOM     25  C   UNL     1       0.786  15.176  18.900  0.00  0.00    +0.000 A 
ATOM     26  C   UNL     1       0.537  13.806  19.038  0.00  0.00    +0.000 A 
ATOM     27  C   UNL     1       1.538  12.887  18.729  0.00  0.00    +0.000 A 
ATOM     28  C   UNL     1       2.801  13.348  18.352  0.00  0.00    +0.000 A 
ATOM     29  C   UNL     1       3.037  14.732  18.237  0.00  0.00    +0.000 A 
BRANCH  24  31
ATOM     30  C   UNL     1       1.327  17.746  19.321  0.00  0.00    +0.000 C 
ATOM     31  O   UNL     1       2.134  16.994  18.429  0.00  0.00    +0.000 OA
ENDBRANCH  24  31
ENDBRANCH  20  27
ENDBRANCH  19  21
ENDBRANCH  18  19
ENDBRANCH   1  18
TORSDOF 6
ENDMDL
MODEL 8
REMARK VINA RESULT:      -8.3      2.290      2.833
REMARK  Name = 
REMARK  8 active torsions:
REMARK  status: ('A' for Active; 'I' for Inactive)
REMARK    1  A    between atoms: C_1  and  O_2
REMARK    2  A    between atoms: O_2  and  C_3
REMARK    3  A    between atoms: C_6  and  N_7
REMARK    4  A    between atoms: C_8  and  C_10
REMARK    5  A    between atoms: C_10  and  S_11
REMARK    6  A    between atoms: S_11  and  C_12
REMARK    7  A    between atoms: C_21  and  N_22
REMARK    8  A    between atoms: C_25  and  C_26
REMARK                            x       y       z     vdW  Elec       q    Type
REMARK                         _______ _______ _______ _____ _____    ______ ____
ROOT
ATOM      1  C   UNL     1       2.493   6.946  18.799  0.00  0.00    +0.000 A 
ATOM      2  N   UNL     1       1.992   6.575  19.993  0.00  0.00    +0.000 NA
ATOM      3  C   UNL     1       1.895   5.230  20.158  0.00  0.00    +0.000 A 
ATOM      4  C   UNL     1       2.140   4.535  21.341  0.00  0.00    +0.000 A 
ATOM      5  C   UNL     1       1.973   3.146  21.403  0.00  0.00    +0.000 A 
ATOM      6  C   UNL     1       1.310   2.513  20.365  0.00  0.00    +0.000 A 
ATOM      7  C   UNL     1       1.149   3.198  19.168  0.00  0.00    +0.000 A 
ATOM      8  C   UNL     1       1.788   4.428  19.032  0.00  0.00    +0.000 A 
ATOM      9  N   UNL     1       2.519   4.787  17.956  0.00  0.00    +0.000 NA
ATOM     10  C   UNL     1       3.138   5.992  18.019  0.00  0.00    +0.000 A 
ENDROOT
BRANCH  10  11
ATOM     11  N   UNL     1       4.491   6.135  17.664  0.00  0.00    +0.000 N 
ATOM     12  C   UNL     1       4.808   6.920  16.457  0.00  0.00    +0.000 C 
ATOM     13  C   UNL     1       5.207   6.035  15.251  0.00  0.00    +0.000 C 
ATOM     14  C   UNL     1       6.221   4.927  15.579  0.00  0.00    +0.000 C 
ATOM     15  C   UNL     1       6.391   3.950  14.407  0.00  0.00    +0.000 C 
ATOM     16  C   UNL     1       5.791   4.174  16.838  0.00  0.00    +0.000 C 
ATOM     17  C   UNL     1       5.498   5.123  17.997  0.00  0.00    +0.000 C 
ENDBRANCH  10  11
BRANCH   1  18
ATOM     18  S   UNL     1       1.906   8.422  17.947  0.00  0.00    +0.000 S 
BRANCH  18  19
ATOM     19  C   UNL     1       1.934   9.672  19.246  0.00  0.00    +0.000 C 
BRANCH  19  21
ATOM     20  N   UNL     1       0.526  10.822  20.874  0.00  0.00    +0.000 N 
ATOM     21  C   UNL     1       0.555  10.121  19.678  0.00  0.00    +0.000 C 
ATOM     22  O   UNL     1      -0.389   9.957  18.922  0.00  0.00    +0.000 OA
ATOM     23  H   UNL     1       1.423  10.955  21.332  0.00  0.00    +0.000 HD
BRANCH  20  27
ATOM     24  C   UNL     1      -2.913  12.559  22.573  0.00  0.00    +0.000 A 
ATOM     25  C   UNL     1      -2.177  11.639  23.309  0.00  0.00    +0.000 A 
ATOM     26  C   UNL     1      -1.008  11.075  22.788  0.00  0.00    +0.000 A 
ATOM     27  C   UNL     1      -0.604  11.393  21.493  0.00  0.00    +0.000 A 
ATOM     28  C   UNL     1      -1.334  12.328  20.756  0.00  0.00    +0.000 A 
ATOM     29  C   UNL     1      -2.499  12.900  21.305  0.00  0.00    +0.000 A 
BRANCH  24  31
ATOM     30  C   UNL     1      -4.256  12.543  24.523  0.00  0.00    +0.000 C 
ATOM     31  O   UNL     1      -4.022  13.030  23.211  0.00  0.00    +0.000 OA
ENDBRANCH  24  31
ENDBRANCH  20  27
ENDBRANCH  19  21
ENDBRANCH  18  19
ENDBRANCH   1  18
TORSDOF 6
ENDMDL
MODEL 9
REMARK VINA RESULT:      -8.3      2.667      3.196
REMARK  Name = 
REMARK  8 active torsions:
REMARK  status: ('A' for Active; 'I' for Inactive)
REMARK    1  A    between atoms: C_1  and  O_2
REMARK    2  A    between atoms: O_2  and  C_3
REMARK    3  A    between atoms: C_6  and  N_7
REMARK    4  A    between atoms: C_8  and  C_10
REMARK    5  A    between atoms: C_10  and  S_11
REMARK    6  A    between atoms: S_11  and  C_12
REMARK    7  A    between atoms: C_21  and  N_22
REMARK    8  A    between atoms: C_25  and  C_26
REMARK                            x       y       z     vdW  Elec       q    Type
REMARK                         _______ _______ _______ _____ _____    ______ ____
ROOT
ATOM      1  C   UNL     1       2.655   6.852  18.957  0.00  0.00    +0.000 A 
ATOM      2  N   UNL     1       2.135   6.409  20.116  0.00  0.00    +0.000 NA
ATOM      3  C   UNL     1       1.935   5.066  20.156  0.00  0.00    +0.000 A 
ATOM      4  C   UNL     1       2.133   4.245  21.265  0.00  0.00    +0.000 A 
ATOM      5  C   UNL     1       1.860   2.873  21.198  0.00  0.00    +0.000 A 
ATOM      6  C   UNL     1       1.144   2.393  20.114  0.00  0.00    +0.000 A 
ATOM      7  C   UNL     1       1.029   3.199  18.988  0.00  0.00    +0.000 A 
ATOM      8  C   UNL     1       1.760   4.384  18.960  0.00  0.00    +0.000 A 
ATOM      9  N   UNL     1       2.510   4.787  17.913  0.00  0.00    +0.000 NA
ATOM     10  C   UNL     1       3.220   5.930  18.082  0.00  0.00    +0.000 A 
ENDROOT
BRANCH  10  11
ATOM     11  N   UNL     1       4.579   6.003  17.724  0.00  0.00    +0.000 N 
ATOM     12  C   UNL     1       4.944   6.850  16.573  0.00  0.00    +0.000 C 
ATOM     13  C   UNL     1       5.272   6.030  15.302  0.00  0.00    +0.000 C 
ATOM     14  C   UNL     1       6.207   4.832  15.539  0.00  0.00    +0.000 C 
ATOM     15  C   UNL     1       6.300   3.935  14.297  0.00  0.00    +0.000 C 
ATOM     16  C   UNL     1       5.730   4.021  16.744  0.00  0.00    +0.000 C 
ATOM     17  C   UNL     1       5.512   4.900  17.971  0.00  0.00    +0.000 C 
ENDBRANCH  10  11
BRANCH   1  18
ATOM     18  S   UNL     1       2.179   8.443  18.255  0.00  0.00    +0.000 S 
BRANCH  18  19
ATOM     19  C   UNL     1       1.202   9.187  19.575  0.00  0.00    +0.000 C 
BRANCH  19  21
ATOM     20  N   UNL     1       1.126  11.606  19.882  0.00  0.00    +0.000 N 
ATOM     21  C   UNL     1       0.598  10.522  19.198  0.00  0.00    +0.000 C 
ATOM     22  O   UNL     1      -0.190  10.578  18.268  0.00  0.00    +0.000 OA
ATOM     23  H   UNL     1       1.850  11.393  20.561  0.00  0.00    +0.000 HD
BRANCH  20  27
ATOM     24  C   UNL     1       0.224  15.667  19.231  0.00  0.00    +0.000 A 
ATOM     25  C   UNL     1      -0.707  14.853  19.863  0.00  0.00    +0.000 A 
ATOM     26  C   UNL     1      -0.421  13.511  20.130  0.00  0.00    +0.000 A 
ATOM     27  C   UNL     1       0.788  12.964  19.707  0.00  0.00    +0.000 A 
ATOM     28  C   UNL     1       1.731  13.783  19.083  0.00  0.00    +0.000 A 
ATOM     29  C   UNL     1       1.433  15.138  18.840  0.00  0.00    +0.000 A 
BRANCH  24  31
ATOM     30  C   UNL     1      -0.543  17.322  17.722  0.00  0.00    +0.000 C 
ATOM     31  O   UNL     1      -0.189  16.954  19.045  0.00  0.00    +0.000 OA
ENDBRANCH  24  31
ENDBRANCH  20  27
ENDBRANCH  19  21
ENDBRANCH  18  19
ENDBRANCH   1  18
TORSDOF 6
ENDMDL
