MODEL 1
REMARK VINA RESULT:      -7.1      0.000      0.000
REMARK  Name = 
REMARK  1 active torsions:
REMARK  status: ('A' for Active; 'I' for Inactive)
REMARK    1  A    between atoms: C_2  and  C_3
REMARK                            x       y       z     vdW  Elec       q    Type
REMARK                         _______ _______ _______ _____ _____    ______ ____
ROOT
ATOM      1  C   UNL     1       5.390   3.963  18.315  0.00  0.00    +0.000 A 
ATOM      2  C   UNL     1       6.303   5.001  18.617  0.00  0.00    +0.000 A 
ATOM      3  C   UNL     1       7.054   5.614  17.604  0.00  0.00    +0.000 A 
ATOM      4  C   UNL     1       6.872   5.162  16.314  0.00  0.00    +0.000 A 
ATOM      5  C   UNL     1       5.964   4.175  16.015  0.00  0.00    +0.000 A 
ATOM      6  C   UNL     1       5.182   3.585  16.982  0.00  0.00    +0.000 A 
ATOM      7  O   UNL     1       5.939   3.867  14.692  0.00  0.00    +0.000 OA
ATOM      8  C   UNL     1       6.897   4.816  14.179  0.00  0.00    +0.000 C 
ATOM      9  O   UNL     1       7.521   5.614  15.207  0.00  0.00    +0.000 OA
ENDROOT
BRANCH   1  11
ATOM     10  O   UNL     1       5.192   2.489  20.099  0.00  0.00    +0.000 OA
ATOM     11  C   UNL     1       4.618   3.344  19.423  0.00  0.00    +0.000 C 
ATOM     12  N   UNL     1       3.300   3.730  19.665  0.00  0.00    +0.000 N 
ATOM     13  C   UNL     1       2.659   3.324  20.916  0.00  0.00    +0.000 C 
ATOM     14  C   UNL     1       1.256   2.772  20.664  0.00  0.00    +0.000 C 
ATOM     15  O   UNL     1       0.457   3.704  19.921  0.00  0.00    +0.000 OA
ATOM     16  C   UNL     1       1.058   3.968  18.646  0.00  0.00    +0.000 C 
ATOM     17  C   UNL     1       2.457   4.570  18.806  0.00  0.00    +0.000 C 
ENDBRANCH   1  11
TORSDOF 1
ENDMDL
MODEL 2
REMARK VINA RESULT:      -6.9      1.671      2.310
REMARK  Name = 
REMARK  1 active torsions:
REMARK  status: ('A' for Active; 'I' for Inactive)
REMARK    1  A    between atoms: C_2  and  C_3
REMARK                            x       y       z     vdW  Elec       q    Type
REMARK                         _______ _______ _______ _____ _____    ______ ____
ROOT
ATOM      1  C   UNL     1       3.454   4.617  17.311  0.00  0.00    +0.000 A 
ATOM      2  C   UNL     1       3.802   5.968  17.553  0.00  0.00    +0.000 A 
ATOM      3  C   UNL     1       4.962   6.522  16.992  0.00  0.00    +0.000 A 
ATOM      4  C   UNL     1       5.746   5.701  16.210  0.00  0.00    +0.000 A 
ATOM      5  C   UNL     1       5.394   4.399  15.949  0.00  0.00    +0.000 A 
ATOM      6  C   UNL     1       4.240   3.840  16.450  0.00  0.00    +0.000 A 
ATOM      7  O   UNL     1       6.300   3.756  15.165  0.00  0.00    +0.000 OA
ATOM      8  C   UNL     1       7.237   4.823  14.911  0.00  0.00    +0.000 C 
ATOM      9  O   UNL     1       6.913   6.048  15.602  0.00  0.00    +0.000 OA
ENDROOT
BRANCH   1  11
ATOM     10  O   UNL     1       1.150   4.327  17.362  0.00  0.00    +0.000 OA
ATOM     11  C   UNL     1       2.216   4.076  17.927  0.00  0.00    +0.000 C 
ATOM     12  N   UNL     1       2.284   3.321  19.097  0.00  0.00    +0.000 N 
ATOM     13  C   UNL     1       1.104   2.569  19.526  0.00  0.00    +0.000 C 
ATOM     14  C   UNL     1       0.833   2.770  21.018  0.00  0.00    +0.000 C 
ATOM     15  O   UNL     1       1.994   2.458  21.803  0.00  0.00    +0.000 OA
ATOM     16  C   UNL     1       3.085   3.313  21.438  0.00  0.00    +0.000 C 
ATOM     17  C   UNL     1       3.456   3.140  19.962  0.00  0.00    +0.000 C 
ENDBRANCH   1  11
TORSDOF 1
ENDMDL
MODEL 3
REMARK VINA RESULT:      -6.9      1.331      1.424
REMARK  Name = 
REMARK  1 active torsions:
REMARK  status: ('A' for Active; 'I' for Inactive)
REMARK    1  A    between atoms: C_2  and  C_3
REMARK                            x       y       z     vdW  Elec       q    Type
REMARK                         _______ _______ _______ _____ _____    ______ ____
ROOT
ATOM      1  C   UNL     1       5.068   3.961  17.587  0.00  0.00    +0.000 A 
ATOM      2  C   UNL     1       6.287   4.498  18.065  0.00  0.00    +0.000 A 
ATOM      3  C   UNL     1       7.272   4.946  17.173  0.00  0.00    +0.000 A 
ATOM      4  C   UNL     1       7.008   4.838  15.824  0.00  0.00    +0.000 A 
ATOM      5  C   UNL     1       5.813   4.346  15.359  0.00  0.00    +0.000 A 
ATOM      6  C   UNL     1       4.810   3.938  16.210  0.00  0.00    +0.000 A 
ATOM      7  O   UNL     1       5.750   4.313  14.002  0.00  0.00    +0.000 OA
ATOM      8  C   UNL     1       7.025   4.898  13.662  0.00  0.00    +0.000 C 
ATOM      9  O   UNL     1       7.843   5.197  14.813  0.00  0.00    +0.000 OA
ENDROOT
BRANCH   1  11
ATOM     10  O   UNL     1       3.768   2.300  18.560  0.00  0.00    +0.000 OA
ATOM     11  C   UNL     1       4.055   3.498  18.571  0.00  0.00    +0.000 C 
ATOM     12  N   UNL     1       3.468   4.402  19.456  0.00  0.00    +0.000 N 
ATOM     13  C   UNL     1       2.697   3.887  20.588  0.00  0.00    +0.000 C 
ATOM     14  C   UNL     1       1.366   4.626  20.731  0.00  0.00    +0.000 C 
ATOM     15  O   UNL     1       1.566   6.045  20.807  0.00  0.00    +0.000 OA
ATOM     16  C   UNL     1       2.204   6.523  19.615  0.00  0.00    +0.000 C 
ATOM     17  C   UNL     1       3.573   5.865  19.419  0.00  0.00    +0.000 C 
ENDBRANCH   1  11
TORSDOF 1
ENDMDL
MODEL 4
REMARK VINA RESULT:      -6.9      1.598      2.051
REMARK  Name = 
REMARK  1 active torsions:
REMARK  status: ('A' for Active; 'I' for Inactive)
REMARK    1  A    between atoms: C_2  and  C_3
REMARK                            x       y       z     vdW  Elec       q    Type
REMARK                         _______ _______ _______ _____ _____    ______ ____
ROOT
ATOM      1  C   UNL     1       4.723   5.482  17.674  0.00  0.00    +0.000 A 
ATOM      2  C   UNL     1       5.962   6.104  17.960  0.00  0.00    +0.000 A 
ATOM      3  C   UNL     1       7.014   6.067  17.034  0.00  0.00    +0.000 A 
ATOM      4  C   UNL     1       6.795   5.400  15.847  0.00  0.00    +0.000 A 
ATOM      5  C   UNL     1       5.583   4.823  15.555  0.00  0.00    +0.000 A 
ATOM      6  C   UNL     1       4.519   4.879  16.426  0.00  0.00    +0.000 A 
ATOM      7  O   UNL     1       5.572   4.210  14.342  0.00  0.00    +0.000 OA
ATOM      8  C   UNL     1       6.902   4.518  13.875  0.00  0.00    +0.000 C 
ATOM      9  O   UNL     1       7.695   5.240  14.840  0.00  0.00    +0.000 OA
ENDROOT
BRANCH   1  11
ATOM     10  O   UNL     1       3.165   6.657  18.934  0.00  0.00    +0.000 OA
ATOM     11  C   UNL     1       3.639   5.547  18.688  0.00  0.00    +0.000 C 
ATOM     12  N   UNL     1       3.197   4.386  19.322  0.00  0.00    +0.000 N 
ATOM     13  C   UNL     1       1.956   4.428  20.095  0.00  0.00    +0.000 C 
ATOM     14  C   UNL     1       2.128   3.746  21.453  0.00  0.00    +0.000 C 
ATOM     15  O   UNL     1       2.632   2.411  21.303  0.00  0.00    +0.000 OA
ATOM     16  C   UNL     1       3.913   2.432  20.660  0.00  0.00    +0.000 C 
ATOM     17  C   UNL     1       3.823   3.059  19.266  0.00  0.00    +0.000 C 
ENDBRANCH   1  11
TORSDOF 1
ENDMDL
MODEL 5
REMARK VINA RESULT:      -6.8      1.984      2.637
REMARK  Name = 
REMARK  1 active torsions:
REMARK  status: ('A' for Active; 'I' for Inactive)
REMARK    1  A    between atoms: C_2  and  C_3
REMARK                            x       y       z     vdW  Elec       q    Type
REMARK                         _______ _______ _______ _____ _____    ______ ____
ROOT
ATOM      1  C   UNL     1       4.913   4.752  17.859  0.00  0.00    +0.000 A 
ATOM      2  C   UNL     1       4.555   5.586  16.773  0.00  0.00    +0.000 A 
ATOM      3  C   UNL     1       5.329   6.708  16.444  0.00  0.00    +0.000 A 
ATOM      4  C   UNL     1       6.440   6.966  17.220  0.00  0.00    +0.000 A 
ATOM      5  C   UNL     1       6.806   6.140  18.255  0.00  0.00    +0.000 A 
ATOM      6  C   UNL     1       6.090   5.009  18.575  0.00  0.00    +0.000 A 
ATOM      7  O   UNL     1       7.922   6.570  18.901  0.00  0.00    +0.000 OA
ATOM      8  C   UNL     1       8.253   7.733  18.115  0.00  0.00    +0.000 C 
ATOM      9  O   UNL     1       7.296   8.012  17.072  0.00  0.00    +0.000 OA
ENDROOT
BRANCH   1  11
ATOM     10  O   UNL     1       4.103   2.627  17.383  0.00  0.00    +0.000 OA
ATOM     11  C   UNL     1       4.061   3.575  18.169  0.00  0.00    +0.000 C 
ATOM     12  N   UNL     1       3.254   3.571  19.306  0.00  0.00    +0.000 N 
ATOM     13  C   UNL     1       2.647   2.312  19.741  0.00  0.00    +0.000 C 
ATOM     14  C   UNL     1       1.168   2.499  20.077  0.00  0.00    +0.000 C 
ATOM     15  O   UNL     1       0.981   3.553  21.034  0.00  0.00    +0.000 OA
ATOM     16  C   UNL     1       1.470   4.794  20.507  0.00  0.00    +0.000 C 
ATOM     17  C   UNL     1       2.965   4.710  20.186  0.00  0.00    +0.000 C 
ENDBRANCH   1  11
TORSDOF 1
ENDMDL
MODEL 6
REMARK VINA RESULT:      -6.8      1.543      1.622
REMARK  Name = 
REMARK  1 active torsions:
REMARK  status: ('A' for Active; 'I' for Inactive)
REMARK    1  A    between atoms: C_2  and  C_3
REMARK                            x       y       z     vdW  Elec       q    Type
REMARK                         _______ _______ _______ _____ _____    ______ ____
ROOT
ATOM      1  C   UNL     1       4.503   5.161  17.741  0.00  0.00    +0.000 A 
ATOM      2  C   UNL     1       4.524   6.450  17.156  0.00  0.00    +0.000 A 
ATOM      3  C   UNL     1       5.099   6.656  15.894  0.00  0.00    +0.000 A 
ATOM      4  C   UNL     1       5.644   5.561  15.256  0.00  0.00    +0.000 A 
ATOM      5  C   UNL     1       5.596   4.305  15.809  0.00  0.00    +0.000 A 
ATOM      6  C   UNL     1       5.001   4.065  17.027  0.00  0.00    +0.000 A 
ATOM      7  O   UNL     1       6.193   3.365  15.029  0.00  0.00    +0.000 OA
ATOM      8  C   UNL     1       6.572   4.165  13.890  0.00  0.00    +0.000 C 
ATOM      9  O   UNL     1       6.261   5.566  14.044  0.00  0.00    +0.000 OA
ENDROOT
BRANCH   1  11
ATOM     10  O   UNL     1       4.565   5.307  20.059  0.00  0.00    +0.000 OA
ATOM     11  C   UNL     1       3.883   4.994  19.081  0.00  0.00    +0.000 C 
ATOM     12  N   UNL     1       2.585   4.499  19.200  0.00  0.00    +0.000 N 
ATOM     13  C   UNL     1       1.899   4.606  20.488  0.00  0.00    +0.000 C 
ATOM     14  C   UNL     1       1.223   3.288  20.866  0.00  0.00    +0.000 C 
ATOM     15  O   UNL     1       0.351   2.834  19.821  0.00  0.00    +0.000 OA
ATOM     16  C   UNL     1       1.093   2.614  18.614  0.00  0.00    +0.000 C 
ATOM     17  C   UNL     1       1.769   3.902  18.136  0.00  0.00    +0.000 C 
ENDBRANCH   1  11
TORSDOF 1
ENDMDL
MODEL 7
REMARK VINA RESULT:      -6.6      1.829      2.636
REMARK  Name = 
REMARK  1 active torsions:
REMARK  status: ('A' for Active; 'I' for Inactive)
REMARK    1  A    between atoms: C_2  and  C_3
REMARK                            x       y       z     vdW  Elec       q    Type
REMARK                         _______ _______ _______ _____ _____    ______ ____
ROOT
ATOM      1  C   UNL     1       4.197   4.376  17.181  0.00  0.00    +0.000 A 
ATOM      2  C   UNL     1       5.164   3.693  16.406  0.00  0.00    +0.000 A 
ATOM      3  C   UNL     1       6.388   4.300  16.088  0.00  0.00    +0.000 A 
ATOM      4  C   UNL     1       6.604   5.580  16.552  0.00  0.00    +0.000 A 
ATOM      5  C   UNL     1       5.678   6.233  17.329  0.00  0.00    +0.000 A 
ATOM      6  C   UNL     1       4.487   5.647  17.693  0.00  0.00    +0.000 A 
ATOM      7  O   UNL     1       6.074   7.486  17.677  0.00  0.00    +0.000 OA
ATOM      8  C   UNL     1       7.386   7.527  17.078  0.00  0.00    +0.000 C 
ATOM      9  O   UNL     1       7.712   6.337  16.330  0.00  0.00    +0.000 OA
ENDROOT
BRANCH   1  11
ATOM     10  O   UNL     1       2.151   3.475  16.549  0.00  0.00    +0.000 OA
ATOM     11  C   UNL     1       2.915   3.692  17.491  0.00  0.00    +0.000 C 
ATOM     12  N   UNL     1       2.612   3.325  18.802  0.00  0.00    +0.000 N 
ATOM     13  C   UNL     1       1.492   2.413  19.042  0.00  0.00    +0.000 C 
ATOM     14  C   UNL     1       0.605   2.917  20.180  0.00  0.00    +0.000 C 
ATOM     15  O   UNL     1       1.372   3.163  21.368  0.00  0.00    +0.000 OA
ATOM     16  C   UNL     1       2.370   4.162  21.117  0.00  0.00    +0.000 C 
ATOM     17  C   UNL     1       3.337   3.716  20.016  0.00  0.00    +0.000 C 
ENDBRANCH   1  11
TORSDOF 1
ENDMDL
MODEL 8
REMARK VINA RESULT:      -6.5      2.968      6.315
REMARK  Name = 
REMARK  1 active torsions:
REMARK  status: ('A' for Active; 'I' for Inactive)
REMARK    1  A    between atoms: C_2  and  C_3
REMARK                            x       y       z     vdW  Elec       q    Type
REMARK                         _______ _______ _______ _____ _____    ______ ____
ROOT
ATOM      1  C   UNL     1       3.045   5.770  18.414  0.00  0.00    +0.000 A 
ATOM      2  C   UNL     1       2.710   5.131  19.632  0.00  0.00    +0.000 A 
ATOM      3  C   UNL     1       2.030   5.825  20.644  0.00  0.00    +0.000 A 
ATOM      4  C   UNL     1       1.711   7.145  20.406  0.00  0.00    +0.000 A 
ATOM      5  C   UNL     1       2.008   7.758  19.213  0.00  0.00    +0.000 A 
ATOM      6  C   UNL     1       2.637   7.090  18.187  0.00  0.00    +0.000 A 
ATOM      7  O   UNL     1       1.619   9.060  19.180  0.00  0.00    +0.000 OA
ATOM      8  C   UNL     1       0.987   9.182  20.471  0.00  0.00    +0.000 C 
ATOM      9  O   UNL     1       1.076   7.983  21.269  0.00  0.00    +0.000 OA
ENDROOT
BRANCH   1  11
ATOM     10  O   UNL     1       3.315   3.884  17.086  0.00  0.00    +0.000 OA
ATOM     11  C   UNL     1       3.766   4.994  17.374  0.00  0.00    +0.000 C 
ATOM     12  N   UNL     1       4.906   5.520  16.766  0.00  0.00    +0.000 N 
ATOM     13  C   UNL     1       5.430   4.875  15.562  0.00  0.00    +0.000 C 
ATOM     14  C   UNL     1       6.945   4.690  15.650  0.00  0.00    +0.000 C 
ATOM     15  O   UNL     1       7.605   5.932  15.934  0.00  0.00    +0.000 OA
ATOM     16  C   UNL     1       7.156   6.458  17.190  0.00  0.00    +0.000 C 
ATOM     17  C   UNL     1       5.647   6.719  17.173  0.00  0.00    +0.000 C 
ENDBRANCH   1  11
TORSDOF 1
ENDMDL
MODEL 9
REMARK VINA RESULT:      -6.5      3.505      6.551
REMARK  Name = 
REMARK  1 active torsions:
REMARK  status: ('A' for Active; 'I' for Inactive)
REMARK    1  A    between atoms: C_2  and  C_3
REMARK                            x       y       z     vdW  Elec       q    Type
REMARK                         _______ _______ _______ _____ _____    ______ ____
ROOT
ATOM      1  C   UNL     1       2.802   6.805  18.262  0.00  0.00    +0.000 A 
ATOM      2  C   UNL     1       2.546   7.963  17.488  0.00  0.00    +0.000 A 
ATOM      3  C   UNL     1       1.900   9.073  18.050  0.00  0.00    +0.000 A 
ATOM      4  C   UNL     1       1.521   8.988  19.373  0.00  0.00    +0.000 A 
ATOM      5  C   UNL     1       1.796   7.878  20.134  0.00  0.00    +0.000 A 
ATOM      6  C   UNL     1       2.467   6.790  19.622  0.00  0.00    +0.000 A 
ATOM      7  O   UNL     1       1.335   7.987  21.408  0.00  0.00    +0.000 OA
ATOM      8  C   UNL     1       0.789   9.322  21.380  0.00  0.00    +0.000 C 
ATOM      9  O   UNL     1       0.868   9.948  20.082  0.00  0.00    +0.000 OA
ENDROOT
BRANCH   1  11
ATOM     10  O   UNL     1       2.888   4.578  17.608  0.00  0.00    +0.000 OA
ATOM     11  C   UNL     1       3.489   5.654  17.623  0.00  0.00    +0.000 C 
ATOM     12  N   UNL     1       4.761   5.809  17.073  0.00  0.00    +0.000 N 
ATOM     13  C   UNL     1       5.295   4.755  16.209  0.00  0.00    +0.000 C 
ATOM     14  C   UNL     1       6.737   4.413  16.583  0.00  0.00    +0.000 C 
ATOM     15  O   UNL     1       7.565   5.586  16.587  0.00  0.00    +0.000 OA
ATOM     16  C   UNL     1       7.079   6.534  17.546  0.00  0.00    +0.000 C 
ATOM     17  C   UNL     1       5.648   6.970  17.218  0.00  0.00    +0.000 C 
ENDBRANCH   1  11
TORSDOF 1
ENDMDL
