MODEL 1
REMARK VINA RESULT:      -6.7      0.000      0.000
REMARK  Name = 
REMARK  7 active torsions:
REMARK  status: ('A' for Active; 'I' for Inactive)
REMARK    1  A    between atoms: C_1  and  C_2
REMARK    2  A    between atoms: C_2  and  C_3
REMARK    3  A    between atoms: C_3  and  C_4
REMARK    4  A    between atoms: C_3  and  C_6
REMARK    5  A    between atoms: C_3  and  N_8
REMARK    6  A    between atoms: C_6  and  C_7
REMARK    7  A    between atoms: N_15  and  C_16
REMARK                            x       y       z     vdW  Elec       q    Type
REMARK                         _______ _______ _______ _____ _____    ______ ____
ROOT
ATOM      1  N   UNL     1       3.402   4.117  17.721  0.00  0.00    +0.000 N 
ATOM      2  C   UNL     1       4.720   4.332  17.327  0.00  0.00    +0.000 A 
ATOM      3  N   UNL     1       5.589   4.810  18.192  0.00  0.00    +0.000 NA
ATOM      4  C   UNL     1       6.805   4.976  17.701  0.00  0.00    +0.000 A 
ATOM      5 CL   UNL     1       7.966   5.611  18.779  0.00  0.00    +0.000 Cl
ATOM      6  N   UNL     1       7.236   4.676  16.489  0.00  0.00    +0.000 NA
ATOM      7  C   UNL     1       6.295   4.192  15.701  0.00  0.00    +0.000 A 
ATOM      8  N   UNL     1       6.743   3.729  14.484  0.00  0.00    +0.000 N 
ATOM      9  C   UNL     1       5.894   3.794  13.321  0.00  0.00    +0.000 C 
ATOM     10  N   UNL     1       5.020   4.058  16.062  0.00  0.00    +0.000 NA
ATOM     11  H   UNL     1       2.901   4.941  17.404  0.00  0.00    +0.000 HD
ATOM     12  H   UNL     1       7.707   4.011  14.351  0.00  0.00    +0.000 HD
ENDROOT
BRANCH   1  13
ATOM     13  C   UNL     1       3.116   3.833  19.157  0.00  0.00    +0.000 C 
BRANCH  13  15
ATOM     14  C   UNL     1       2.457   6.363  19.525  0.00  0.00    +0.000 C 
ATOM     15  C   UNL     1       3.360   5.190  19.900  0.00  0.00    +0.000 C 
ENDBRANCH  13  15
BRANCH  13  16
ATOM     16  C   UNL     1       4.058   2.829  19.747  0.00  0.00    +0.000 C 
ATOM     17  N   UNL     1       4.814   2.073  20.218  0.00  0.00    +0.000 NA
ENDBRANCH  13  16
BRANCH  13  18
ATOM     18  C   UNL     1       1.648   3.334  19.343  0.00  0.00    +0.000 C 
ATOM     19  C   UNL     1       1.191   3.051  20.774  0.00  0.00    +0.000 C 
ENDBRANCH  13  18
ENDBRANCH   1  13
TORSDOF 4
ENDMDL
MODEL 2
REMARK VINA RESULT:      -6.7      2.048      3.136
REMARK  Name = 
REMARK  7 active torsions:
REMARK  status: ('A' for Active; 'I' for Inactive)
REMARK    1  A    between atoms: C_1  and  C_2
REMARK    2  A    between atoms: C_2  and  C_3
REMARK    3  A    between atoms: C_3  and  C_4
REMARK    4  A    between atoms: C_3  and  C_6
REMARK    5  A    between atoms: C_3  and  N_8
REMARK    6  A    between atoms: C_6  and  C_7
REMARK    7  A    between atoms: N_15  and  C_16
REMARK                            x       y       z     vdW  Elec       q    Type
REMARK                         _______ _______ _______ _____ _____    ______ ____
ROOT
ATOM      1  N   UNL     1       4.610   4.701  19.197  0.00  0.00    +0.000 N 
ATOM      2  C   UNL     1       5.360   5.029  18.071  0.00  0.00    +0.000 A 
ATOM      3  N   UNL     1       5.249   4.301  16.980  0.00  0.00    +0.000 NA
ATOM      4  C   UNL     1       6.014   4.706  15.980  0.00  0.00    +0.000 A 
ATOM      5 CL   UNL     1       5.920   3.784  14.547  0.00  0.00    +0.000 Cl
ATOM      6  N   UNL     1       6.812   5.758  15.947  0.00  0.00    +0.000 NA
ATOM      7  C   UNL     1       6.845   6.428  17.083  0.00  0.00    +0.000 A 
ATOM      8  N   UNL     1       7.547   7.613  17.033  0.00  0.00    +0.000 N 
ATOM      9  C   UNL     1       8.227   8.107  18.204  0.00  0.00    +0.000 C 
ATOM     10  N   UNL     1       6.182   6.068  18.179  0.00  0.00    +0.000 NA
ATOM     11  H   UNL     1       5.244   4.163  19.781  0.00  0.00    +0.000 HD
ATOM     12  H   UNL     1       8.063   7.662  16.161  0.00  0.00    +0.000 HD
ENDROOT
BRANCH   1  13
ATOM     13  C   UNL     1       3.311   3.990  19.017  0.00  0.00    +0.000 C 
BRANCH  13  15
ATOM     14  C   UNL     1       1.173   3.568  20.508  0.00  0.00    +0.000 C 
ATOM     15  C   UNL     1       2.632   4.013  20.428  0.00  0.00    +0.000 C 
ENDBRANCH  13  15
BRANCH  13  16
ATOM     16  C   UNL     1       3.487   2.554  18.633  0.00  0.00    +0.000 C 
ATOM     17  N   UNL     1       3.655   1.432  18.352  0.00  0.00    +0.000 NA
ENDBRANCH  13  16
BRANCH  13  18
ATOM     18  C   UNL     1       2.430   4.706  17.945  0.00  0.00    +0.000 C 
ATOM     19  C   UNL     1       2.200   6.206  18.131  0.00  0.00    +0.000 C 
ENDBRANCH  13  18
ENDBRANCH   1  13
TORSDOF 4
ENDMDL
MODEL 3
REMARK VINA RESULT:      -6.5      1.363      2.232
REMARK  Name = 
REMARK  7 active torsions:
REMARK  status: ('A' for Active; 'I' for Inactive)
REMARK    1  A    between atoms: C_1  and  C_2
REMARK    2  A    between atoms: C_2  and  C_3
REMARK    3  A    between atoms: C_3  and  C_4
REMARK    4  A    between atoms: C_3  and  C_6
REMARK    5  A    between atoms: C_3  and  N_8
REMARK    6  A    between atoms: C_6  and  C_7
REMARK    7  A    between atoms: N_15  and  C_16
REMARK                            x       y       z     vdW  Elec       q    Type
REMARK                         _______ _______ _______ _____ _____    ______ ____
ROOT
ATOM      1  N   UNL     1       3.413   4.455  17.196  0.00  0.00    +0.000 N 
ATOM      2  C   UNL     1       4.664   4.844  16.724  0.00  0.00    +0.000 A 
ATOM      3  N   UNL     1       5.379   5.709  17.412  0.00  0.00    +0.000 NA
ATOM      4  C   UNL     1       6.545   6.004  16.862  0.00  0.00    +0.000 A 
ATOM      5 CL   UNL     1       7.504   7.135  17.707  0.00  0.00    +0.000 Cl
ATOM      6  N   UNL     1       7.069   5.503  15.758  0.00  0.00    +0.000 NA
ATOM      7  C   UNL     1       6.281   4.639  15.148  0.00  0.00    +0.000 A 
ATOM      8  N   UNL     1       6.858   3.986  14.080  0.00  0.00    +0.000 N 
ATOM      9  C   UNL     1       6.052   3.561  12.964  0.00  0.00    +0.000 C 
ATOM     10  N   UNL     1       5.056   4.325  15.565  0.00  0.00    +0.000 NA
ATOM     11  H   UNL     1       2.754   5.038  16.690  0.00  0.00    +0.000 HD
ATOM     12  H   UNL     1       7.741   4.429  13.853  0.00  0.00    +0.000 HD
ENDROOT
BRANCH   1  13
ATOM     13  C   UNL     1       3.151   4.496  18.664  0.00  0.00    +0.000 C 
BRANCH  13  15
ATOM     14  C   UNL     1       1.032   3.905  20.123  0.00  0.00    +0.000 C 
ATOM     15  C   UNL     1       1.867   3.625  18.876  0.00  0.00    +0.000 C 
ENDBRANCH  13  15
BRANCH  13  16
ATOM     16  C   UNL     1       2.837   5.875  19.156  0.00  0.00    +0.000 C 
ATOM     17  N   UNL     1       2.622   6.950  19.561  0.00  0.00    +0.000 NA
ENDBRANCH  13  16
BRANCH  13  18
ATOM     18  C   UNL     1       4.367   3.928  19.461  0.00  0.00    +0.000 C 
ATOM     19  C   UNL     1       4.358   2.429  19.759  0.00  0.00    +0.000 C 
ENDBRANCH  13  18
ENDBRANCH   1  13
TORSDOF 4
ENDMDL
MODEL 4
REMARK VINA RESULT:      -6.5      2.170      3.164
REMARK  Name = 
REMARK  7 active torsions:
REMARK  status: ('A' for Active; 'I' for Inactive)
REMARK    1  A    between atoms: C_1  and  C_2
REMARK    2  A    between atoms: C_2  and  C_3
REMARK    3  A    between atoms: C_3  and  C_4
REMARK    4  A    between atoms: C_3  and  C_6
REMARK    5  A    between atoms: C_3  and  N_8
REMARK    6  A    between atoms: C_6  and  C_7
REMARK    7  A    between atoms: N_15  and  C_16
REMARK                            x       y       z     vdW  Elec       q    Type
REMARK                         _______ _______ _______ _____ _____    ______ ____
ROOT
ATOM      1  N   UNL     1       4.880   4.660  19.195  0.00  0.00    +0.000 N 
ATOM      2  C   UNL     1       5.619   5.036  18.077  0.00  0.00    +0.000 A 
ATOM      3  N   UNL     1       5.564   4.306  16.984  0.00  0.00    +0.000 NA
ATOM      4  C   UNL     1       6.312   4.760  15.992  0.00  0.00    +0.000 A 
ATOM      5 CL   UNL     1       6.288   3.837  14.556  0.00  0.00    +0.000 Cl
ATOM      6  N   UNL     1       7.044   5.859  15.969  0.00  0.00    +0.000 NA
ATOM      7  C   UNL     1       7.025   6.527  17.106  0.00  0.00    +0.000 A 
ATOM      8  N   UNL     1       7.654   7.753  17.065  0.00  0.00    +0.000 N 
ATOM      9  C   UNL     1       8.290   8.284  18.244  0.00  0.00    +0.000 C 
ATOM     10  N   UNL     1       6.374   6.123  18.195  0.00  0.00    +0.000 NA
ATOM     11  H   UNL     1       5.539   4.161  19.784  0.00  0.00    +0.000 HD
ATOM     12  H   UNL     1       8.173   7.835  16.199  0.00  0.00    +0.000 HD
ENDROOT
BRANCH   1  13
ATOM     13  C   UNL     1       3.629   3.872  19.001  0.00  0.00    +0.000 C 
BRANCH  13  15
ATOM     14  C   UNL     1       1.427   4.370  17.632  0.00  0.00    +0.000 C 
ATOM     15  C   UNL     1       2.566   4.906  18.496  0.00  0.00    +0.000 C 
ENDBRANCH  13  15
BRANCH  13  16
ATOM     16  C   UNL     1       3.109   3.289  20.278  0.00  0.00    +0.000 C 
ATOM     17  N   UNL     1       2.674   2.858  21.274  0.00  0.00    +0.000 NA
ENDBRANCH  13  16
BRANCH  13  18
ATOM     18  C   UNL     1       3.850   2.725  17.964  0.00  0.00    +0.000 C 
ATOM     19  C   UNL     1       3.638   1.295  18.461  0.00  0.00    +0.000 C 
ENDBRANCH  13  18
ENDBRANCH   1  13
TORSDOF 4
ENDMDL
MODEL 5
REMARK VINA RESULT:      -6.3      1.014      1.048
REMARK  Name = 
REMARK  7 active torsions:
REMARK  status: ('A' for Active; 'I' for Inactive)
REMARK    1  A    between atoms: C_1  and  C_2
REMARK    2  A    between atoms: C_2  and  C_3
REMARK    3  A    between atoms: C_3  and  C_4
REMARK    4  A    between atoms: C_3  and  C_6
REMARK    5  A    between atoms: C_3  and  N_8
REMARK    6  A    between atoms: C_6  and  C_7
REMARK    7  A    between atoms: N_15  and  C_16
REMARK                            x       y       z     vdW  Elec       q    Type
REMARK                         _______ _______ _______ _____ _____    ______ ____
ROOT
ATOM      1  N   UNL     1       3.513   4.735  17.467  0.00  0.00    +0.000 N 
ATOM      2  C   UNL     1       4.893   4.909  17.415  0.00  0.00    +0.000 A 
ATOM      3  N   UNL     1       5.557   5.186  18.516  0.00  0.00    +0.000 NA
ATOM      4  C   UNL     1       6.859   5.334  18.340  0.00  0.00    +0.000 A 
ATOM      5 CL   UNL     1       7.765   5.712  19.737  0.00  0.00    +0.000 Cl
ATOM      6  N   UNL     1       7.546   5.188  17.221  0.00  0.00    +0.000 NA
ATOM      7  C   UNL     1       6.793   4.899  16.177  0.00  0.00    +0.000 A 
ATOM      8  N   UNL     1       7.492   4.592  15.030  0.00  0.00    +0.000 N 
ATOM      9  C   UNL     1       6.936   4.894  13.735  0.00  0.00    +0.000 C 
ATOM     10  N   UNL     1       5.466   4.807  16.220  0.00  0.00    +0.000 NA
ATOM     11  H   UNL     1       3.130   5.632  17.186  0.00  0.00    +0.000 HD
ATOM     12  H   UNL     1       8.471   4.820  15.161  0.00  0.00    +0.000 HD
ENDROOT
BRANCH   1  13
ATOM     13  C   UNL     1       2.894   4.260  18.738  0.00  0.00    +0.000 C 
BRANCH  13  15
ATOM     14  C   UNL     1       1.767   5.678  20.659  0.00  0.00    +0.000 C 
ATOM     15  C   UNL     1       2.943   5.492  19.704  0.00  0.00    +0.000 C 
ENDBRANCH  13  15
BRANCH  13  16
ATOM     16  C   UNL     1       3.674   3.158  19.385  0.00  0.00    +0.000 C 
ATOM     17  N   UNL     1       4.269   2.308  19.922  0.00  0.00    +0.000 NA
ENDBRANCH  13  16
BRANCH  13  18
ATOM     18  C   UNL     1       1.428   3.780  18.496  0.00  0.00    +0.000 C 
ATOM     19  C   UNL     1       1.134   2.302  18.754  0.00  0.00    +0.000 C 
ENDBRANCH  13  18
ENDBRANCH   1  13
TORSDOF 4
ENDMDL
MODEL 6
REMARK VINA RESULT:      -6.2      1.455      2.309
REMARK  Name = 
REMARK  7 active torsions:
REMARK  status: ('A' for Active; 'I' for Inactive)
REMARK    1  A    between atoms: C_1  and  C_2
REMARK    2  A    between atoms: C_2  and  C_3
REMARK    3  A    between atoms: C_3  and  C_4
REMARK    4  A    between atoms: C_3  and  C_6
REMARK    5  A    between atoms: C_3  and  N_8
REMARK    6  A    between atoms: C_6  and  C_7
REMARK    7  A    between atoms: N_15  and  C_16
REMARK                            x       y       z     vdW  Elec       q    Type
REMARK                         _______ _______ _______ _____ _____    ______ ____
ROOT
ATOM      1  N   UNL     1       3.566   4.494  17.260  0.00  0.00    +0.000 N 
ATOM      2  C   UNL     1       4.792   4.870  16.718  0.00  0.00    +0.000 A 
ATOM      3  N   UNL     1       5.548   5.738  17.356  0.00  0.00    +0.000 NA
ATOM      4  C   UNL     1       6.684   6.019  16.741  0.00  0.00    +0.000 A 
ATOM      5 CL   UNL     1       7.694   7.154  17.520  0.00  0.00    +0.000 Cl
ATOM      6  N   UNL     1       7.145   5.502  15.617  0.00  0.00    +0.000 NA
ATOM      7  C   UNL     1       6.321   4.635  15.060  0.00  0.00    +0.000 A 
ATOM      8  N   UNL     1       6.837   3.966  13.972  0.00  0.00    +0.000 N 
ATOM      9  C   UNL     1       5.969   3.533  12.905  0.00  0.00    +0.000 C 
ATOM     10  N   UNL     1       5.118   4.335  15.546  0.00  0.00    +0.000 NA
ATOM     11  H   UNL     1       2.884   5.076  16.783  0.00  0.00    +0.000 HD
ATOM     12  H   UNL     1       7.708   4.400  13.692  0.00  0.00    +0.000 HD
ENDROOT
BRANCH   1  13
ATOM     13  C   UNL     1       3.383   4.555  18.739  0.00  0.00    +0.000 C 
BRANCH  13  15
ATOM     14  C   UNL     1       4.203   2.246  19.722  0.00  0.00    +0.000 C 
ATOM     15  C   UNL     1       4.541   3.683  19.332  0.00  0.00    +0.000 C 
ENDBRANCH  13  15
BRANCH  13  16
ATOM     16  C   UNL     1       2.092   3.941  19.187  0.00  0.00    +0.000 C 
ATOM     17  N   UNL     1       1.068   3.491  19.524  0.00  0.00    +0.000 NA
ENDBRANCH  13  16
BRANCH  13  18
ATOM     18  C   UNL     1       3.457   6.029  19.248  0.00  0.00    +0.000 C 
ATOM     19  C   UNL     1       2.445   7.013  18.662  0.00  0.00    +0.000 C 
ENDBRANCH  13  18
ENDBRANCH   1  13
TORSDOF 4
ENDMDL
MODEL 7
REMARK VINA RESULT:      -6.2      1.302      2.168
REMARK  Name = 
REMARK  7 active torsions:
REMARK  status: ('A' for Active; 'I' for Inactive)
REMARK    1  A    between atoms: C_1  and  C_2
REMARK    2  A    between atoms: C_2  and  C_3
REMARK    3  A    between atoms: C_3  and  C_4
REMARK    4  A    between atoms: C_3  and  C_6
REMARK    5  A    between atoms: C_3  and  N_8
REMARK    6  A    between atoms: C_6  and  C_7
REMARK    7  A    between atoms: N_15  and  C_16
REMARK                            x       y       z     vdW  Elec       q    Type
REMARK                         _______ _______ _______ _____ _____    ______ ____
ROOT
ATOM      1  N   UNL     1       3.490   4.410  17.312  0.00  0.00    +0.000 N 
ATOM      2  C   UNL     1       4.852   4.700  17.299  0.00  0.00    +0.000 A 
ATOM      3  N   UNL     1       5.464   5.009  18.422  0.00  0.00    +0.000 NA
ATOM      4  C   UNL     1       6.752   5.269  18.282  0.00  0.00    +0.000 A 
ATOM      5 CL   UNL     1       7.588   5.693  19.709  0.00  0.00    +0.000 Cl
ATOM      6  N   UNL     1       7.475   5.205  17.178  0.00  0.00    +0.000 NA
ATOM      7  C   UNL     1       6.775   4.877  16.110  0.00  0.00    +0.000 A 
ATOM      8  N   UNL     1       7.524   4.653  14.975  0.00  0.00    +0.000 N 
ATOM      9  C   UNL     1       6.976   4.935  13.673  0.00  0.00    +0.000 C 
ATOM     10  N   UNL     1       5.459   4.672  16.117  0.00  0.00    +0.000 NA
ATOM     11  H   UNL     1       3.039   5.278  17.038  0.00  0.00    +0.000 HD
ATOM     12  H   UNL     1       8.477   4.959  15.136  0.00  0.00    +0.000 HD
ENDROOT
BRANCH   1  13
ATOM     13  C   UNL     1       2.883   3.858  18.558  0.00  0.00    +0.000 C 
BRANCH  13  15
ATOM     14  C   UNL     1       0.577   2.758  19.224  0.00  0.00    +0.000 C 
ATOM     15  C   UNL     1       1.475   3.324  18.126  0.00  0.00    +0.000 C 
ENDBRANCH  13  15
BRANCH  13  16
ATOM     16  C   UNL     1       2.658   4.906  19.604  0.00  0.00    +0.000 C 
ATOM     17  N   UNL     1       2.462   5.700  20.439  0.00  0.00    +0.000 NA
ENDBRANCH  13  16
BRANCH  13  18
ATOM     18  C   UNL     1       3.771   2.719  19.151  0.00  0.00    +0.000 C 
ATOM     19  C   UNL     1       3.662   1.345  18.491  0.00  0.00    +0.000 C 
ENDBRANCH  13  18
ENDBRANCH   1  13
TORSDOF 4
ENDMDL
MODEL 8
REMARK VINA RESULT:      -6.2      1.154      2.113
REMARK  Name = 
REMARK  7 active torsions:
REMARK  status: ('A' for Active; 'I' for Inactive)
REMARK    1  A    between atoms: C_1  and  C_2
REMARK    2  A    between atoms: C_2  and  C_3
REMARK    3  A    between atoms: C_3  and  C_4
REMARK    4  A    between atoms: C_3  and  C_6
REMARK    5  A    between atoms: C_3  and  N_8
REMARK    6  A    between atoms: C_6  and  C_7
REMARK    7  A    between atoms: N_15  and  C_16
REMARK                            x       y       z     vdW  Elec       q    Type
REMARK                         _______ _______ _______ _____ _____    ______ ____
ROOT
ATOM      1  N   UNL     1       3.211   4.043  17.174  0.00  0.00    +0.000 N 
ATOM      2  C   UNL     1       4.564   4.269  16.933  0.00  0.00    +0.000 A 
ATOM      3  N   UNL     1       5.332   4.719  17.901  0.00  0.00    +0.000 NA
ATOM      4  C   UNL     1       6.594   4.899  17.551  0.00  0.00    +0.000 A 
ATOM      5 CL   UNL     1       7.630   5.498  18.768  0.00  0.00    +0.000 Cl
ATOM      6  N   UNL     1       7.155   4.637  16.384  0.00  0.00    +0.000 NA
ATOM      7  C   UNL     1       6.306   4.180  15.484  0.00  0.00    +0.000 A 
ATOM      8  N   UNL     1       6.885   3.756  14.308  0.00  0.00    +0.000 N 
ATOM      9  C   UNL     1       6.167   3.859  13.063  0.00  0.00    +0.000 C 
ATOM     10  N   UNL     1       5.000   4.036  15.699  0.00  0.00    +0.000 NA
ATOM     11  H   UNL     1       2.745   4.878  16.831  0.00  0.00    +0.000 HD
ATOM     12  H   UNL     1       7.857   4.041  14.289  0.00  0.00    +0.000 HD
ENDROOT
BRANCH   1  13
ATOM     13  C   UNL     1       2.772   3.714  18.560  0.00  0.00    +0.000 C 
BRANCH  13  15
ATOM     14  C   UNL     1       3.716   1.248  18.582  0.00  0.00    +0.000 C 
ATOM     15  C   UNL     1       3.825   2.683  19.091  0.00  0.00    +0.000 C 
ENDBRANCH  13  15
BRANCH  13  16
ATOM     16  C   UNL     1       1.435   3.040  18.598  0.00  0.00    +0.000 C 
ATOM     17  N   UNL     1       0.405   2.490  18.651  0.00  0.00    +0.000 NA
ENDBRANCH  13  16
BRANCH  13  18
ATOM     18  C   UNL     1       2.727   4.997  19.449  0.00  0.00    +0.000 C 
ATOM     19  C   UNL     1       2.108   4.853  20.839  0.00  0.00    +0.000 C 
ENDBRANCH  13  18
ENDBRANCH   1  13
TORSDOF 4
ENDMDL
MODEL 9
REMARK VINA RESULT:      -6.2      2.046      3.368
REMARK  Name = 
REMARK  7 active torsions:
REMARK  status: ('A' for Active; 'I' for Inactive)
REMARK    1  A    between atoms: C_1  and  C_2
REMARK    2  A    between atoms: C_2  and  C_3
REMARK    3  A    between atoms: C_3  and  C_4
REMARK    4  A    between atoms: C_3  and  C_6
REMARK    5  A    between atoms: C_3  and  N_8
REMARK    6  A    between atoms: C_6  and  C_7
REMARK    7  A    between atoms: N_15  and  C_16
REMARK                            x       y       z     vdW  Elec       q    Type
REMARK                         _______ _______ _______ _____ _____    ______ ____
ROOT
ATOM      1  N   UNL     1       4.832   4.857  19.510  0.00  0.00    +0.000 N 
ATOM      2  C   UNL     1       5.499   5.135  18.320  0.00  0.00    +0.000 A 
ATOM      3  N   UNL     1       5.387   4.309  17.303  0.00  0.00    +0.000 NA
ATOM      4  C   UNL     1       6.069   4.676  16.231  0.00  0.00    +0.000 A 
ATOM      5 CL   UNL     1       5.971   3.627  14.888  0.00  0.00    +0.000 Cl
ATOM      6  N   UNL     1       6.785   5.773  16.064  0.00  0.00    +0.000 NA
ATOM      7  C   UNL     1       6.826   6.541  17.136  0.00  0.00    +0.000 A 
ATOM      8  N   UNL     1       7.437   7.762  16.947  0.00  0.00    +0.000 N 
ATOM      9  C   UNL     1       8.136   8.403  18.032  0.00  0.00    +0.000 C 
ATOM     10  N   UNL     1       6.246   6.234  18.294  0.00  0.00    +0.000 NA
ATOM     11  H   UNL     1       5.531   4.418  20.101  0.00  0.00    +0.000 HD
ATOM     12  H   UNL     1       7.903   7.769  16.047  0.00  0.00    +0.000 HD
ENDROOT
BRANCH   1  13
ATOM     13  C   UNL     1       3.581   4.046  19.464  0.00  0.00    +0.000 C 
BRANCH  13  15
ATOM     14  C   UNL     1       3.102   1.732  18.286  0.00  0.00    +0.000 C 
ATOM     15  C   UNL     1       4.049   2.591  19.122  0.00  0.00    +0.000 C 
ENDBRANCH  13  15
BRANCH  13  16
ATOM     16  C   UNL     1       2.651   4.480  18.374  0.00  0.00    +0.000 C 
ATOM     17  N   UNL     1       1.906   4.837  17.548  0.00  0.00    +0.000 NA
ENDBRANCH  13  16
BRANCH  13  18
ATOM     18  C   UNL     1       2.832   4.101  20.833  0.00  0.00    +0.000 C 
ATOM     19  C   UNL     1       1.380   3.625  20.845  0.00  0.00    +0.000 C 
ENDBRANCH  13  18
ENDBRANCH   1  13
TORSDOF 4
ENDMDL
