MODEL 1
REMARK VINA RESULT:      -8.3      0.000      0.000
REMARK  Name = 
REMARK  9 active torsions:
REMARK  status: ('A' for Active; 'I' for Inactive)
REMARK    1  A    between atoms: C_1  and  O_2
REMARK    2  A    between atoms: O_2  and  C_3
REMARK    3  A    between atoms: C_6  and  N_7
REMARK    4  A    between atoms: C_8  and  C_10
REMARK    5  A    between atoms: C_10  and  N_11
REMARK    6  A    between atoms: N_11  and  C_12
REMARK    7  A    between atoms: N_11  and  C_13
REMARK    8  A    between atoms: C_15  and  N_16
REMARK    9  A    between atoms: C_22  and  C_23
REMARK                            x       y       z     vdW  Elec       q    Type
REMARK                         _______ _______ _______ _____ _____    ______ ____
ROOT
ATOM      1  N   UNL     1       1.539  10.029  18.060  0.00  0.00    +0.000 N 
ATOM      2  C   UNL     1       1.711   8.812  18.740  0.00  0.00    +0.000 A 
ATOM      3  N   UNL     1       1.258   8.703  20.000  0.00  0.00    +0.000 NA
ATOM      4  C   UNL     1       1.518   7.563  20.667  0.00  0.00    +0.000 A 
ATOM      5  C   UNL     1       2.168   6.486  20.118  0.00  0.00    +0.000 A 
ATOM      6 CL   UNL     1       2.426   5.092  21.087  0.00  0.00    +0.000 Cl
ATOM      7  C   UNL     1       2.547   6.642  18.793  0.00  0.00    +0.000 A 
ATOM      8  N   UNL     1       2.358   7.807  18.111  0.00  0.00    +0.000 NA
ATOM      9  H   UNL     1       2.444  10.366  17.750  0.00  0.00    +0.000 HD
ENDROOT
BRANCH   7  10
ATOM     10  C   UNL     1       3.194   5.576  18.016  0.00  0.00    +0.000 A 
ATOM     11  C   UNL     1       2.684   4.358  17.586  0.00  0.00    +0.000 A 
ATOM     12  N   UNL     1       3.574   3.661  16.822  0.00  0.00    +0.000 NA
ATOM     13  C   UNL     1       4.644   4.420  16.757  0.00  0.00    +0.000 A 
ATOM     14  C   UNL     1       5.891   4.232  16.093  0.00  0.00    +0.000 A 
ATOM     15  F   UNL     1       6.090   3.097  15.390  0.00  0.00    +0.000 F 
ATOM     16  C   UNL     1       6.853   5.167  16.157  0.00  0.00    +0.000 A 
ATOM     17  C   UNL     1       6.649   6.395  16.904  0.00  0.00    +0.000 A 
ATOM     18  C   UNL     1       5.477   6.587  17.539  0.00  0.00    +0.000 A 
ATOM     19  N   UNL     1       4.477   5.609  17.474  0.00  0.00    +0.000 N 
ENDBRANCH   7  10
BRANCH   1  25
ATOM     20  C   UNL     1       1.141  12.368  18.761  0.00  0.00    +0.000 A 
ATOM     21  C   UNL     1       0.235  13.374  19.115  0.00  0.00    +0.000 A 
ATOM     22  C   UNL     1      -1.135  13.138  19.102  0.00  0.00    +0.000 A 
ATOM     23  C   UNL     1      -1.638  11.892  18.749  0.00  0.00    +0.000 A 
ATOM     24  C   UNL     1      -0.740  10.879  18.394  0.00  0.00    +0.000 A 
ATOM     25  C   UNL     1       0.656  11.085  18.425  0.00  0.00    +0.000 A 
BRANCH  23  26
ATOM     26  N   UNL     1      -3.017  11.612  18.727  0.00  0.00    +0.000 N 
ATOM     27  C   UNL     1      -3.783  11.369  17.597  0.00  0.00    +0.000 C 
ATOM     28  O   UNL     1      -3.394  11.384  16.431  0.00  0.00    +0.000 OA
ATOM     29  H   UNL     1      -3.549  11.748  19.579  0.00  0.00    +0.000 HD
BRANCH  27  30
ATOM     30  C   UNL     1      -5.234  11.039  17.909  0.00  0.00    +0.000 C 
BRANCH  30  31
ATOM     31  N   UNL     1      -5.994  12.244  18.314  0.00  0.00    +0.000 NA
ATOM     32  C   UNL     1      -6.483  12.972  17.131  0.00  0.00    +0.000 C 
ATOM     33  C   UNL     1      -7.144  11.816  19.120  0.00  0.00    +0.000 C 
ENDBRANCH  30  31
ENDBRANCH  27  30
ENDBRANCH  23  26
BRANCH  20  35
ATOM     34  C   UNL     1       2.931  13.860  18.321  0.00  0.00    +0.000 C 
ATOM     35  O   UNL     1       2.504  12.563  18.754  0.00  0.00    +0.000 OA
ENDBRANCH  20  35
ENDBRANCH   1  25
TORSDOF 6
ENDMDL
MODEL 2
REMARK VINA RESULT:      -8.0      1.027      1.077
REMARK  Name = 
REMARK  9 active torsions:
REMARK  status: ('A' for Active; 'I' for Inactive)
REMARK    1  A    between atoms: C_1  and  O_2
REMARK    2  A    between atoms: O_2  and  C_3
REMARK    3  A    between atoms: C_6  and  N_7
REMARK    4  A    between atoms: C_8  and  C_10
REMARK    5  A    between atoms: C_10  and  N_11
REMARK    6  A    between atoms: N_11  and  C_12
REMARK    7  A    between atoms: N_11  and  C_13
REMARK    8  A    between atoms: C_15  and  N_16
REMARK    9  A    between atoms: C_22  and  C_23
REMARK                            x       y       z     vdW  Elec       q    Type
REMARK                         _______ _______ _______ _____ _____    ______ ____
ROOT
ATOM      1  N   UNL     1       1.548  10.167  18.072  0.00  0.00    +0.000 N 
ATOM      2  C   UNL     1       1.700   8.950  18.757  0.00  0.00    +0.000 A 
ATOM      3  N   UNL     1       1.242   8.853  20.016  0.00  0.00    +0.000 NA
ATOM      4  C   UNL     1       1.482   7.712  20.688  0.00  0.00    +0.000 A 
ATOM      5  C   UNL     1       2.118   6.623  20.146  0.00  0.00    +0.000 A 
ATOM      6 CL   UNL     1       2.353   5.230  21.122  0.00  0.00    +0.000 Cl
ATOM      7  C   UNL     1       2.504   6.769  18.822  0.00  0.00    +0.000 A 
ATOM      8  N   UNL     1       2.334   7.934  18.135  0.00  0.00    +0.000 NA
ATOM      9  H   UNL     1       2.459  10.490  17.764  0.00  0.00    +0.000 HD
ENDROOT
BRANCH   7  10
ATOM     10  C   UNL     1       3.138   5.690  18.052  0.00  0.00    +0.000 A 
ATOM     11  C   UNL     1       2.607   4.485  17.611  0.00  0.00    +0.000 A 
ATOM     12  N   UNL     1       3.492   3.770  16.858  0.00  0.00    +0.000 NA
ATOM     13  C   UNL     1       4.579   4.505  16.809  0.00  0.00    +0.000 A 
ATOM     14  C   UNL     1       5.831   4.291  16.163  0.00  0.00    +0.000 A 
ATOM     15  F   UNL     1       6.014   3.153  15.459  0.00  0.00    +0.000 F 
ATOM     16  C   UNL     1       6.812   5.204  16.241  0.00  0.00    +0.000 A 
ATOM     17  C   UNL     1       6.626   6.435  16.988  0.00  0.00    +0.000 A 
ATOM     18  C   UNL     1       5.449   6.651  17.608  0.00  0.00    +0.000 A 
ATOM     19  N   UNL     1       4.429   5.696  17.527  0.00  0.00    +0.000 N 
ENDBRANCH   7  10
BRANCH   1  25
ATOM     20  C   UNL     1       1.184  12.467  18.908  0.00  0.00    +0.000 A 
ATOM     21  C   UNL     1       0.291  13.490  19.249  0.00  0.00    +0.000 A 
ATOM     22  C   UNL     1      -1.081  13.324  19.086  0.00  0.00    +0.000 A 
ATOM     23  C   UNL     1      -1.599  12.133  18.592  0.00  0.00    +0.000 A 
ATOM     24  C   UNL     1      -0.714  11.105  18.250  0.00  0.00    +0.000 A 
ATOM     25  C   UNL     1       0.679  11.237  18.430  0.00  0.00    +0.000 A 
BRANCH  23  26
ATOM     26  N   UNL     1      -2.980  11.926  18.417  0.00  0.00    +0.000 N 
ATOM     27  C   UNL     1      -3.967  12.166  19.361  0.00  0.00    +0.000 C 
ATOM     28  O   UNL     1      -3.800  12.572  20.509  0.00  0.00    +0.000 OA
ATOM     29  H   UNL     1      -3.290  11.412  17.601  0.00  0.00    +0.000 HD
BRANCH  27  30
ATOM     30  C   UNL     1      -5.373  11.897  18.848  0.00  0.00    +0.000 C 
BRANCH  30  31
ATOM     31  N   UNL     1      -6.350  11.795  19.956  0.00  0.00    +0.000 NA
ATOM     32  C   UNL     1      -7.343  12.878  19.875  0.00  0.00    +0.000 C 
ATOM     33  C   UNL     1      -7.041  10.505  19.846  0.00  0.00    +0.000 C 
ENDBRANCH  30  31
ENDBRANCH  27  30
ENDBRANCH  23  26
BRANCH  20  35
ATOM     34  C   UNL     1       3.076  13.883  18.717  0.00  0.00    +0.000 C 
ATOM     35  O   UNL     1       2.548  12.593  19.046  0.00  0.00    +0.000 OA
ENDBRANCH  20  35
ENDBRANCH   1  25
TORSDOF 6
ENDMDL
MODEL 3
REMARK VINA RESULT:      -7.9      2.396      4.643
REMARK  Name = 
REMARK  9 active torsions:
REMARK  status: ('A' for Active; 'I' for Inactive)
REMARK    1  A    between atoms: C_1  and  O_2
REMARK    2  A    between atoms: O_2  and  C_3
REMARK    3  A    between atoms: C_6  and  N_7
REMARK    4  A    between atoms: C_8  and  C_10
REMARK    5  A    between atoms: C_10  and  N_11
REMARK    6  A    between atoms: N_11  and  C_12
REMARK    7  A    between atoms: N_11  and  C_13
REMARK    8  A    between atoms: C_15  and  N_16
REMARK    9  A    between atoms: C_22  and  C_23
REMARK                            x       y       z     vdW  Elec       q    Type
REMARK                         _______ _______ _______ _____ _____    ______ ____
ROOT
ATOM      1  N   UNL     1       1.598  10.010  18.075  0.00  0.00    +0.000 N 
ATOM      2  C   UNL     1       1.753   8.788  18.749  0.00  0.00    +0.000 A 
ATOM      3  N   UNL     1       1.299   8.680  20.008  0.00  0.00    +0.000 NA
ATOM      4  C   UNL     1       1.543   7.534  20.671  0.00  0.00    +0.000 A 
ATOM      5  C   UNL     1       2.178   6.450  20.118  0.00  0.00    +0.000 A 
ATOM      6 CL   UNL     1       2.417   5.049  21.081  0.00  0.00    +0.000 Cl
ATOM      7  C   UNL     1       2.560   6.607  18.794  0.00  0.00    +0.000 A 
ATOM      8  N   UNL     1       2.387   7.777  18.117  0.00  0.00    +0.000 NA
ATOM      9  H   UNL     1       2.508  10.336  17.766  0.00  0.00    +0.000 HD
ENDROOT
BRANCH   7  10
ATOM     10  C   UNL     1       3.193   5.535  18.012  0.00  0.00    +0.000 A 
ATOM     11  C   UNL     1       2.668   4.325  17.580  0.00  0.00    +0.000 A 
ATOM     12  N   UNL     1       3.547   3.619  16.812  0.00  0.00    +0.000 NA
ATOM     13  C   UNL     1       4.626   4.365  16.747  0.00  0.00    +0.000 A 
ATOM     14  C   UNL     1       5.870   4.165  16.080  0.00  0.00    +0.000 A 
ATOM     15  F   UNL     1       6.054   3.030  15.373  0.00  0.00    +0.000 F 
ATOM     16  C   UNL     1       6.843   5.088  16.143  0.00  0.00    +0.000 A 
ATOM     17  C   UNL     1       6.655   6.317  16.894  0.00  0.00    +0.000 A 
ATOM     18  C   UNL     1       5.486   6.520  17.533  0.00  0.00    +0.000 A 
ATOM     19  N   UNL     1       4.475   5.555  17.467  0.00  0.00    +0.000 N 
ENDBRANCH   7  10
BRANCH   1  25
ATOM     20  C   UNL     1      -0.658  11.018  18.187  0.00  0.00    +0.000 A 
ATOM     21  C   UNL     1      -1.473  12.091  18.567  0.00  0.00    +0.000 A 
ATOM     22  C   UNL     1      -0.940  13.193  19.228  0.00  0.00    +0.000 A 
ATOM     23  C   UNL     1       0.418  13.261  19.516  0.00  0.00    +0.000 A 
ATOM     24  C   UNL     1       1.240  12.193  19.139  0.00  0.00    +0.000 A 
ATOM     25  C   UNL     1       0.729  11.076  18.444  0.00  0.00    +0.000 A 
BRANCH  23  26
ATOM     26  N   UNL     1       0.995  14.360  20.178  0.00  0.00    +0.000 N 
ATOM     27  C   UNL     1       1.011  14.570  21.549  0.00  0.00    +0.000 C 
ATOM     28  O   UNL     1       0.504  13.850  22.407  0.00  0.00    +0.000 OA
ATOM     29  H   UNL     1       1.292  15.154  19.624  0.00  0.00    +0.000 HD
BRANCH  27  30
ATOM     30  C   UNL     1       1.766  15.824  21.960  0.00  0.00    +0.000 C 
BRANCH  30  31
ATOM     31  N   UNL     1       2.900  15.510  22.861  0.00  0.00    +0.000 NA
ATOM     32  C   UNL     1       4.019  14.928  22.103  0.00  0.00    +0.000 C 
ATOM     33  C   UNL     1       3.348  16.757  23.492  0.00  0.00    +0.000 C 
ENDBRANCH  30  31
ENDBRANCH  27  30
ENDBRANCH  23  26
BRANCH  20  35
ATOM     34  C   UNL     1      -2.276  10.144  16.690  0.00  0.00    +0.000 C 
ATOM     35  O   UNL     1      -1.147   9.906  17.539  0.00  0.00    +0.000 OA
ENDBRANCH  20  35
ENDBRANCH   1  25
TORSDOF 6
ENDMDL
MODEL 4
REMARK VINA RESULT:      -7.9      4.331     10.090
REMARK  Name = 
REMARK  9 active torsions:
REMARK  status: ('A' for Active; 'I' for Inactive)
REMARK    1  A    between atoms: C_1  and  O_2
REMARK    2  A    between atoms: O_2  and  C_3
REMARK    3  A    between atoms: C_6  and  N_7
REMARK    4  A    between atoms: C_8  and  C_10
REMARK    5  A    between atoms: C_10  and  N_11
REMARK    6  A    between atoms: N_11  and  C_12
REMARK    7  A    between atoms: N_11  and  C_13
REMARK    8  A    between atoms: C_15  and  N_16
REMARK    9  A    between atoms: C_22  and  C_23
REMARK                            x       y       z     vdW  Elec       q    Type
REMARK                         _______ _______ _______ _____ _____    ______ ____
ROOT
ATOM      1  N   UNL     1       2.360   5.501  20.042  0.00  0.00    +0.000 N 
ATOM      2  C   UNL     1       2.214   6.789  19.502  0.00  0.00    +0.000 A 
ATOM      3  N   UNL     1       2.769   7.058  18.309  0.00  0.00    +0.000 NA
ATOM      4  C   UNL     1       2.701   8.323  17.853  0.00  0.00    +0.000 A 
ATOM      5  C   UNL     1       2.052   9.340  18.509  0.00  0.00    +0.000 A 
ATOM      6 CL   UNL     1       2.044  10.906  17.805  0.00  0.00    +0.000 Cl
ATOM      7  C   UNL     1       1.446   8.975  19.701  0.00  0.00    +0.000 A 
ATOM      8  N   UNL     1       1.551   7.720  20.221  0.00  0.00    +0.000 NA
ATOM      9  H   UNL     1       2.788   5.573  20.959  0.00  0.00    +0.000 HD
ENDROOT
BRANCH   7  10
ATOM     10  C   UNL     1       0.649   9.909  20.510  0.00  0.00    +0.000 A 
ATOM     11  C   UNL     1       0.853  10.352  21.810  0.00  0.00    +0.000 A 
ATOM     12  N   UNL     1      -0.070  11.279  22.196  0.00  0.00    +0.000 NA
ATOM     13  C   UNL     1      -0.860  11.434  21.158  0.00  0.00    +0.000 A 
ATOM     14  C   UNL     1      -1.994  12.274  20.956  0.00  0.00    +0.000 A 
ATOM     15  F   UNL     1      -2.396  13.078  21.962  0.00  0.00    +0.000 F 
ATOM     16  C   UNL     1      -2.650  12.275  19.784  0.00  0.00    +0.000 A 
ATOM     17  C   UNL     1      -2.223  11.420  18.691  0.00  0.00    +0.000 A 
ATOM     18  C   UNL     1      -1.155  10.618  18.867  0.00  0.00    +0.000 A 
ATOM     19  N   UNL     1      -0.474  10.617  20.090  0.00  0.00    +0.000 N 
ENDBRANCH   7  10
BRANCH   1  25
ATOM     20  C   UNL     1       2.083   3.101  19.511  0.00  0.00    +0.000 A 
ATOM     21  C   UNL     1       2.514   1.975  18.800  0.00  0.00    +0.000 A 
ATOM     22  C   UNL     1       3.571   2.059  17.901  0.00  0.00    +0.000 A 
ATOM     23  C   UNL     1       4.235   3.262  17.695  0.00  0.00    +0.000 A 
ATOM     24  C   UNL     1       3.812   4.393  18.402  0.00  0.00    +0.000 A 
ATOM     25  C   UNL     1       2.760   4.329  19.340  0.00  0.00    +0.000 A 
BRANCH  23  26
ATOM     26  N   UNL     1       5.311   3.388  16.798  0.00  0.00    +0.000 N 
ATOM     27  C   UNL     1       5.569   4.477  15.980  0.00  0.00    +0.000 C 
ATOM     28  O   UNL     1       4.891   5.498  15.882  0.00  0.00    +0.000 OA
ATOM     29  H   UNL     1       5.870   2.566  16.598  0.00  0.00    +0.000 HD
BRANCH  27  30
ATOM     30  C   UNL     1       6.845   4.334  15.165  0.00  0.00    +0.000 C 
BRANCH  30  31
ATOM     31  N   UNL     1       6.643   4.740  13.755  0.00  0.00    +0.000 NA
ATOM     32  C   UNL     1       7.896   5.254  13.179  0.00  0.00    +0.000 C 
ATOM     33  C   UNL     1       6.214   3.563  12.991  0.00  0.00    +0.000 C 
ENDBRANCH  30  31
ENDBRANCH  27  30
ENDBRANCH  23  26
BRANCH  20  35
ATOM     34  C   UNL     1       1.375   2.608  21.719  0.00  0.00    +0.000 C 
ATOM     35  O   UNL     1       1.036   3.061  20.404  0.00  0.00    +0.000 OA
ENDBRANCH  20  35
ENDBRANCH   1  25
TORSDOF 6
ENDMDL
MODEL 5
REMARK VINA RESULT:      -7.7      2.393      4.310
REMARK  Name = 
REMARK  9 active torsions:
REMARK  status: ('A' for Active; 'I' for Inactive)
REMARK    1  A    between atoms: C_1  and  O_2
REMARK    2  A    between atoms: O_2  and  C_3
REMARK    3  A    between atoms: C_6  and  N_7
REMARK    4  A    between atoms: C_8  and  C_10
REMARK    5  A    between atoms: C_10  and  N_11
REMARK    6  A    between atoms: N_11  and  C_12
REMARK    7  A    between atoms: N_11  and  C_13
REMARK    8  A    between atoms: C_15  and  N_16
REMARK    9  A    between atoms: C_22  and  C_23
REMARK                            x       y       z     vdW  Elec       q    Type
REMARK                         _______ _______ _______ _____ _____    ______ ____
ROOT
ATOM      1  N   UNL     1       1.586  10.016  18.057  0.00  0.00    +0.000 N 
ATOM      2  C   UNL     1       1.745   8.792  18.730  0.00  0.00    +0.000 A 
ATOM      3  N   UNL     1       1.290   8.681  19.989  0.00  0.00    +0.000 NA
ATOM      4  C   UNL     1       1.537   7.535  20.649  0.00  0.00    +0.000 A 
ATOM      5  C   UNL     1       2.176   6.454  20.095  0.00  0.00    +0.000 A 
ATOM      6 CL   UNL     1       2.419   5.052  21.056  0.00  0.00    +0.000 Cl
ATOM      7  C   UNL     1       2.559   6.614  18.772  0.00  0.00    +0.000 A 
ATOM      8  N   UNL     1       2.382   7.785  18.096  0.00  0.00    +0.000 NA
ATOM      9  H   UNL     1       2.495  10.345  17.750  0.00  0.00    +0.000 HD
ENDROOT
BRANCH   7  10
ATOM     10  C   UNL     1       3.195   5.546  17.989  0.00  0.00    +0.000 A 
ATOM     11  C   UNL     1       2.673   4.336  17.550  0.00  0.00    +0.000 A 
ATOM     12  N   UNL     1       3.556   3.634  16.783  0.00  0.00    +0.000 NA
ATOM     13  C   UNL     1       4.635   4.381  16.725  0.00  0.00    +0.000 A 
ATOM     14  C   UNL     1       5.881   4.184  16.062  0.00  0.00    +0.000 A 
ATOM     15  F   UNL     1       6.068   3.052  15.352  0.00  0.00    +0.000 F 
ATOM     16  C   UNL     1       6.853   5.108  16.133  0.00  0.00    +0.000 A 
ATOM     17  C   UNL     1       6.661   6.334  16.887  0.00  0.00    +0.000 A 
ATOM     18  C   UNL     1       5.490   6.534  17.522  0.00  0.00    +0.000 A 
ATOM     19  N   UNL     1       4.479   5.568  17.449  0.00  0.00    +0.000 N 
ENDBRANCH   7  10
BRANCH   1  25
ATOM     20  C   UNL     1      -0.675  11.010  18.183  0.00  0.00    +0.000 A 
ATOM     21  C   UNL     1      -1.493  12.080  18.564  0.00  0.00    +0.000 A 
ATOM     22  C   UNL     1      -0.962  13.190  19.213  0.00  0.00    +0.000 A 
ATOM     23  C   UNL     1       0.398  13.267  19.489  0.00  0.00    +0.000 A 
ATOM     24  C   UNL     1       1.223  12.203  19.111  0.00  0.00    +0.000 A 
ATOM     25  C   UNL     1       0.714  11.078  18.428  0.00  0.00    +0.000 A 
BRANCH  23  26
ATOM     26  N   UNL     1       0.974  14.374  20.140  0.00  0.00    +0.000 N 
ATOM     27  C   UNL     1       1.044  14.569  21.511  0.00  0.00    +0.000 C 
ATOM     28  O   UNL     1       0.592  13.827  22.381  0.00  0.00    +0.000 OA
ATOM     29  H   UNL     1       1.226  15.183  19.583  0.00  0.00    +0.000 HD
BRANCH  27  30
ATOM     30  C   UNL     1       1.782  15.838  21.905  0.00  0.00    +0.000 C 
BRANCH  30  31
ATOM     31  N   UNL     1       1.306  17.010  21.134  0.00  0.00    +0.000 NA
ATOM     32  C   UNL     1       0.144  17.628  21.793  0.00  0.00    +0.000 C 
ATOM     33  C   UNL     1       2.395  17.993  21.066  0.00  0.00    +0.000 C 
ENDBRANCH  30  31
ENDBRANCH  27  30
ENDBRANCH  23  26
BRANCH  20  35
ATOM     34  C   UNL     1      -2.253  10.129  16.649  0.00  0.00    +0.000 C 
ATOM     35  O   UNL     1      -1.163   9.891  17.546  0.00  0.00    +0.000 OA
ENDBRANCH  20  35
ENDBRANCH   1  25
TORSDOF 6
ENDMDL
MODEL 6
REMARK VINA RESULT:      -7.5      4.830     10.068
REMARK  Name = 
REMARK  9 active torsions:
REMARK  status: ('A' for Active; 'I' for Inactive)
REMARK    1  A    between atoms: C_1  and  O_2
REMARK    2  A    between atoms: O_2  and  C_3
REMARK    3  A    between atoms: C_6  and  N_7
REMARK    4  A    between atoms: C_8  and  C_10
REMARK    5  A    between atoms: C_10  and  N_11
REMARK    6  A    between atoms: N_11  and  C_12
REMARK    7  A    between atoms: N_11  and  C_13
REMARK    8  A    between atoms: C_15  and  N_16
REMARK    9  A    between atoms: C_22  and  C_23
REMARK                            x       y       z     vdW  Elec       q    Type
REMARK                         _______ _______ _______ _____ _____    ______ ____
ROOT
ATOM      1  N   UNL     1       2.720   6.187  20.423  0.00  0.00    +0.000 N 
ATOM      2  C   UNL     1       2.108   7.321  19.863  0.00  0.00    +0.000 A 
ATOM      3  N   UNL     1       2.179   7.505  18.534  0.00  0.00    +0.000 NA
ATOM      4  C   UNL     1       1.672   8.644  18.028  0.00  0.00    +0.000 A 
ATOM      5  C   UNL     1       1.037   9.601  18.780  0.00  0.00    +0.000 A 
ATOM      6 CL   UNL     1       0.434  11.005  17.997  0.00  0.00    +0.000 Cl
ATOM      7  C   UNL     1       0.941   9.314  20.134  0.00  0.00    +0.000 A 
ATOM      8  N   UNL     1       1.501   8.202  20.687  0.00  0.00    +0.000 NA
ATOM      9  H   UNL     1       3.384   6.485  21.131  0.00  0.00    +0.000 HD
ENDROOT
BRANCH   7  10
ATOM     10  C   UNL     1       0.239  10.185  21.087  0.00  0.00    +0.000 A 
ATOM     11  C   UNL     1      -0.663   9.856  22.090  0.00  0.00    +0.000 A 
ATOM     12  N   UNL     1      -1.050  10.941  22.820  0.00  0.00    +0.000 NA
ATOM     13  C   UNL     1      -0.404  11.958  22.298  0.00  0.00    +0.000 A 
ATOM     14  C   UNL     1      -0.390  13.341  22.642  0.00  0.00    +0.000 A 
ATOM     15  F   UNL     1      -1.154  13.763  23.672  0.00  0.00    +0.000 F 
ATOM     16  C   UNL     1       0.372  14.213  21.962  0.00  0.00    +0.000 A 
ATOM     17  C   UNL     1       1.204  13.771  20.857  0.00  0.00    +0.000 A 
ATOM     18  C   UNL     1       1.200  12.467  20.517  0.00  0.00    +0.000 A 
ATOM     19  N   UNL     1       0.402  11.561  21.226  0.00  0.00    +0.000 N 
ENDBRANCH   7  10
BRANCH   1  25
ATOM     20  C   UNL     1       2.516   3.774  19.917  0.00  0.00    +0.000 A 
ATOM     21  C   UNL     1       2.973   2.657  19.208  0.00  0.00    +0.000 A 
ATOM     22  C   UNL     1       4.012   2.770  18.290  0.00  0.00    +0.000 A 
ATOM     23  C   UNL     1       4.630   3.993  18.064  0.00  0.00    +0.000 A 
ATOM     24  C   UNL     1       4.181   5.115  18.768  0.00  0.00    +0.000 A 
ATOM     25  C   UNL     1       3.148   5.023  19.724  0.00  0.00    +0.000 A 
BRANCH  23  26
ATOM     26  N   UNL     1       5.687   4.147  17.147  0.00  0.00    +0.000 N 
ATOM     27  C   UNL     1       5.802   5.149  16.195  0.00  0.00    +0.000 C 
ATOM     28  O   UNL     1       4.993   6.048  15.976  0.00  0.00    +0.000 OA
ATOM     29  H   UNL     1       6.352   3.389  17.047  0.00  0.00    +0.000 HD
BRANCH  27  30
ATOM     30  C   UNL     1       7.091   5.076  15.392  0.00  0.00    +0.000 C 
BRANCH  30  31
ATOM     31  N   UNL     1       6.830   5.085  13.935  0.00  0.00    +0.000 NA
ATOM     32  C   UNL     1       8.080   5.287  13.184  0.00  0.00    +0.000 C 
ATOM     33  C   UNL     1       6.253   3.788  13.560  0.00  0.00    +0.000 C 
ENDBRANCH  30  31
ENDBRANCH  27  30
ENDBRANCH  23  26
BRANCH  20  35
ATOM     34  C   UNL     1       1.607   2.669  21.807  0.00  0.00    +0.000 C 
ATOM     35  O   UNL     1       1.486   3.707  20.828  0.00  0.00    +0.000 OA
ENDBRANCH  20  35
ENDBRANCH   1  25
TORSDOF 6
ENDMDL
MODEL 7
REMARK VINA RESULT:      -7.3      1.561      1.796
REMARK  Name = 
REMARK  9 active torsions:
REMARK  status: ('A' for Active; 'I' for Inactive)
REMARK    1  A    between atoms: C_1  and  O_2
REMARK    2  A    between atoms: O_2  and  C_3
REMARK    3  A    between atoms: C_6  and  N_7
REMARK    4  A    between atoms: C_8  and  C_10
REMARK    5  A    between atoms: C_10  and  N_11
REMARK    6  A    between atoms: N_11  and  C_12
REMARK    7  A    between atoms: N_11  and  C_13
REMARK    8  A    between atoms: C_15  and  N_16
REMARK    9  A    between atoms: C_22  and  C_23
REMARK                            x       y       z     vdW  Elec       q    Type
REMARK                         _______ _______ _______ _____ _____    ______ ____
ROOT
ATOM      1  N   UNL     1       1.462   9.303  19.072  0.00  0.00    +0.000 N 
ATOM      2  C   UNL     1       1.692   7.960  19.414  0.00  0.00    +0.000 A 
ATOM      3  N   UNL     1       1.128   7.469  20.530  0.00  0.00    +0.000 NA
ATOM      4  C   UNL     1       1.438   6.211  20.892  0.00  0.00    +0.000 A 
ATOM      5  C   UNL     1       2.251   5.381  20.161  0.00  0.00    +0.000 A 
ATOM      6 CL   UNL     1       2.555   3.795  20.743  0.00  0.00    +0.000 Cl
ATOM      7  C   UNL     1       2.744   5.930  18.987  0.00  0.00    +0.000 A 
ATOM      8  N   UNL     1       2.503   7.222  18.626  0.00  0.00    +0.000 NA
ATOM      9  H   UNL     1       2.354   9.779  18.982  0.00  0.00    +0.000 HD
ENDROOT
BRANCH   7  10
ATOM     10  C   UNL     1       3.576   5.175  18.040  0.00  0.00    +0.000 A 
ATOM     11  C   UNL     1       3.278   4.027  17.317  0.00  0.00    +0.000 A 
ATOM     12  N   UNL     1       4.292   3.659  16.481  0.00  0.00    +0.000 NA
ATOM     13  C   UNL     1       5.232   4.559  16.659  0.00  0.00    +0.000 A 
ATOM     14  C   UNL     1       6.515   4.711  16.058  0.00  0.00    +0.000 A 
ATOM     15  F   UNL     1       6.913   3.808  15.137  0.00  0.00    +0.000 F 
ATOM     16  C   UNL     1       7.316   5.735  16.392  0.00  0.00    +0.000 A 
ATOM     17  C   UNL     1       6.897   6.718  17.376  0.00  0.00    +0.000 A 
ATOM     18  C   UNL     1       5.688   6.587  17.956  0.00  0.00    +0.000 A 
ATOM     19  N   UNL     1       4.856   5.516  17.608  0.00  0.00    +0.000 N 
ENDBRANCH   7  10
BRANCH   1  25
ATOM     20  C   UNL     1       0.501  10.650  20.910  0.00  0.00    +0.000 A 
ATOM     21  C   UNL     1      -0.528  11.474  21.379  0.00  0.00    +0.000 A 
ATOM     22  C   UNL     1      -1.588  11.834  20.553  0.00  0.00    +0.000 A 
ATOM     23  C   UNL     1      -1.655  11.373  19.244  0.00  0.00    +0.000 A 
ATOM     24  C   UNL     1      -0.631  10.548  18.767  0.00  0.00    +0.000 A 
ATOM     25  C   UNL     1       0.440  10.146  19.592  0.00  0.00    +0.000 A 
BRANCH  23  26
ATOM     26  N   UNL     1      -2.712  11.711  18.378  0.00  0.00    +0.000 N 
ATOM     27  C   UNL     1      -3.536  10.818  17.709  0.00  0.00    +0.000 C 
ATOM     28  O   UNL     1      -3.465   9.591  17.738  0.00  0.00    +0.000 OA
ATOM     29  H   UNL     1      -2.800  12.675  18.079  0.00  0.00    +0.000 HD
BRANCH  27  30
ATOM     30  C   UNL     1      -4.626  11.495  16.893  0.00  0.00    +0.000 C 
BRANCH  30  31
ATOM     31  N   UNL     1      -5.630  12.153  17.760  0.00  0.00    +0.000 NA
ATOM     32  C   UNL     1      -6.357  13.194  17.015  0.00  0.00    +0.000 C 
ATOM     33  C   UNL     1      -6.586  11.137  18.215  0.00  0.00    +0.000 C 
ENDBRANCH  30  31
ENDBRANCH  27  30
ENDBRANCH  23  26
BRANCH  20  35
ATOM     34  C   UNL     1       1.232   9.548  22.878  0.00  0.00    +0.000 C 
ATOM     35  O   UNL     1       1.571  10.277  21.693  0.00  0.00    +0.000 OA
ENDBRANCH  20  35
ENDBRANCH   1  25
TORSDOF 6
ENDMDL
MODEL 8
REMARK VINA RESULT:      -7.3      2.343      4.358
REMARK  Name = 
REMARK  9 active torsions:
REMARK  status: ('A' for Active; 'I' for Inactive)
REMARK    1  A    between atoms: C_1  and  O_2
REMARK    2  A    between atoms: O_2  and  C_3
REMARK    3  A    between atoms: C_6  and  N_7
REMARK    4  A    between atoms: C_8  and  C_10
REMARK    5  A    between atoms: C_10  and  N_11
REMARK    6  A    between atoms: N_11  and  C_12
REMARK    7  A    between atoms: N_11  and  C_13
REMARK    8  A    between atoms: C_15  and  N_16
REMARK    9  A    between atoms: C_22  and  C_23
REMARK                            x       y       z     vdW  Elec       q    Type
REMARK                         _______ _______ _______ _____ _____    ______ ____
ROOT
ATOM      1  N   UNL     1       1.701  10.113  18.036  0.00  0.00    +0.000 N 
ATOM      2  C   UNL     1       1.824   8.892  18.721  0.00  0.00    +0.000 A 
ATOM      3  N   UNL     1       1.356   8.804  19.977  0.00  0.00    +0.000 NA
ATOM      4  C   UNL     1       1.569   7.658  20.650  0.00  0.00    +0.000 A 
ATOM      5  C   UNL     1       2.187   6.557  20.111  0.00  0.00    +0.000 A 
ATOM      6 CL   UNL     1       2.387   5.159  21.088  0.00  0.00    +0.000 Cl
ATOM      7  C   UNL     1       2.585   6.696  18.790  0.00  0.00    +0.000 A 
ATOM      8  N   UNL     1       2.443   7.864  18.103  0.00  0.00    +0.000 NA
ATOM      9  H   UNL     1       2.621  10.417  17.735  0.00  0.00    +0.000 HD
ENDROOT
BRANCH   7  10
ATOM     10  C   UNL     1       3.202   5.605  18.023  0.00  0.00    +0.000 A 
ATOM     11  C   UNL     1       2.666   4.389  17.622  0.00  0.00    +0.000 A 
ATOM     12  N   UNL     1       3.532   3.663  16.858  0.00  0.00    +0.000 NA
ATOM     13  C   UNL     1       4.614   4.402  16.764  0.00  0.00    +0.000 A 
ATOM     14  C   UNL     1       5.848   4.182  16.086  0.00  0.00    +0.000 A 
ATOM     15  F   UNL     1       6.017   3.031  15.400  0.00  0.00    +0.000 F 
ATOM     16  C   UNL     1       6.826   5.101  16.118  0.00  0.00    +0.000 A 
ATOM     17  C   UNL     1       6.654   6.346  16.846  0.00  0.00    +0.000 A 
ATOM     18  C   UNL     1       5.494   6.568  17.495  0.00  0.00    +0.000 A 
ATOM     19  N   UNL     1       4.477   5.607  17.462  0.00  0.00    +0.000 N 
ENDBRANCH   7  10
BRANCH   1  25
ATOM     20  C   UNL     1      -0.554  11.097  18.293  0.00  0.00    +0.000 A 
ATOM     21  C   UNL     1      -1.348  12.193  18.650  0.00  0.00    +0.000 A 
ATOM     22  C   UNL     1      -0.774  13.364  19.133  0.00  0.00    +0.000 A 
ATOM     23  C   UNL     1       0.605  13.479  19.263  0.00  0.00    +0.000 A 
ATOM     24  C   UNL     1       1.407  12.389  18.908  0.00  0.00    +0.000 A 
ATOM     25  C   UNL     1       0.852  11.199  18.389  0.00  0.00    +0.000 A 
BRANCH  23  26
ATOM     26  N   UNL     1       1.223  14.647  19.745  0.00  0.00    +0.000 N 
ATOM     27  C   UNL     1       2.327  15.275  19.187  0.00  0.00    +0.000 C 
ATOM     28  O   UNL     1       2.962  14.904  18.202  0.00  0.00    +0.000 OA
ATOM     29  H   UNL     1       0.958  14.990  20.661  0.00  0.00    +0.000 HD
BRANCH  27  30
ATOM     30  C   UNL     1       2.723  16.555  19.907  0.00  0.00    +0.000 C 
BRANCH  30  31
ATOM     31  N   UNL     1       2.236  17.757  19.193  0.00  0.00    +0.000 NA
ATOM     32  C   UNL     1       1.299  17.381  18.121  0.00  0.00    +0.000 C 
ATOM     33  C   UNL     1       1.538  18.617  20.156  0.00  0.00    +0.000 C 
ENDBRANCH  30  31
ENDBRANCH  27  30
ENDBRANCH  23  26
BRANCH  20  35
ATOM     34  C   UNL     1      -2.148  10.067  16.872  0.00  0.00    +0.000 C 
ATOM     35  O   UNL     1      -1.082   9.918  17.817  0.00  0.00    +0.000 OA
ENDBRANCH  20  35
ENDBRANCH   1  25
TORSDOF 6
ENDMDL
MODEL 9
REMARK VINA RESULT:      -7.2      2.477      3.254
REMARK  Name = 
REMARK  9 active torsions:
REMARK  status: ('A' for Active; 'I' for Inactive)
REMARK    1  A    between atoms: C_1  and  O_2
REMARK    2  A    between atoms: O_2  and  C_3
REMARK    3  A    between atoms: C_6  and  N_7
REMARK    4  A    between atoms: C_8  and  C_10
REMARK    5  A    between atoms: C_10  and  N_11
REMARK    6  A    between atoms: N_11  and  C_12
REMARK    7  A    between atoms: N_11  and  C_13
REMARK    8  A    between atoms: C_15  and  N_16
REMARK    9  A    between atoms: C_22  and  C_23
REMARK                            x       y       z     vdW  Elec       q    Type
REMARK                         _______ _______ _______ _____ _____    ______ ____
ROOT
ATOM      1  N   UNL     1       0.423   8.593  20.142  0.00  0.00    +0.000 N 
ATOM      2  C   UNL     1       1.488   8.275  19.283  0.00  0.00    +0.000 A 
ATOM      3  N   UNL     1       1.807   9.134  18.302  0.00  0.00    +0.000 NA
ATOM      4  C   UNL     1       2.765   8.768  17.430  0.00  0.00    +0.000 A 
ATOM      5  C   UNL     1       3.472   7.595  17.518  0.00  0.00    +0.000 A 
ATOM      6 CL   UNL     1       4.672   7.260  16.335  0.00  0.00    +0.000 Cl
ATOM      7  C   UNL     1       3.136   6.786  18.593  0.00  0.00    +0.000 A 
ATOM      8  N   UNL     1       2.127   7.098  19.454  0.00  0.00    +0.000 NA
ATOM      9  H   UNL     1      -0.260   7.842  20.116  0.00  0.00    +0.000 HD
ENDROOT
BRANCH   7  10
ATOM     10  C   UNL     1       3.828   5.524  18.891  0.00  0.00    +0.000 A 
ATOM     11  C   UNL     1       5.097   5.310  19.412  0.00  0.00    +0.000 A 
ATOM     12  N   UNL     1       5.361   3.987  19.614  0.00  0.00    +0.000 NA
ATOM     13  C   UNL     1       4.276   3.354  19.230  0.00  0.00    +0.000 A 
ATOM     14  C   UNL     1       3.951   1.967  19.216  0.00  0.00    +0.000 A 
ATOM     15  F   UNL     1       4.869   1.079  19.653  0.00  0.00    +0.000 F 
ATOM     16  C   UNL     1       2.752   1.544  18.784  0.00  0.00    +0.000 A 
ATOM     17  C   UNL     1       1.753   2.489  18.319  0.00  0.00    +0.000 A 
ATOM     18  C   UNL     1       2.045   3.804  18.322  0.00  0.00    +0.000 A 
ATOM     19  N   UNL     1       3.297   4.242  18.770  0.00  0.00    +0.000 N 
ENDBRANCH   7  10
BRANCH   1  25
ATOM     20  C   UNL     1       0.234  10.749  21.339  0.00  0.00    +0.000 A 
ATOM     21  C   UNL     1      -0.385  11.998  21.466  0.00  0.00    +0.000 A 
ATOM     22  C   UNL     1      -1.369  12.401  20.570  0.00  0.00    +0.000 A 
ATOM     23  C   UNL     1      -1.770  11.568  19.533  0.00  0.00    +0.000 A 
ATOM     24  C   UNL     1      -1.158  10.317  19.399  0.00  0.00    +0.000 A 
ATOM     25  C   UNL     1      -0.176   9.873  20.310  0.00  0.00    +0.000 A 
BRANCH  23  26
ATOM     26  N   UNL     1      -2.765  11.938  18.609  0.00  0.00    +0.000 N 
ATOM     27  C   UNL     1      -3.506  11.073  17.818  0.00  0.00    +0.000 C 
ATOM     28  O   UNL     1      -3.400   9.849  17.771  0.00  0.00    +0.000 OA
ATOM     29  H   UNL     1      -2.858  12.918  18.368  0.00  0.00    +0.000 HD
BRANCH  27  30
ATOM     30  C   UNL     1      -4.547  11.777  16.963  0.00  0.00    +0.000 C 
BRANCH  30  31
ATOM     31  N   UNL     1      -5.665  12.300  17.781  0.00  0.00    +0.000 NA
ATOM     32  C   UNL     1      -6.471  13.259  17.008  0.00  0.00    +0.000 C 
ATOM     33  C   UNL     1      -6.517  11.171  18.176  0.00  0.00    +0.000 C 
ENDBRANCH  30  31
ENDBRANCH  27  30
ENDBRANCH  23  26
BRANCH  20  35
ATOM     34  C   UNL     1       0.769   9.447  23.247  0.00  0.00    +0.000 C 
ATOM     35  O   UNL     1       1.218  10.315  22.200  0.00  0.00    +0.000 OA
ENDBRANCH  20  35
ENDBRANCH   1  25
TORSDOF 6
ENDMDL
