MODEL 1
REMARK VINA RESULT:      -8.9      0.000      0.000
REMARK  Name = 
REMARK  7 active torsions:
REMARK  status: ('A' for Active; 'I' for Inactive)
REMARK    1  A    between atoms: C_2  and  C_11
REMARK    2  A    between atoms: N_3  and  C_4
REMARK    3  A    between atoms: C_14  and  S_15
REMARK    4  A    between atoms: S_15  and  C_16
REMARK    5  A    between atoms: C_16  and  C_17
REMARK    6  A    between atoms: C_17  and  C_19
REMARK    7  A    between atoms: C_21  and  C_22
REMARK                            x       y       z     vdW  Elec       q    Type
REMARK                         _______ _______ _______ _____ _____    ______ ____
ROOT
ATOM      1  C   UNL     1       2.723   6.314  19.360  0.00  0.00    +0.000 A 
ATOM      2  C   UNL     1       2.966   6.785  18.074  0.00  0.00    +0.000 A 
ATOM      3  C   UNL     1       3.853   6.080  17.257  0.00  0.00    +0.000 A 
ATOM      4  C   UNL     1       4.455   4.922  17.747  0.00  0.00    +0.000 A 
ATOM      5  N   UNL     1       4.251   4.469  19.004  0.00  0.00    +0.000 NA
ATOM      6  C   UNL     1       3.406   5.182  19.787  0.00  0.00    +0.000 A 
ENDROOT
BRANCH   1   8
ATOM      7  O   UNL     1       1.161   6.238  21.049  0.00  0.00    +0.000 OA
ATOM      8  C   UNL     1       1.803   6.970  20.306  0.00  0.00    +0.000 C 
ATOM      9  N   UNL     1       1.693   8.348  20.193  0.00  0.00    +0.000 N 
ATOM     10  H   UNL     1       2.120   8.793  19.389  0.00  0.00    +0.000 HD
BRANCH   9  11
ATOM     11  C   UNL     1       0.811   9.142  20.962  0.00  0.00    +0.000 A 
ATOM     12  C   UNL     1      -0.026  10.103  20.389  0.00  0.00    +0.000 A 
ATOM     13  C   UNL     1      -0.809  10.935  21.184  0.00  0.00    +0.000 A 
ATOM     14  C   UNL     1      -0.776  10.796  22.564  0.00  0.00    +0.000 A 
ATOM     15  F   UNL     1      -1.502  11.618  23.330  0.00  0.00    +0.000 F 
ATOM     16  C   UNL     1       0.006   9.811  23.156  0.00  0.00    +0.000 A 
ATOM     17  C   UNL     1       0.792   8.972  22.356  0.00  0.00    +0.000 A 
ENDBRANCH   9  11
ENDBRANCH   1   8
BRANCH   4  18
ATOM     18  S   UNL     1       5.550   3.985  16.703  0.00  0.00    +0.000 S 
BRANCH  18  19
ATOM     19  C   UNL     1       6.923   5.181  16.546  0.00  0.00    +0.000 C 
BRANCH  19  20
ATOM     20  C   UNL     1       7.412   5.692  17.899  0.00  0.00    +0.000 C 
ATOM     21  O   UNL     1       7.596   4.940  18.860  0.00  0.00    +0.000 OA
BRANCH  20  22
ATOM     22  C   UNL     1       7.740   7.095  17.978  0.00  0.00    +0.000 A 
ATOM     23  C   UNL     1       8.598   7.798  18.789  0.00  0.00    +0.000 A 
ATOM     24  C   UNL     1       8.497   9.149  18.362  0.00  0.00    +0.000 A 
ATOM     25  N   UNL     1       7.610   9.247  17.358  0.00  0.00    +0.000 NA
ATOM     26  O   UNL     1       7.151   7.972  17.115  0.00  0.00    +0.000 OA
BRANCH  24  27
ATOM     27  C   UNL     1       9.221  10.316  18.862  0.00  0.00    +0.000 A 
ATOM     28  C   UNL     1       9.281  10.586  20.237  0.00  0.00    +0.000 A 
ATOM     29  C   UNL     1      10.006  11.681  20.714  0.00  0.00    +0.000 A 
ATOM     30  C   UNL     1      10.671  12.522  19.823  0.00  0.00    +0.000 A 
ATOM     31  C   UNL     1      10.609  12.272  18.454  0.00  0.00    +0.000 A 
ATOM     32  C   UNL     1       9.889  11.175  17.976  0.00  0.00    +0.000 A 
ENDBRANCH  24  27
ENDBRANCH  20  22
ENDBRANCH  19  20
ENDBRANCH  18  19
ENDBRANCH   4  18
TORSDOF 7
ENDMDL
MODEL 2
REMARK VINA RESULT:      -8.8      1.423      1.594
REMARK  Name = 
REMARK  7 active torsions:
REMARK  status: ('A' for Active; 'I' for Inactive)
REMARK    1  A    between atoms: C_2  and  C_11
REMARK    2  A    between atoms: N_3  and  C_4
REMARK    3  A    between atoms: C_14  and  S_15
REMARK    4  A    between atoms: S_15  and  C_16
REMARK    5  A    between atoms: C_16  and  C_17
REMARK    6  A    between atoms: C_17  and  C_19
REMARK    7  A    between atoms: C_21  and  C_22
REMARK                            x       y       z     vdW  Elec       q    Type
REMARK                         _______ _______ _______ _____ _____    ______ ____
ROOT
ATOM      1  C   UNL     1       2.104   8.039  18.824  0.00  0.00    +0.000 A 
ATOM      2  C   UNL     1       2.853   8.181  17.661  0.00  0.00    +0.000 A 
ATOM      3  C   UNL     1       3.688   7.133  17.268  0.00  0.00    +0.000 A 
ATOM      4  C   UNL     1       3.735   5.974  18.041  0.00  0.00    +0.000 A 
ATOM      5  N   UNL     1       3.035   5.833  19.188  0.00  0.00    +0.000 NA
ATOM      6  C   UNL     1       2.251   6.872  19.564  0.00  0.00    +0.000 A 
ENDROOT
BRANCH   1   8
ATOM      7  O   UNL     1       0.554   9.709  18.496  0.00  0.00    +0.000 OA
ATOM      8  C   UNL     1       1.184   9.073  19.331  0.00  0.00    +0.000 C 
ATOM      9  N   UNL     1       1.196   9.279  20.703  0.00  0.00    +0.000 N 
ATOM     10  H   UNL     1       1.927   8.830  21.243  0.00  0.00    +0.000 HD
BRANCH   9  11
ATOM     11  C   UNL     1       0.439  10.272  21.366  0.00  0.00    +0.000 A 
ATOM     12  C   UNL     1       0.595  11.635  21.101  0.00  0.00    +0.000 A 
ATOM     13  C   UNL     1      -0.095  12.591  21.841  0.00  0.00    +0.000 A 
ATOM     14  C   UNL     1      -0.967  12.186  22.842  0.00  0.00    +0.000 A 
ATOM     15  F   UNL     1      -1.605  13.104  23.576  0.00  0.00    +0.000 F 
ATOM     16  C   UNL     1      -1.182  10.835  23.087  0.00  0.00    +0.000 A 
ATOM     17  C   UNL     1      -0.490   9.873  22.340  0.00  0.00    +0.000 A 
ENDBRANCH   9  11
ENDBRANCH   1   8
BRANCH   4  18
ATOM     18  S   UNL     1       4.758   4.611  17.529  0.00  0.00    +0.000 S 
BRANCH  18  19
ATOM     19  C   UNL     1       6.069   4.714  18.798  0.00  0.00    +0.000 C 
BRANCH  19  20
ATOM     20  C   UNL     1       7.418   5.128  18.213  0.00  0.00    +0.000 C 
ATOM     21  O   UNL     1       8.245   4.303  17.817  0.00  0.00    +0.000 OA
BRANCH  20  22
ATOM     22  C   UNL     1       7.645   6.545  18.060  0.00  0.00    +0.000 A 
ATOM     23  C   UNL     1       8.320   7.460  18.832  0.00  0.00    +0.000 A 
ATOM     24  C   UNL     1       8.208   8.693  18.137  0.00  0.00    +0.000 A 
ATOM     25  N   UNL     1       7.487   8.524  17.017  0.00  0.00    +0.000 NA
ATOM     26  O   UNL     1       7.150   7.190  16.966  0.00  0.00    +0.000 OA
BRANCH  24  27
ATOM     27  C   UNL     1       8.773   9.992  18.497  0.00  0.00    +0.000 A 
ATOM     28  C   UNL     1       9.497  10.153  19.687  0.00  0.00    +0.000 A 
ATOM     29  C   UNL     1      10.068  11.388  20.009  0.00  0.00    +0.000 A 
ATOM     30  C   UNL     1       9.915  12.474  19.150  0.00  0.00    +0.000 A 
ATOM     31  C   UNL     1       9.188  12.331  17.971  0.00  0.00    +0.000 A 
ATOM     32  C   UNL     1       8.621  11.097  17.645  0.00  0.00    +0.000 A 
ENDBRANCH  24  27
ENDBRANCH  20  22
ENDBRANCH  19  20
ENDBRANCH  18  19
ENDBRANCH   4  18
TORSDOF 7
ENDMDL
MODEL 3
REMARK VINA RESULT:      -8.7      1.207      1.482
REMARK  Name = 
REMARK  7 active torsions:
REMARK  status: ('A' for Active; 'I' for Inactive)
REMARK    1  A    between atoms: C_2  and  C_11
REMARK    2  A    between atoms: N_3  and  C_4
REMARK    3  A    between atoms: C_14  and  S_15
REMARK    4  A    between atoms: S_15  and  C_16
REMARK    5  A    between atoms: C_16  and  C_17
REMARK    6  A    between atoms: C_17  and  C_19
REMARK    7  A    between atoms: C_21  and  C_22
REMARK                            x       y       z     vdW  Elec       q    Type
REMARK                         _______ _______ _______ _____ _____    ______ ____
ROOT
ATOM      1  C   UNL     1       2.281   7.674  19.113  0.00  0.00    +0.000 A 
ATOM      2  C   UNL     1       3.014   7.732  17.933  0.00  0.00    +0.000 A 
ATOM      3  C   UNL     1       3.839   6.655  17.601  0.00  0.00    +0.000 A 
ATOM      4  C   UNL     1       3.891   5.551  18.451  0.00  0.00    +0.000 A 
ATOM      5  N   UNL     1       3.207   5.493  19.614  0.00  0.00    +0.000 NA
ATOM      6  C   UNL     1       2.433   6.560  19.929  0.00  0.00    +0.000 A 
ENDROOT
BRANCH   1   8
ATOM      7  O   UNL     1       0.811   9.394  18.688  0.00  0.00    +0.000 OA
ATOM      8  C   UNL     1       1.373   8.745  19.561  0.00  0.00    +0.000 C 
ATOM      9  N   UNL     1       1.320   8.966  20.929  0.00  0.00    +0.000 N 
ATOM     10  H   UNL     1       2.004   8.498  21.512  0.00  0.00    +0.000 HD
BRANCH   9  11
ATOM     11  C   UNL     1       0.565   9.993  21.541  0.00  0.00    +0.000 A 
ATOM     12  C   UNL     1      -0.322   9.746  22.593  0.00  0.00    +0.000 A 
ATOM     13  C   UNL     1      -1.122  10.763  23.107  0.00  0.00    +0.000 A 
ATOM     14  C   UNL     1      -1.025  12.044  22.583  0.00  0.00    +0.000 A 
ATOM     15  F   UNL     1      -1.819  13.014  23.052  0.00  0.00    +0.000 F 
ATOM     16  C   UNL     1      -0.111  12.327  21.575  0.00  0.00    +0.000 A 
ATOM     17  C   UNL     1       0.696  11.305  21.060  0.00  0.00    +0.000 A 
ENDBRANCH   9  11
ENDBRANCH   1   8
BRANCH   4  18
ATOM     18  S   UNL     1       4.900   4.150  18.019  0.00  0.00    +0.000 S 
BRANCH  18  19
ATOM     19  C   UNL     1       6.231   5.000  17.099  0.00  0.00    +0.000 C 
BRANCH  19  20
ATOM     20  C   UNL     1       7.348   5.498  18.014  0.00  0.00    +0.000 C 
ATOM     21  O   UNL     1       8.030   4.731  18.698  0.00  0.00    +0.000 OA
BRANCH  20  22
ATOM     22  C   UNL     1       7.633   6.913  17.971  0.00  0.00    +0.000 A 
ATOM     23  C   UNL     1       8.387   7.727  18.782  0.00  0.00    +0.000 A 
ATOM     24  C   UNL     1       8.297   9.020  18.203  0.00  0.00    +0.000 A 
ATOM     25  N   UNL     1       7.515   8.981  17.113  0.00  0.00    +0.000 NA
ATOM     26  O   UNL     1       7.114   7.672  16.965  0.00  0.00    +0.000 OA
BRANCH  24  27
ATOM     27  C   UNL     1       8.939  10.258  18.643  0.00  0.00    +0.000 A 
ATOM     28  C   UNL     1       9.692  10.293  19.826  0.00  0.00    +0.000 A 
ATOM     29  C   UNL     1      10.335  11.469  20.223  0.00  0.00    +0.000 A 
ATOM     30  C   UNL     1      10.226  12.621  19.448  0.00  0.00    +0.000 A 
ATOM     31  C   UNL     1       9.472  12.603  18.277  0.00  0.00    +0.000 A 
ATOM     32  C   UNL     1       8.833  11.428  17.875  0.00  0.00    +0.000 A 
ENDBRANCH  24  27
ENDBRANCH  20  22
ENDBRANCH  19  20
ENDBRANCH  18  19
ENDBRANCH   4  18
TORSDOF 7
ENDMDL
MODEL 4
REMARK VINA RESULT:      -8.6      2.862      7.893
REMARK  Name = 
REMARK  7 active torsions:
REMARK  status: ('A' for Active; 'I' for Inactive)
REMARK    1  A    between atoms: C_2  and  C_11
REMARK    2  A    between atoms: N_3  and  C_4
REMARK    3  A    between atoms: C_14  and  S_15
REMARK    4  A    between atoms: S_15  and  C_16
REMARK    5  A    between atoms: C_16  and  C_17
REMARK    6  A    between atoms: C_17  and  C_19
REMARK    7  A    between atoms: C_21  and  C_22
REMARK                            x       y       z     vdW  Elec       q    Type
REMARK                         _______ _______ _______ _____ _____    ______ ____
ROOT
ATOM      1  C   UNL     1       7.700   7.905  17.872  0.00  0.00    +0.000 A 
ATOM      2  C   UNL     1       8.081   6.764  18.571  0.00  0.00    +0.000 A 
ATOM      3  C   UNL     1       7.568   5.529  18.170  0.00  0.00    +0.000 A 
ATOM      4  C   UNL     1       6.706   5.472  17.076  0.00  0.00    +0.000 A 
ATOM      5  N   UNL     1       6.305   6.574  16.405  0.00  0.00    +0.000 NA
ATOM      6  C   UNL     1       6.794   7.765  16.827  0.00  0.00    +0.000 A 
ENDROOT
BRANCH   1   8
ATOM      7  O   UNL     1       7.837  10.164  17.448  0.00  0.00    +0.000 OA
ATOM      8  C   UNL     1       8.182   9.259  18.198  0.00  0.00    +0.000 C 
ATOM      9  N   UNL     1       9.053   9.352  19.273  0.00  0.00    +0.000 N 
ATOM     10  H   UNL     1       9.420   8.491  19.662  0.00  0.00    +0.000 HD
BRANCH   9  11
ATOM     11  C   UNL     1       9.675  10.551  19.692  0.00  0.00    +0.000 A 
ATOM     12  C   UNL     1       9.324  11.203  20.878  0.00  0.00    +0.000 A 
ATOM     13  C   UNL     1       9.887  12.432  21.211  0.00  0.00    +0.000 A 
ATOM     14  C   UNL     1      10.824  13.010  20.366  0.00  0.00    +0.000 A 
ATOM     15  F   UNL     1      11.338  14.207  20.669  0.00  0.00    +0.000 F 
ATOM     16  C   UNL     1      11.230  12.355  19.210  0.00  0.00    +0.000 A 
ATOM     17  C   UNL     1      10.667  11.117  18.876  0.00  0.00    +0.000 A 
ENDBRANCH   9  11
ENDBRANCH   1   8
BRANCH   4  18
ATOM     18  S   UNL     1       6.082   3.900  16.523  0.00  0.00    +0.000 S 
BRANCH  18  19
ATOM     19  C   UNL     1       4.310   4.117  16.914  0.00  0.00    +0.000 C 
BRANCH  19  20
ATOM     20  C   UNL     1       4.021   3.993  18.408  0.00  0.00    +0.000 C 
ATOM     21  O   UNL     1       4.458   3.062  19.089  0.00  0.00    +0.000 OA
BRANCH  20  22
ATOM     22  C   UNL     1       3.283   5.076  19.013  0.00  0.00    +0.000 A 
ATOM     23  C   UNL     1       3.018   6.359  18.595  0.00  0.00    +0.000 A 
ATOM     24  C   UNL     1       2.218   6.929  19.620  0.00  0.00    +0.000 A 
ATOM     25  N   UNL     1       2.032   6.038  20.606  0.00  0.00    +0.000 NA
ATOM     26  O   UNL     1       2.682   4.887  20.222  0.00  0.00    +0.000 OA
BRANCH  24  27
ATOM     27  C   UNL     1       1.627   8.265  19.672  0.00  0.00    +0.000 A 
ATOM     28  C   UNL     1       1.586   9.075  18.527  0.00  0.00    +0.000 A 
ATOM     29  C   UNL     1       0.986  10.337  18.571  0.00  0.00    +0.000 A 
ATOM     30  C   UNL     1       0.429  10.805  19.759  0.00  0.00    +0.000 A 
ATOM     31  C   UNL     1       0.474  10.016  20.907  0.00  0.00    +0.000 A 
ATOM     32  C   UNL     1       1.068   8.753  20.863  0.00  0.00    +0.000 A 
ENDBRANCH  24  27
ENDBRANCH  20  22
ENDBRANCH  19  20
ENDBRANCH  18  19
ENDBRANCH   4  18
TORSDOF 7
ENDMDL
MODEL 5
REMARK VINA RESULT:      -8.6      1.701      1.959
REMARK  Name = 
REMARK  7 active torsions:
REMARK  status: ('A' for Active; 'I' for Inactive)
REMARK    1  A    between atoms: C_2  and  C_11
REMARK    2  A    between atoms: N_3  and  C_4
REMARK    3  A    between atoms: C_14  and  S_15
REMARK    4  A    between atoms: S_15  and  C_16
REMARK    5  A    between atoms: C_16  and  C_17
REMARK    6  A    between atoms: C_17  and  C_19
REMARK    7  A    between atoms: C_21  and  C_22
REMARK                            x       y       z     vdW  Elec       q    Type
REMARK                         _______ _______ _______ _____ _____    ______ ____
ROOT
ATOM      1  C   UNL     1       2.319   7.444  19.284  0.00  0.00    +0.000 A 
ATOM      2  C   UNL     1       2.947   7.432  18.042  0.00  0.00    +0.000 A 
ATOM      3  C   UNL     1       3.739   6.334  17.701  0.00  0.00    +0.000 A 
ATOM      4  C   UNL     1       3.866   5.280  18.605  0.00  0.00    +0.000 A 
ATOM      5  N   UNL     1       3.286   5.290  19.825  0.00  0.00    +0.000 NA
ATOM      6  C   UNL     1       2.542   6.376  20.145  0.00  0.00    +0.000 A 
ENDROOT
BRANCH   1   8
ATOM      7  O   UNL     1       0.918   8.401  20.840  0.00  0.00    +0.000 OA
ATOM      8  C   UNL     1       1.454   8.543  19.748  0.00  0.00    +0.000 C 
ATOM      9  N   UNL     1       1.265   9.588  18.855  0.00  0.00    +0.000 N 
ATOM     10  H   UNL     1       1.596   9.465  17.905  0.00  0.00    +0.000 HD
BRANCH   9  11
ATOM     11  C   UNL     1       0.415  10.693  19.091  0.00  0.00    +0.000 A 
ATOM     12  C   UNL     1       0.899  11.932  19.520  0.00  0.00    +0.000 A 
ATOM     13  C   UNL     1       0.026  12.969  19.838  0.00  0.00    +0.000 A 
ATOM     14  C   UNL     1      -1.343  12.779  19.708  0.00  0.00    +0.000 A 
ATOM     15  F   UNL     1      -2.183  13.763  20.046  0.00  0.00    +0.000 F 
ATOM     16  C   UNL     1      -1.845  11.574  19.231  0.00  0.00    +0.000 A 
ATOM     17  C   UNL     1      -0.967  10.532  18.908  0.00  0.00    +0.000 A 
ENDBRANCH   9  11
ENDBRANCH   1   8
BRANCH   4  18
ATOM     18  S   UNL     1       4.834   3.852  18.167  0.00  0.00    +0.000 S 
BRANCH  18  19
ATOM     19  C   UNL     1       6.060   4.637  17.062  0.00  0.00    +0.000 C 
BRANCH  19  20
ATOM     20  C   UNL     1       7.277   5.163  17.819  0.00  0.00    +0.000 C 
ATOM     21  O   UNL     1       8.091   4.411  18.361  0.00  0.00    +0.000 OA
BRANCH  20  22
ATOM     22  C   UNL     1       7.483   6.592  17.794  0.00  0.00    +0.000 A 
ATOM     23  C   UNL     1       8.269   7.424  18.555  0.00  0.00    +0.000 A 
ATOM     24  C   UNL     1       8.057   8.725  18.028  0.00  0.00    +0.000 A 
ATOM     25  N   UNL     1       7.176   8.672  17.016  0.00  0.00    +0.000 NA
ATOM     26  O   UNL     1       6.831   7.348  16.866  0.00  0.00    +0.000 OA
BRANCH  24  27
ATOM     27  C   UNL     1       8.673   9.984  18.443  0.00  0.00    +0.000 A 
ATOM     28  C   UNL     1       9.427  10.057  19.624  0.00  0.00    +0.000 A 
ATOM     29  C   UNL     1      10.046  11.253  19.999  0.00  0.00    +0.000 A 
ATOM     30  C   UNL     1       9.912  12.388  19.202  0.00  0.00    +0.000 A 
ATOM     31  C   UNL     1       9.157  12.333  18.033  0.00  0.00    +0.000 A 
ATOM     32  C   UNL     1       8.542  11.137  17.655  0.00  0.00    +0.000 A 
ENDBRANCH  24  27
ENDBRANCH  20  22
ENDBRANCH  19  20
ENDBRANCH  18  19
ENDBRANCH   4  18
TORSDOF 7
ENDMDL
MODEL 6
REMARK VINA RESULT:      -8.5      1.619      1.926
REMARK  Name = 
REMARK  7 active torsions:
REMARK  status: ('A' for Active; 'I' for Inactive)
REMARK    1  A    between atoms: C_2  and  C_11
REMARK    2  A    between atoms: N_3  and  C_4
REMARK    3  A    between atoms: C_14  and  S_15
REMARK    4  A    between atoms: S_15  and  C_16
REMARK    5  A    between atoms: C_16  and  C_17
REMARK    6  A    between atoms: C_17  and  C_19
REMARK    7  A    between atoms: C_21  and  C_22
REMARK                            x       y       z     vdW  Elec       q    Type
REMARK                         _______ _______ _______ _____ _____    ______ ____
ROOT
ATOM      1  C   UNL     1       2.919   7.231  18.402  0.00  0.00    +0.000 A 
ATOM      2  C   UNL     1       3.595   7.531  17.224  0.00  0.00    +0.000 A 
ATOM      3  C   UNL     1       4.449   6.571  16.676  0.00  0.00    +0.000 A 
ATOM      4  C   UNL     1       4.587   5.340  17.316  0.00  0.00    +0.000 A 
ATOM      5  N   UNL     1       3.960   5.045  18.475  0.00  0.00    +0.000 NA
ATOM      6  C   UNL     1       3.156   6.000  19.002  0.00  0.00    +0.000 A 
ENDROOT
BRANCH   1   8
ATOM      7  O   UNL     1       1.664   7.890  20.215  0.00  0.00    +0.000 OA
ATOM      8  C   UNL     1       1.988   8.160  19.066  0.00  0.00    +0.000 C 
ATOM      9  N   UNL     1       1.505   9.199  18.284  0.00  0.00    +0.000 N 
ATOM     10  H   UNL     1       1.692   9.170  17.289  0.00  0.00    +0.000 HD
BRANCH   9  11
ATOM     11  C   UNL     1       0.551  10.147  18.722  0.00  0.00    +0.000 A 
ATOM     12  C   UNL     1      -0.785  10.110  18.313  0.00  0.00    +0.000 A 
ATOM     13  C   UNL     1      -1.674  11.115  18.684  0.00  0.00    +0.000 A 
ATOM     14  C   UNL     1      -1.236  12.158  19.487  0.00  0.00    +0.000 A 
ATOM     15  F   UNL     1      -2.080  13.142  19.814  0.00  0.00    +0.000 F 
ATOM     16  C   UNL     1       0.074  12.188  19.951  0.00  0.00    +0.000 A 
ATOM     17  C   UNL     1       0.968  11.176  19.582  0.00  0.00    +0.000 A 
ENDBRANCH   9  11
ENDBRANCH   1   8
BRANCH   4  18
ATOM     18  S   UNL     1       5.634   4.088  16.606  0.00  0.00    +0.000 S 
BRANCH  18  19
ATOM     19  C   UNL     1       7.257   4.912  16.772  0.00  0.00    +0.000 C 
BRANCH  19  20
ATOM     20  C   UNL     1       7.434   5.585  18.132  0.00  0.00    +0.000 C 
ATOM     21  O   UNL     1       7.359   4.959  19.192  0.00  0.00    +0.000 OA
BRANCH  20  22
ATOM     22  C   UNL     1       7.787   6.985  18.116  0.00  0.00    +0.000 A 
ATOM     23  C   UNL     1       8.563   7.750  18.954  0.00  0.00    +0.000 A 
ATOM     24  C   UNL     1       8.548   9.054  18.392  0.00  0.00    +0.000 A 
ATOM     25  N   UNL     1       7.786   9.068  17.286  0.00  0.00    +0.000 NA
ATOM     26  O   UNL     1       7.326   7.782  17.111  0.00  0.00    +0.000 OA
BRANCH  24  27
ATOM     27  C   UNL     1       9.239  10.253  18.863  0.00  0.00    +0.000 A 
ATOM     28  C   UNL     1       9.785  11.169  17.951  0.00  0.00    +0.000 A 
ATOM     29  C   UNL     1      10.413  12.333  18.404  0.00  0.00    +0.000 A 
ATOM     30  C   UNL     1      10.507  12.589  19.771  0.00  0.00    +0.000 A 
ATOM     31  C   UNL     1       9.979  11.683  20.687  0.00  0.00    +0.000 A 
ATOM     32  C   UNL     1       9.347  10.521  20.236  0.00  0.00    +0.000 A 
ENDBRANCH  24  27
ENDBRANCH  20  22
ENDBRANCH  19  20
ENDBRANCH  18  19
ENDBRANCH   4  18
TORSDOF 7
ENDMDL
MODEL 7
REMARK VINA RESULT:      -8.5      1.567      1.895
REMARK  Name = 
REMARK  7 active torsions:
REMARK  status: ('A' for Active; 'I' for Inactive)
REMARK    1  A    between atoms: C_2  and  C_11
REMARK    2  A    between atoms: N_3  and  C_4
REMARK    3  A    between atoms: C_14  and  S_15
REMARK    4  A    between atoms: S_15  and  C_16
REMARK    5  A    between atoms: C_16  and  C_17
REMARK    6  A    between atoms: C_17  and  C_19
REMARK    7  A    between atoms: C_21  and  C_22
REMARK                            x       y       z     vdW  Elec       q    Type
REMARK                         _______ _______ _______ _____ _____    ______ ____
ROOT
ATOM      1  C   UNL     1       2.073   7.589  19.419  0.00  0.00    +0.000 A 
ATOM      2  C   UNL     1       2.775   7.756  18.230  0.00  0.00    +0.000 A 
ATOM      3  C   UNL     1       3.615   6.728  17.796  0.00  0.00    +0.000 A 
ATOM      4  C   UNL     1       3.714   5.563  18.557  0.00  0.00    +0.000 A 
ATOM      5  N   UNL     1       3.060   5.399  19.728  0.00  0.00    +0.000 NA
ATOM      6  C   UNL     1       2.270   6.419  20.142  0.00  0.00    +0.000 A 
ENDROOT
BRANCH   1   8
ATOM      7  O   UNL     1       0.678   8.372  21.075  0.00  0.00    +0.000 OA
ATOM      8  C   UNL     1       1.153   8.600  19.969  0.00  0.00    +0.000 C 
ATOM      9  N   UNL     1       0.850   9.666  19.135  0.00  0.00    +0.000 N 
ATOM     10  H   UNL     1       1.146   9.610  18.168  0.00  0.00    +0.000 HD
BRANCH   9  11
ATOM     11  C   UNL     1      -0.065  10.695  19.458  0.00  0.00    +0.000 A 
ATOM     12  C   UNL     1      -1.355  10.746  18.923  0.00  0.00    +0.000 A 
ATOM     13  C   UNL     1      -2.195  11.824  19.185  0.00  0.00    +0.000 A 
ATOM     14  C   UNL     1      -1.755  12.855  20.004  0.00  0.00    +0.000 A 
ATOM     15  F   UNL     1      -2.549  13.908  20.228  0.00  0.00    +0.000 F 
ATOM     16  C   UNL     1      -0.497  12.800  20.592  0.00  0.00    +0.000 A 
ATOM     17  C   UNL     1       0.347  11.714  20.332  0.00  0.00    +0.000 A 
ENDBRANCH   9  11
ENDBRANCH   1   8
BRANCH   4  18
ATOM     18  S   UNL     1       4.743   4.225  17.995  0.00  0.00    +0.000 S 
BRANCH  18  19
ATOM     19  C   UNL     1       6.322   4.698  18.782  0.00  0.00    +0.000 C 
BRANCH  19  20
ATOM     20  C   UNL     1       7.340   5.234  17.777  0.00  0.00    +0.000 C 
ATOM     21  O   UNL     1       7.874   4.511  16.932  0.00  0.00    +0.000 OA
BRANCH  20  22
ATOM     22  C   UNL     1       7.582   6.656  17.803  0.00  0.00    +0.000 A 
ATOM     23  C   UNL     1       8.354   7.446  18.621  0.00  0.00    +0.000 A 
ATOM     24  C   UNL     1       8.199   8.767  18.123  0.00  0.00    +0.000 A 
ATOM     25  N   UNL     1       7.362   8.765  17.073  0.00  0.00    +0.000 NA
ATOM     26  O   UNL     1       6.991   7.456  16.869  0.00  0.00    +0.000 OA
BRANCH  24  27
ATOM     27  C   UNL     1       8.828   9.997  18.601  0.00  0.00    +0.000 A 
ATOM     28  C   UNL     1       9.258  10.110  19.932  0.00  0.00    +0.000 A 
ATOM     29  C   UNL     1       9.893  11.274  20.375  0.00  0.00    +0.000 A 
ATOM     30  C   UNL     1      10.097  12.337  19.498  0.00  0.00    +0.000 A 
ATOM     31  C   UNL     1       9.664  12.242  18.177  0.00  0.00    +0.000 A 
ATOM     32  C   UNL     1       9.034  11.077  17.731  0.00  0.00    +0.000 A 
ENDBRANCH  24  27
ENDBRANCH  20  22
ENDBRANCH  19  20
ENDBRANCH  18  19
ENDBRANCH   4  18
TORSDOF 7
ENDMDL
MODEL 8
REMARK VINA RESULT:      -8.3      1.609      2.048
REMARK  Name = 
REMARK  7 active torsions:
REMARK  status: ('A' for Active; 'I' for Inactive)
REMARK    1  A    between atoms: C_2  and  C_11
REMARK    2  A    between atoms: N_3  and  C_4
REMARK    3  A    between atoms: C_14  and  S_15
REMARK    4  A    between atoms: S_15  and  C_16
REMARK    5  A    between atoms: C_16  and  C_17
REMARK    6  A    between atoms: C_17  and  C_19
REMARK    7  A    between atoms: C_21  and  C_22
REMARK                            x       y       z     vdW  Elec       q    Type
REMARK                         _______ _______ _______ _____ _____    ______ ____
ROOT
ATOM      1  C   UNL     1       2.327   7.883  18.636  0.00  0.00    +0.000 A 
ATOM      2  C   UNL     1       3.227   7.706  17.589  0.00  0.00    +0.000 A 
ATOM      3  C   UNL     1       4.102   6.619  17.632  0.00  0.00    +0.000 A 
ATOM      4  C   UNL     1       4.039   5.737  18.710  0.00  0.00    +0.000 A 
ATOM      5  N   UNL     1       3.190   5.911  19.747  0.00  0.00    +0.000 NA
ATOM      6  C   UNL     1       2.368   6.987  19.697  0.00  0.00    +0.000 A 
ENDROOT
BRANCH   1   8
ATOM      7  O   UNL     1       1.044   9.507  17.629  0.00  0.00    +0.000 OA
ATOM      8  C   UNL     1       1.353   8.987  18.694  0.00  0.00    +0.000 C 
ATOM      9  N   UNL     1       0.955   9.382  19.962  0.00  0.00    +0.000 N 
ATOM     10  H   UNL     1       1.460   9.005  20.756  0.00  0.00    +0.000 HD
BRANCH   9  11
ATOM     11  C   UNL     1       0.085  10.466  20.223  0.00  0.00    +0.000 A 
ATOM     12  C   UNL     1      -1.101  10.662  19.511  0.00  0.00    +0.000 A 
ATOM     13  C   UNL     1      -1.884  11.793  19.726  0.00  0.00    +0.000 A 
ATOM     14  C   UNL     1      -1.494  12.729  20.673  0.00  0.00    +0.000 A 
ATOM     15  F   UNL     1      -2.228  13.833  20.855  0.00  0.00    +0.000 F 
ATOM     16  C   UNL     1      -0.348  12.528  21.433  0.00  0.00    +0.000 A 
ATOM     17  C   UNL     1       0.439  11.389  21.220  0.00  0.00    +0.000 A 
ENDBRANCH   9  11
ENDBRANCH   1   8
BRANCH   4  18
ATOM     18  S   UNL     1       5.114   4.320  18.757  0.00  0.00    +0.000 S 
BRANCH  18  19
ATOM     19  C   UNL     1       6.675   5.133  19.248  0.00  0.00    +0.000 C 
BRANCH  19  20
ATOM     20  C   UNL     1       7.475   5.637  18.048  0.00  0.00    +0.000 C 
ATOM     21  O   UNL     1       7.781   4.903  17.106  0.00  0.00    +0.000 OA
BRANCH  20  22
ATOM     22  C   UNL     1       7.779   7.048  18.025  0.00  0.00    +0.000 A 
ATOM     23  C   UNL     1       8.520   7.846  18.863  0.00  0.00    +0.000 A 
ATOM     24  C   UNL     1       8.465   9.145  18.292  0.00  0.00    +0.000 A 
ATOM     25  N   UNL     1       7.714   9.124  17.179  0.00  0.00    +0.000 NA
ATOM     26  O   UNL     1       7.301   7.822  17.009  0.00  0.00    +0.000 OA
BRANCH  24  27
ATOM     27  C   UNL     1       9.111  10.370  18.759  0.00  0.00    +0.000 A 
ATOM     28  C   UNL     1       9.287  11.461  17.895  0.00  0.00    +0.000 A 
ATOM     29  C   UNL     1       9.870  12.645  18.356  0.00  0.00    +0.000 A 
ATOM     30  C   UNL     1      10.290  12.747  19.681  0.00  0.00    +0.000 A 
ATOM     31  C   UNL     1      10.131  11.667  20.546  0.00  0.00    +0.000 A 
ATOM     32  C   UNL     1       9.544  10.486  20.089  0.00  0.00    +0.000 A 
ENDBRANCH  24  27
ENDBRANCH  20  22
ENDBRANCH  19  20
ENDBRANCH  18  19
ENDBRANCH   4  18
TORSDOF 7
ENDMDL
MODEL 9
REMARK VINA RESULT:      -8.3      1.812      2.258
REMARK  Name = 
REMARK  7 active torsions:
REMARK  status: ('A' for Active; 'I' for Inactive)
REMARK    1  A    between atoms: C_2  and  C_11
REMARK    2  A    between atoms: N_3  and  C_4
REMARK    3  A    between atoms: C_14  and  S_15
REMARK    4  A    between atoms: S_15  and  C_16
REMARK    5  A    between atoms: C_16  and  C_17
REMARK    6  A    between atoms: C_17  and  C_19
REMARK    7  A    between atoms: C_21  and  C_22
REMARK                            x       y       z     vdW  Elec       q    Type
REMARK                         _______ _______ _______ _____ _____    ______ ____
ROOT
ATOM      1  C   UNL     1       2.215   7.885  18.823  0.00  0.00    +0.000 A 
ATOM      2  C   UNL     1       2.119   6.936  19.836  0.00  0.00    +0.000 A 
ATOM      3  C   UNL     1       2.912   5.789  19.759  0.00  0.00    +0.000 A 
ATOM      4  C   UNL     1       3.784   5.636  18.682  0.00  0.00    +0.000 A 
ATOM      5  N   UNL     1       3.867   6.536  17.677  0.00  0.00    +0.000 NA
ATOM      6  C   UNL     1       3.070   7.628  17.759  0.00  0.00    +0.000 A 
ENDROOT
BRANCH   1   8
ATOM      7  O   UNL     1       1.153   9.592  17.702  0.00  0.00    +0.000 OA
ATOM      8  C   UNL     1       1.434   9.134  18.803  0.00  0.00    +0.000 C 
ATOM      9  N   UNL     1       1.177   9.712  20.037  0.00  0.00    +0.000 N 
ATOM     10  H   UNL     1       1.659   9.337  20.845  0.00  0.00    +0.000 HD
BRANCH   9  11
ATOM     11  C   UNL     1       0.507  10.945  20.215  0.00  0.00    +0.000 A 
ATOM     12  C   UNL     1      -0.884  11.035  20.319  0.00  0.00    +0.000 A 
ATOM     13  C   UNL     1      -1.516  12.272  20.395  0.00  0.00    +0.000 A 
ATOM     14  C   UNL     1      -0.757  13.434  20.388  0.00  0.00    +0.000 A 
ATOM     15  F   UNL     1      -1.366  14.624  20.426  0.00  0.00    +0.000 F 
ATOM     16  C   UNL     1       0.631  13.369  20.342  0.00  0.00    +0.000 A 
ATOM     17  C   UNL     1       1.268  12.124  20.269  0.00  0.00    +0.000 A 
ENDBRANCH   9  11
ENDBRANCH   1   8
BRANCH   4  18
ATOM     18  S   UNL     1       4.837   4.204  18.593  0.00  0.00    +0.000 S 
BRANCH  18  19
ATOM     19  C   UNL     1       6.390   4.923  19.235  0.00  0.00    +0.000 C 
BRANCH  19  20
ATOM     20  C   UNL     1       7.332   5.370  18.119  0.00  0.00    +0.000 C 
ATOM     21  O   UNL     1       7.798   4.581  17.294  0.00  0.00    +0.000 OA
BRANCH  20  22
ATOM     22  C   UNL     1       7.582   6.789  18.018  0.00  0.00    +0.000 A 
ATOM     23  C   UNL     1       8.335   7.649  18.780  0.00  0.00    +0.000 A 
ATOM     24  C   UNL     1       8.201   8.918  18.157  0.00  0.00    +0.000 A 
ATOM     25  N   UNL     1       7.393   8.821  17.089  0.00  0.00    +0.000 NA
ATOM     26  O   UNL     1       7.020   7.499  16.998  0.00  0.00    +0.000 OA
BRANCH  24  27
ATOM     27  C   UNL     1       8.824  10.185  18.535  0.00  0.00    +0.000 A 
ATOM     28  C   UNL     1       9.609  10.279  19.693  0.00  0.00    +0.000 A 
ATOM     29  C   UNL     1      10.234  11.484  20.032  0.00  0.00    +0.000 A 
ATOM     30  C   UNL     1      10.074  12.605  19.221  0.00  0.00    +0.000 A 
ATOM     31  C   UNL     1       9.287  12.529  18.074  0.00  0.00    +0.000 A 
ATOM     32  C   UNL     1       8.666  11.325  17.732  0.00  0.00    +0.000 A 
ENDBRANCH  24  27
ENDBRANCH  20  22
ENDBRANCH  19  20
ENDBRANCH  18  19
ENDBRANCH   4  18
TORSDOF 7
ENDMDL
