MODEL 1
REMARK VINA RESULT:      -6.7      0.000      0.000
REMARK  Name = 
REMARK  3 active torsions:
REMARK  status: ('A' for Active; 'I' for Inactive)
REMARK    1  A    between atoms: C_1  and  N_2
REMARK    2  A    between atoms: C_4  and  C_5
REMARK    3  A    between atoms: C_4  and  C_7
REMARK                            x       y       z     vdW  Elec       q    Type
REMARK                         _______ _______ _______ _____ _____    ______ ____
ROOT
ATOM      1  C   UNL     1       3.969   7.299  17.433  0.00  0.00    +0.000 C 
ATOM      2  N   UNL     1       3.375   6.693  18.612  0.00  0.00    +0.000 N 
ATOM      3  C   UNL     1       3.579   5.421  19.190  0.00  0.00    +0.000 C 
ATOM      4  C   UNL     1       4.453   4.439  18.864  0.00  0.00    +0.000 C 
ATOM      5  S   UNL     1       2.472   5.132  20.594  0.00  0.00    +0.000 S 
ATOM      6  C   UNL     1       1.789   6.766  20.374  0.00  0.00    +0.000 A 
ATOM      7  C   UNL     1       0.788   7.341  21.147  0.00  0.00    +0.000 A 
ATOM      8  C   UNL     1       0.370   8.636  20.841  0.00  0.00    +0.000 A 
ATOM      9  C   UNL     1       0.954   9.332  19.778  0.00  0.00    +0.000 A 
ATOM     10  C   UNL     1       1.962   8.740  19.006  0.00  0.00    +0.000 A 
ATOM     11  C   UNL     1       2.385   7.443  19.293  0.00  0.00    +0.000 A 
ENDROOT
BRANCH   4  12
ATOM     12  C   UNL     1       5.440   4.524  17.779  0.00  0.00    +0.000 A 
ATOM     13  C   UNL     1       6.778   4.754  18.047  0.00  0.00    +0.000 A 
ATOM     14  C   UNL     1       7.620   4.735  16.959  0.00  0.00    +0.000 A 
ATOM     15  N   UNL     1       7.200   4.510  15.703  0.00  0.00    +0.000 NA
ATOM     16  C   UNL     1       5.888   4.286  15.566  0.00  0.00    +0.000 A 
ATOM     17 CL   UNL     1       5.323   3.981  13.987  0.00  0.00    +0.000 Cl
ATOM     18  N   UNL     1       4.970   4.285  16.539  0.00  0.00    +0.000 NA
ENDBRANCH   4  12
BRANCH   4  19
ATOM     19  C   UNL     1       4.544   3.099  19.578  0.00  0.00    +0.000 C 
ATOM     20  N   UNL     1       4.619   1.989  20.171  0.00  0.00    +0.000 NA
ENDBRANCH   4  19
TORSDOF 2
ENDMDL
MODEL 2
REMARK VINA RESULT:      -6.5      1.991      2.666
REMARK  Name = 
REMARK  3 active torsions:
REMARK  status: ('A' for Active; 'I' for Inactive)
REMARK    1  A    between atoms: C_1  and  N_2
REMARK    2  A    between atoms: C_4  and  C_5
REMARK    3  A    between atoms: C_4  and  C_7
REMARK                            x       y       z     vdW  Elec       q    Type
REMARK                         _______ _______ _______ _____ _____    ______ ____
ROOT
ATOM      1  C   UNL     1       3.073   7.787  17.559  0.00  0.00    +0.000 C 
ATOM      2  N   UNL     1       2.347   7.784  18.818  0.00  0.00    +0.000 N 
ATOM      3  C   UNL     1       2.198   6.767  19.786  0.00  0.00    +0.000 C 
ATOM      4  C   UNL     1       2.763   5.538  19.863  0.00  0.00    +0.000 C 
ATOM      5  S   UNL     1       1.070   7.261  21.114  0.00  0.00    +0.000 S 
ATOM      6  C   UNL     1       0.863   8.849  20.330  0.00  0.00    +0.000 A 
ATOM      7  C   UNL     1       0.070   9.890  20.795  0.00  0.00    +0.000 A 
ATOM      8  C   UNL     1       0.022  11.074  20.059  0.00  0.00    +0.000 A 
ATOM      9  C   UNL     1       0.764  11.200  18.880  0.00  0.00    +0.000 A 
ATOM     10  C   UNL     1       1.560  10.143  18.422  0.00  0.00    +0.000 A 
ATOM     11  C   UNL     1       1.611   8.950  19.141  0.00  0.00    +0.000 A 
ENDROOT
BRANCH   4  12
ATOM     12  C   UNL     1       3.723   4.997  18.891  0.00  0.00    +0.000 A 
ATOM     13  C   UNL     1       3.293   4.302  17.774  0.00  0.00    +0.000 A 
ATOM     14  C   UNL     1       4.276   3.911  16.894  0.00  0.00    +0.000 A 
ATOM     15  N   UNL     1       5.581   4.172  17.081  0.00  0.00    +0.000 NA
ATOM     16  C   UNL     1       5.878   4.861  18.188  0.00  0.00    +0.000 A 
ATOM     17 CL   UNL     1       7.523   5.224  18.448  0.00  0.00    +0.000 Cl
ATOM     18  N   UNL     1       5.018   5.290  19.119  0.00  0.00    +0.000 NA
ENDBRANCH   4  12
BRANCH   4  19
ATOM     19  C   UNL     1       2.488   4.535  20.971  0.00  0.00    +0.000 C 
ATOM     20  N   UNL     1       2.258   3.703  21.891  0.00  0.00    +0.000 NA
ENDBRANCH   4  19
TORSDOF 2
ENDMDL
MODEL 3
REMARK VINA RESULT:      -6.3      3.372      6.470
REMARK  Name = 
REMARK  3 active torsions:
REMARK  status: ('A' for Active; 'I' for Inactive)
REMARK    1  A    between atoms: C_1  and  N_2
REMARK    2  A    between atoms: C_4  and  C_5
REMARK    3  A    between atoms: C_4  and  C_7
REMARK                            x       y       z     vdW  Elec       q    Type
REMARK                         _______ _______ _______ _____ _____    ______ ____
ROOT
ATOM      1  C   UNL     1       3.617   3.633  16.311  0.00  0.00    +0.000 C 
ATOM      2  N   UNL     1       4.995   4.075  16.185  0.00  0.00    +0.000 N 
ATOM      3  C   UNL     1       5.897   4.550  17.161  0.00  0.00    +0.000 C 
ATOM      4  C   UNL     1       5.766   4.642  18.507  0.00  0.00    +0.000 C 
ATOM      5  S   UNL     1       7.462   5.090  16.428  0.00  0.00    +0.000 S 
ATOM      6  C   UNL     1       6.854   4.621  14.818  0.00  0.00    +0.000 A 
ATOM      7  C   UNL     1       7.547   4.738  13.620  0.00  0.00    +0.000 A 
ATOM      8  C   UNL     1       6.924   4.318  12.444  0.00  0.00    +0.000 A 
ATOM      9  C   UNL     1       5.629   3.790  12.484  0.00  0.00    +0.000 A 
ATOM     10  C   UNL     1       4.941   3.679  13.699  0.00  0.00    +0.000 A 
ATOM     11  C   UNL     1       5.546   4.103  14.881  0.00  0.00    +0.000 A 
ENDROOT
BRANCH   4  12
ATOM     12  C   UNL     1       4.580   4.217  19.263  0.00  0.00    +0.000 A 
ATOM     13  C   UNL     1       4.432   2.907  19.682  0.00  0.00    +0.000 A 
ATOM     14  C   UNL     1       3.320   2.644  20.449  0.00  0.00    +0.000 A 
ATOM     15  N   UNL     1       2.417   3.579  20.786  0.00  0.00    +0.000 NA
ATOM     16  C   UNL     1       2.670   4.813  20.336  0.00  0.00    +0.000 A 
ATOM     17 CL   UNL     1       1.552   6.028  20.760  0.00  0.00    +0.000 Cl
ATOM     18  N   UNL     1       3.707   5.193  19.581  0.00  0.00    +0.000 NA
ENDBRANCH   4  12
BRANCH   4  19
ATOM     19  C   UNL     1       6.833   5.198  19.436  0.00  0.00    +0.000 C 
ATOM     20  N   UNL     1       7.717   5.659  20.208  0.00  0.00    +0.000 NA
ENDBRANCH   4  19
TORSDOF 2
ENDMDL
MODEL 4
REMARK VINA RESULT:      -6.2      1.690      1.923
REMARK  Name = 
REMARK  3 active torsions:
REMARK  status: ('A' for Active; 'I' for Inactive)
REMARK    1  A    between atoms: C_1  and  N_2
REMARK    2  A    between atoms: C_4  and  C_5
REMARK    3  A    between atoms: C_4  and  C_7
REMARK                            x       y       z     vdW  Elec       q    Type
REMARK                         _______ _______ _______ _____ _____    ______ ____
ROOT
ATOM      1  C   UNL     1       3.180   8.105  17.773  0.00  0.00    +0.000 C 
ATOM      2  N   UNL     1       2.644   7.407  18.929  0.00  0.00    +0.000 N 
ATOM      3  C   UNL     1       2.887   6.100  19.404  0.00  0.00    +0.000 C 
ATOM      4  C   UNL     1       3.759   5.157  18.971  0.00  0.00    +0.000 C 
ATOM      5  S   UNL     1       1.846   5.695  20.829  0.00  0.00    +0.000 S 
ATOM      6  C   UNL     1       1.134   7.330  20.756  0.00  0.00    +0.000 A 
ATOM      7  C   UNL     1       0.161   7.833  21.610  0.00  0.00    +0.000 A 
ATOM      8  C   UNL     1      -0.285   9.141  21.417  0.00  0.00    +0.000 A 
ATOM      9  C   UNL     1       0.245   9.919  20.383  0.00  0.00    +0.000 A 
ATOM     10  C   UNL     1       1.225   9.400  19.528  0.00  0.00    +0.000 A 
ATOM     11  C   UNL     1       1.675   8.092  19.703  0.00  0.00    +0.000 A 
ENDROOT
BRANCH   4  12
ATOM     12  C   UNL     1       4.696   5.334  17.855  0.00  0.00    +0.000 A 
ATOM     13  C   UNL     1       4.473   4.728  16.631  0.00  0.00    +0.000 A 
ATOM     14  C   UNL     1       5.376   5.029  15.637  0.00  0.00    +0.000 A 
ATOM     15  N   UNL     1       6.420   5.856  15.813  0.00  0.00    +0.000 NA
ATOM     16  C   UNL     1       6.529   6.394  17.033  0.00  0.00    +0.000 A 
ATOM     17 CL   UNL     1       7.834   7.461  17.287  0.00  0.00    +0.000 Cl
ATOM     18  N   UNL     1       5.724   6.177  18.080  0.00  0.00    +0.000 NA
ENDBRANCH   4  12
BRANCH   4  19
ATOM     19  C   UNL     1       3.896   3.772  19.582  0.00  0.00    +0.000 C 
ATOM     20  N   UNL     1       4.008   2.622  20.089  0.00  0.00    +0.000 NA
ENDBRANCH   4  19
TORSDOF 2
ENDMDL
MODEL 5
REMARK VINA RESULT:      -6.2      2.163      3.988
REMARK  Name = 
REMARK  3 active torsions:
REMARK  status: ('A' for Active; 'I' for Inactive)
REMARK    1  A    between atoms: C_1  and  N_2
REMARK    2  A    between atoms: C_4  and  C_5
REMARK    3  A    between atoms: C_4  and  C_7
REMARK                            x       y       z     vdW  Elec       q    Type
REMARK                         _______ _______ _______ _____ _____    ______ ____
ROOT
ATOM      1  C   UNL     1       5.340   3.741  18.826  0.00  0.00    +0.000 C 
ATOM      2  N   UNL     1       4.060   4.348  19.150  0.00  0.00    +0.000 N 
ATOM      3  C   UNL     1       3.500   5.578  18.742  0.00  0.00    +0.000 C 
ATOM      4  C   UNL     1       3.957   6.501  17.861  0.00  0.00    +0.000 C 
ATOM      5  S   UNL     1       1.915   5.901  19.554  0.00  0.00    +0.000 S 
ATOM      6  C   UNL     1       2.044   4.334  20.398  0.00  0.00    +0.000 A 
ATOM      7  C   UNL     1       1.116   3.811  21.290  0.00  0.00    +0.000 A 
ATOM      8  C   UNL     1       1.370   2.564  21.862  0.00  0.00    +0.000 A 
ATOM      9  C   UNL     1       2.536   1.864  21.535  0.00  0.00    +0.000 A 
ATOM     10  C   UNL     1       3.464   2.404  20.635  0.00  0.00    +0.000 A 
ATOM     11  C   UNL     1       3.229   3.653  20.062  0.00  0.00    +0.000 A 
ENDROOT
BRANCH   4  12
ATOM     12  C   UNL     1       5.203   6.379  17.093  0.00  0.00    +0.000 A 
ATOM     13  C   UNL     1       6.363   7.009  17.509  0.00  0.00    +0.000 A 
ATOM     14  C   UNL     1       7.487   6.759  16.754  0.00  0.00    +0.000 A 
ATOM     15  N   UNL     1       7.489   5.959  15.675  0.00  0.00    +0.000 NA
ATOM     16  C   UNL     1       6.315   5.393  15.375  0.00  0.00    +0.000 A 
ATOM     17 CL   UNL     1       6.286   4.359  14.020  0.00  0.00    +0.000 Cl
ATOM     18  N   UNL     1       5.156   5.561  16.023  0.00  0.00    +0.000 NA
ENDBRANCH   4  12
BRANCH   4  19
ATOM     19  C   UNL     1       3.242   7.802  17.534  0.00  0.00    +0.000 C 
ATOM     20  N   UNL     1       2.649   8.882  17.264  0.00  0.00    +0.000 NA
ENDBRANCH   4  19
TORSDOF 2
ENDMDL
MODEL 6
REMARK VINA RESULT:      -6.1      2.451      3.774
REMARK  Name = 
REMARK  3 active torsions:
REMARK  status: ('A' for Active; 'I' for Inactive)
REMARK    1  A    between atoms: C_1  and  N_2
REMARK    2  A    between atoms: C_4  and  C_5
REMARK    3  A    between atoms: C_4  and  C_7
REMARK                            x       y       z     vdW  Elec       q    Type
REMARK                         _______ _______ _______ _____ _____    ______ ____
ROOT
ATOM      1  C   UNL     1       1.821   6.090  20.763  0.00  0.00    +0.000 C 
ATOM      2  N   UNL     1       1.969   7.171  19.804  0.00  0.00    +0.000 N 
ATOM      3  C   UNL     1       2.755   7.257  18.634  0.00  0.00    +0.000 C 
ATOM      4  C   UNL     1       3.525   6.324  18.023  0.00  0.00    +0.000 C 
ATOM      5  S   UNL     1       2.659   8.899  17.876  0.00  0.00    +0.000 S 
ATOM      6  C   UNL     1       1.524   9.408  19.155  0.00  0.00    +0.000 A 
ATOM      7  C   UNL     1       0.939  10.662  19.271  0.00  0.00    +0.000 A 
ATOM      8  C   UNL     1       0.065  10.895  20.334  0.00  0.00    +0.000 A 
ATOM      9  C   UNL     1      -0.209   9.879  21.255  0.00  0.00    +0.000 A 
ATOM     10  C   UNL     1       0.389   8.619  21.127  0.00  0.00    +0.000 A 
ATOM     11  C   UNL     1       1.271   8.373  20.075  0.00  0.00    +0.000 A 
ENDROOT
BRANCH   4  12
ATOM     12  C   UNL     1       3.685   4.939  18.485  0.00  0.00    +0.000 A 
ATOM     13  C   UNL     1       4.842   4.528  19.123  0.00  0.00    +0.000 A 
ATOM     14  C   UNL     1       4.847   3.230  19.581  0.00  0.00    +0.000 A 
ATOM     15  N   UNL     1       3.809   2.390  19.433  0.00  0.00    +0.000 NA
ATOM     16  C   UNL     1       2.739   2.900  18.813  0.00  0.00    +0.000 A 
ATOM     17 CL   UNL     1       1.397   1.866  18.623  0.00  0.00    +0.000 Cl
ATOM     18  N   UNL     1       2.614   4.138  18.319  0.00  0.00    +0.000 NA
ENDBRANCH   4  12
BRANCH   4  19
ATOM     19  C   UNL     1       4.337   6.574  16.763  0.00  0.00    +0.000 C 
ATOM     20  N   UNL     1       5.012   6.781  15.718  0.00  0.00    +0.000 NA
ENDBRANCH   4  19
TORSDOF 2
ENDMDL
MODEL 7
REMARK VINA RESULT:      -5.9      4.475      7.751
REMARK  Name = 
REMARK  3 active torsions:
REMARK  status: ('A' for Active; 'I' for Inactive)
REMARK    1  A    between atoms: C_1  and  N_2
REMARK    2  A    between atoms: C_4  and  C_5
REMARK    3  A    between atoms: C_4  and  C_7
REMARK                            x       y       z     vdW  Elec       q    Type
REMARK                         _______ _______ _______ _____ _____    ______ ____
ROOT
ATOM      1  C   UNL     1       2.031   9.762  17.837  0.00  0.00    +0.000 C 
ATOM      2  N   UNL     1       1.762   8.917  18.987  0.00  0.00    +0.000 N 
ATOM      3  C   UNL     1       1.148   9.219  20.222  0.00  0.00    +0.000 C 
ATOM      4  C   UNL     1       0.552  10.358  20.651  0.00  0.00    +0.000 C 
ATOM      5  S   UNL     1       1.186   7.809  21.358  0.00  0.00    +0.000 S 
ATOM      6  C   UNL     1       2.006   6.839  20.104  0.00  0.00    +0.000 A 
ATOM      7  C   UNL     1       2.405   5.515  20.231  0.00  0.00    +0.000 A 
ATOM      8  C   UNL     1       3.033   4.901  19.147  0.00  0.00    +0.000 A 
ATOM      9  C   UNL     1       3.249   5.612  17.963  0.00  0.00    +0.000 A 
ATOM     10  C   UNL     1       2.843   6.948  17.849  0.00  0.00    +0.000 A 
ATOM     11  C   UNL     1       2.222   7.579  18.926  0.00  0.00    +0.000 A 
ENDROOT
BRANCH   4  12
ATOM     12  C   UNL     1       0.406  11.579  19.847  0.00  0.00    +0.000 A 
ATOM     13  C   UNL     1      -0.702  11.774  19.041  0.00  0.00    +0.000 A 
ATOM     14  C   UNL     1      -0.769  12.988  18.396  0.00  0.00    +0.000 A 
ATOM     15  N   UNL     1       0.167  13.944  18.520  0.00  0.00    +0.000 NA
ATOM     16  C   UNL     1       1.185  13.650  19.336  0.00  0.00    +0.000 A 
ATOM     17 CL   UNL     1       2.383  14.847  19.530  0.00  0.00    +0.000 Cl
ATOM     18  N   UNL     1       1.367  12.509  20.012  0.00  0.00    +0.000 NA
ENDBRANCH   4  12
BRANCH   4  19
ATOM     19  C   UNL     1      -0.056  10.540  22.032  0.00  0.00    +0.000 C 
ATOM     20  N   UNL     1      -0.561  10.690  23.178  0.00  0.00    +0.000 NA
ENDBRANCH   4  19
TORSDOF 2
ENDMDL
MODEL 8
REMARK VINA RESULT:      -5.8      3.264      4.378
REMARK  Name = 
REMARK  3 active torsions:
REMARK  status: ('A' for Active; 'I' for Inactive)
REMARK    1  A    between atoms: C_1  and  N_2
REMARK    2  A    between atoms: C_4  and  C_5
REMARK    3  A    between atoms: C_4  and  C_7
REMARK                            x       y       z     vdW  Elec       q    Type
REMARK                         _______ _______ _______ _____ _____    ______ ____
ROOT
ATOM      1  C   UNL     1       4.335   5.523  19.795  0.00  0.00    +0.000 C 
ATOM      2  N   UNL     1       3.826   4.546  18.847  0.00  0.00    +0.000 N 
ATOM      3  C   UNL     1       4.309   4.165  17.576  0.00  0.00    +0.000 C 
ATOM      4  C   UNL     1       5.433   4.535  16.917  0.00  0.00    +0.000 C 
ATOM      5  S   UNL     1       3.206   2.981  16.763  0.00  0.00    +0.000 S 
ATOM      6  C   UNL     1       2.140   3.013  18.193  0.00  0.00    +0.000 A 
ATOM      7  C   UNL     1       0.964   2.289  18.348  0.00  0.00    +0.000 A 
ATOM      8  C   UNL     1       0.248   2.427  19.537  0.00  0.00    +0.000 A 
ATOM      9  C   UNL     1       0.713   3.277  20.545  0.00  0.00    +0.000 A 
ATOM     10  C   UNL     1       1.900   4.002  20.375  0.00  0.00    +0.000 A 
ATOM     11  C   UNL     1       2.623   3.882  19.189  0.00  0.00    +0.000 A 
ENDROOT
BRANCH   4  12
ATOM     12  C   UNL     1       6.448   5.457  17.446  0.00  0.00    +0.000 A 
ATOM     13  C   UNL     1       6.612   6.722  16.910  0.00  0.00    +0.000 A 
ATOM     14  C   UNL     1       7.538   7.524  17.537  0.00  0.00    +0.000 A 
ATOM     15  N   UNL     1       8.253   7.132  18.605  0.00  0.00    +0.000 NA
ATOM     16  C   UNL     1       8.000   5.895  19.044  0.00  0.00    +0.000 A 
ATOM     17 CL   UNL     1       8.879   5.371  20.408  0.00  0.00    +0.000 Cl
ATOM     18  N   UNL     1       7.134   5.019  18.520  0.00  0.00    +0.000 NA
ENDBRANCH   4  12
BRANCH   4  19
ATOM     19  C   UNL     1       5.813   4.047  15.528  0.00  0.00    +0.000 C 
ATOM     20  N   UNL     1       6.128   3.642  14.377  0.00  0.00    +0.000 NA
ENDBRANCH   4  19
TORSDOF 2
ENDMDL
MODEL 9
REMARK VINA RESULT:      -5.8      4.101      7.402
REMARK  Name = 
REMARK  3 active torsions:
REMARK  status: ('A' for Active; 'I' for Inactive)
REMARK    1  A    between atoms: C_1  and  N_2
REMARK    2  A    between atoms: C_4  and  C_5
REMARK    3  A    between atoms: C_4  and  C_7
REMARK                            x       y       z     vdW  Elec       q    Type
REMARK                         _______ _______ _______ _____ _____    ______ ____
ROOT
ATOM      1  C   UNL     1       1.912   9.456  17.677  0.00  0.00    +0.000 C 
ATOM      2  N   UNL     1       1.845   8.545  18.806  0.00  0.00    +0.000 N 
ATOM      3  C   UNL     1       1.213   8.687  20.061  0.00  0.00    +0.000 C 
ATOM      4  C   UNL     1       0.414   9.673  20.535  0.00  0.00    +0.000 C 
ATOM      5  S   UNL     1       1.559   7.283  21.152  0.00  0.00    +0.000 S 
ATOM      6  C   UNL     1       2.523   6.529  19.855  0.00  0.00    +0.000 A 
ATOM      7  C   UNL     1       3.180   5.308  19.934  0.00  0.00    +0.000 A 
ATOM      8  C   UNL     1       3.891   4.859  18.820  0.00  0.00    +0.000 A 
ATOM      9  C   UNL     1       3.933   5.630  17.654  0.00  0.00    +0.000 A 
ATOM     10  C   UNL     1       3.266   6.861  17.588  0.00  0.00    +0.000 A 
ATOM     11  C   UNL     1       2.559   7.327  18.696  0.00  0.00    +0.000 A 
ENDROOT
BRANCH   4  12
ATOM     12  C   UNL     1       0.008  10.860  19.772  0.00  0.00    +0.000 A 
ATOM     13  C   UNL     1       0.753  12.026  19.815  0.00  0.00    +0.000 A 
ATOM     14  C   UNL     1       0.320  13.046  18.998  0.00  0.00    +0.000 A 
ATOM     15  N   UNL     1      -0.754  12.947  18.198  0.00  0.00    +0.000 NA
ATOM     16  C   UNL     1      -1.388  11.769  18.229  0.00  0.00    +0.000 A 
ATOM     17 CL   UNL     1      -2.747  11.603  17.212  0.00  0.00    +0.000 Cl
ATOM     18  N   UNL     1      -1.072  10.708  18.980  0.00  0.00    +0.000 NA
ENDBRANCH   4  12
BRANCH   4  19
ATOM     19  C   UNL     1      -0.184   9.694  21.933  0.00  0.00    +0.000 C 
ATOM     20  N   UNL     1      -0.680   9.711  23.092  0.00  0.00    +0.000 NA
ENDBRANCH   4  19
TORSDOF 2
ENDMDL
