MODEL 1
REMARK VINA RESULT:      -9.0      0.000      0.000
REMARK  Name = 
REMARK  5 active torsions:
REMARK  status: ('A' for Active; 'I' for Inactive)
REMARK    1  A    between atoms: C_2  and  C_3
REMARK    2  A    between atoms: C_2  and  C_10
REMARK    3  A    between atoms: C_6  and  O_7
REMARK    4  A    between atoms: C_20  and  C_21
REMARK    5  A    between atoms: C_24  and  O_25
REMARK                            x       y       z     vdW  Elec       q    Type
REMARK                         _______ _______ _______ _____ _____    ______ ____
ROOT
ATOM      1  C   UNL     1       2.834   6.578  18.990  0.00  0.00    +0.000 A 
ATOM      2  N   UNL     1       2.031   6.178  20.047  0.00  0.00    +0.000 N 
ATOM      3  C   UNL     1       2.360   4.913  20.413  0.00  0.00    +0.000 A 
ATOM      4  N   UNL     1       1.724   4.168  21.367  0.00  0.00    +0.000 N 
ATOM      5  C   UNL     1       2.142   2.876  21.588  0.00  0.00    +0.000 A 
ATOM      6  O   UNL     1       1.586   2.157  22.414  0.00  0.00    +0.000 OA
ATOM      7  N   UNL     1       3.206   2.427  20.845  0.00  0.00    +0.000 N 
ATOM      8  C   UNL     1       3.930   3.137  19.905  0.00  0.00    +0.000 A 
ATOM      9  O   UNL     1       4.902   2.635  19.351  0.00  0.00    +0.000 OA
ATOM     10  C   UNL     1       3.421   4.476  19.662  0.00  0.00    +0.000 A 
ATOM     11  C   UNL     1       3.752   5.537  18.755  0.00  0.00    +0.000 A 
ATOM     12  H   UNL     1       1.260   6.712  20.421  0.00  0.00    +0.000 HD
ATOM     13  H   UNL     1       0.936   4.501  21.905  0.00  0.00    +0.000 HD
ATOM     14  H   UNL     1       3.513   1.484  21.021  0.00  0.00    +0.000 HD
ENDROOT
BRANCH  11  15
ATOM     15  C   UNL     1       4.796   5.569  17.723  0.00  0.00    +0.000 A 
ATOM     16  C   UNL     1       4.589   4.953  16.480  0.00  0.00    +0.000 A 
ATOM     17  C   UNL     1       5.596   4.919  15.509  0.00  0.00    +0.000 A 
ATOM     18  C   UNL     1       6.806   5.552  15.760  0.00  0.00    +0.000 A 
ATOM     19  C   UNL     1       7.026   6.202  16.965  0.00  0.00    +0.000 A 
ATOM     20  C   UNL     1       6.035   6.190  17.952  0.00  0.00    +0.000 A 
BRANCH  18  21
ATOM     21  O   UNL     1       7.812   5.549  14.840  0.00  0.00    +0.000 OA
ATOM     22  H   UNL     1       7.624   4.856  14.186  0.00  0.00    +0.000 HD
ENDBRANCH  18  21
ENDBRANCH  11  15
BRANCH   1  24
ATOM     23  O   UNL     1       3.217   8.071  17.206  0.00  0.00    +0.000 OA
ATOM     24  C   UNL     1       2.608   7.807  18.237  0.00  0.00    +0.000 C 
BRANCH  24  25
ATOM     25  C   UNL     1       1.571   8.795  18.661  0.00  0.00    +0.000 A 
ATOM     26  C   UNL     1       1.448   9.054  20.035  0.00  0.00    +0.000 A 
ATOM     27  C   UNL     1       0.476   9.931  20.516  0.00  0.00    +0.000 A 
ATOM     28  C   UNL     1      -0.381  10.551  19.615  0.00  0.00    +0.000 A 
ATOM     29  C   UNL     1      -0.281  10.303  18.248  0.00  0.00    +0.000 A 
ATOM     30  C   UNL     1       0.688   9.417  17.764  0.00  0.00    +0.000 A 
BRANCH  28  31
ATOM     31  O   UNL     1      -1.352  11.406  20.040  0.00  0.00    +0.000 OA
ATOM     32  H   UNL     1      -2.218  10.975  19.937  0.00  0.00    +0.000 HD
ENDBRANCH  28  31
ENDBRANCH  24  25
ENDBRANCH   1  24
TORSDOF 5
ENDMDL
MODEL 2
REMARK VINA RESULT:      -9.0      0.203      1.326
REMARK  Name = 
REMARK  5 active torsions:
REMARK  status: ('A' for Active; 'I' for Inactive)
REMARK    1  A    between atoms: C_2  and  C_3
REMARK    2  A    between atoms: C_2  and  C_10
REMARK    3  A    between atoms: C_6  and  O_7
REMARK    4  A    between atoms: C_20  and  C_21
REMARK    5  A    between atoms: C_24  and  O_25
REMARK                            x       y       z     vdW  Elec       q    Type
REMARK                         _______ _______ _______ _____ _____    ______ ____
ROOT
ATOM      1  C   UNL     1       2.907   6.449  19.148  0.00  0.00    +0.000 A 
ATOM      2  N   UNL     1       2.097   6.043  20.197  0.00  0.00    +0.000 N 
ATOM      3  C   UNL     1       2.397   4.762  20.531  0.00  0.00    +0.000 A 
ATOM      4  N   UNL     1       1.745   4.009  21.468  0.00  0.00    +0.000 N 
ATOM      5  C   UNL     1       2.133   2.703  21.657  0.00  0.00    +0.000 A 
ATOM      6  O   UNL     1       1.563   1.977  22.467  0.00  0.00    +0.000 OA
ATOM      7  N   UNL     1       3.186   2.247  20.902  0.00  0.00    +0.000 N 
ATOM      8  C   UNL     1       3.925   2.963  19.978  0.00  0.00    +0.000 A 
ATOM      9  O   UNL     1       4.884   2.452  19.410  0.00  0.00    +0.000 OA
ATOM     10  C   UNL     1       3.447   4.319  19.768  0.00  0.00    +0.000 A 
ATOM     11  C   UNL     1       3.801   5.394  18.886  0.00  0.00    +0.000 A 
ATOM     12  H   UNL     1       1.339   6.585  20.586  0.00  0.00    +0.000 HD
ATOM     13  H   UNL     1       0.966   4.346  22.016  0.00  0.00    +0.000 HD
ATOM     14  H   UNL     1       3.472   1.293  21.054  0.00  0.00    +0.000 HD
ENDROOT
BRANCH  11  15
ATOM     15  C   UNL     1       4.844   5.427  17.853  0.00  0.00    +0.000 A 
ATOM     16  C   UNL     1       6.082   6.033  18.110  0.00  0.00    +0.000 A 
ATOM     17  C   UNL     1       7.063   6.129  17.117  0.00  0.00    +0.000 A 
ATOM     18  C   UNL     1       6.827   5.570  15.869  0.00  0.00    +0.000 A 
ATOM     19  C   UNL     1       5.626   4.931  15.597  0.00  0.00    +0.000 A 
ATOM     20  C   UNL     1       4.629   4.881  16.577  0.00  0.00    +0.000 A 
BRANCH  18  21
ATOM     21  O   UNL     1       7.758   5.636  14.874  0.00  0.00    +0.000 OA
ATOM     22  H   UNL     1       7.293   5.759  14.031  0.00  0.00    +0.000 HD
ENDBRANCH  18  21
ENDBRANCH  11  15
BRANCH   1  24
ATOM     23  O   UNL     1       3.365   8.004  17.436  0.00  0.00    +0.000 OA
ATOM     24  C   UNL     1       2.709   7.701  18.426  0.00  0.00    +0.000 C 
BRANCH  24  25
ATOM     25  C   UNL     1       1.643   8.668  18.830  0.00  0.00    +0.000 A 
ATOM     26  C   UNL     1       0.942   9.323  17.805  0.00  0.00    +0.000 A 
ATOM     27  C   UNL     1      -0.038  10.271  18.099  0.00  0.00    +0.000 A 
ATOM     28  C   UNL     1      -0.314  10.568  19.428  0.00  0.00    +0.000 A 
ATOM     29  C   UNL     1       0.374   9.935  20.459  0.00  0.00    +0.000 A 
ATOM     30  C   UNL     1       1.363   8.989  20.167  0.00  0.00    +0.000 A 
BRANCH  28  31
ATOM     31  O   UNL     1      -1.255  11.495  19.761  0.00  0.00    +0.000 OA
ATOM     32  H   UNL     1      -1.002  12.352  19.378  0.00  0.00    +0.000 HD
ENDBRANCH  28  31
ENDBRANCH  24  25
ENDBRANCH   1  24
TORSDOF 5
ENDMDL
MODEL 3
REMARK VINA RESULT:      -8.5      3.230      5.755
REMARK  Name = 
REMARK  5 active torsions:
REMARK  status: ('A' for Active; 'I' for Inactive)
REMARK    1  A    between atoms: C_2  and  C_3
REMARK    2  A    between atoms: C_2  and  C_10
REMARK    3  A    between atoms: C_6  and  O_7
REMARK    4  A    between atoms: C_20  and  C_21
REMARK    5  A    between atoms: C_24  and  O_25
REMARK                            x       y       z     vdW  Elec       q    Type
REMARK                         _______ _______ _______ _____ _____    ______ ____
ROOT
ATOM      1  C   UNL     1       5.435   4.292  17.174  0.00  0.00    +0.000 A 
ATOM      2  N   UNL     1       5.034   3.379  16.211  0.00  0.00    +0.000 N 
ATOM      3  C   UNL     1       5.697   3.622  15.051  0.00  0.00    +0.000 A 
ATOM      4  N   UNL     1       5.496   2.969  13.867  0.00  0.00    +0.000 N 
ATOM      5  C   UNL     1       6.210   3.368  12.760  0.00  0.00    +0.000 A 
ATOM      6  O   UNL     1       6.047   2.832  11.667  0.00  0.00    +0.000 OA
ATOM      7  N   UNL     1       7.113   4.389  12.932  0.00  0.00    +0.000 N 
ATOM      8  C   UNL     1       7.407   5.056  14.107  0.00  0.00    +0.000 A 
ATOM      9  O   UNL     1       8.282   5.915  14.138  0.00  0.00    +0.000 OA
ATOM     10  C   UNL     1       6.591   4.645  15.237  0.00  0.00    +0.000 A 
ATOM     11  C   UNL     1       6.452   5.076  16.597  0.00  0.00    +0.000 A 
ATOM     12  H   UNL     1       4.295   2.701  16.330  0.00  0.00    +0.000 HD
ATOM     13  H   UNL     1       4.824   2.224  13.743  0.00  0.00    +0.000 HD
ATOM     14  H   UNL     1       7.640   4.667  12.121  0.00  0.00    +0.000 HD
ENDROOT
BRANCH  11  15
ATOM     15  C   UNL     1       7.162   6.156  17.294  0.00  0.00    +0.000 A 
ATOM     16  C   UNL     1       7.862   5.899  18.482  0.00  0.00    +0.000 A 
ATOM     17  C   UNL     1       8.491   6.927  19.192  0.00  0.00    +0.000 A 
ATOM     18  C   UNL     1       8.465   8.219  18.686  0.00  0.00    +0.000 A 
ATOM     19  C   UNL     1       7.813   8.498  17.495  0.00  0.00    +0.000 A 
ATOM     20  C   UNL     1       7.143   7.476  16.814  0.00  0.00    +0.000 A 
BRANCH  18  21
ATOM     21  O   UNL     1       9.070   9.250  19.342  0.00  0.00    +0.000 OA
ATOM     22  H   UNL     1       8.390   9.735  19.838  0.00  0.00    +0.000 HD
ENDBRANCH  18  21
ENDBRANCH  11  15
BRANCH   1  24
ATOM     23  O   UNL     1       5.000   3.671  19.406  0.00  0.00    +0.000 OA
ATOM     24  C   UNL     1       4.776   4.428  18.468  0.00  0.00    +0.000 C 
BRANCH  24  25
ATOM     25  C   UNL     1       3.821   5.545  18.737  0.00  0.00    +0.000 A 
ATOM     26  C   UNL     1       3.731   6.565  17.777  0.00  0.00    +0.000 A 
ATOM     27  C   UNL     1       2.894   7.664  17.973  0.00  0.00    +0.000 A 
ATOM     28  C   UNL     1       2.146   7.743  19.140  0.00  0.00    +0.000 A 
ATOM     29  C   UNL     1       2.225   6.747  20.109  0.00  0.00    +0.000 A 
ATOM     30  C   UNL     1       3.070   5.647  19.918  0.00  0.00    +0.000 A 
BRANCH  28  31
ATOM     31  O   UNL     1       1.324   8.803  19.379  0.00  0.00    +0.000 OA
ATOM     32  H   UNL     1       0.477   8.473  19.726  0.00  0.00    +0.000 HD
ENDBRANCH  28  31
ENDBRANCH  24  25
ENDBRANCH   1  24
TORSDOF 5
ENDMDL
MODEL 4
REMARK VINA RESULT:      -8.5      3.464      6.212
REMARK  Name = 
REMARK  5 active torsions:
REMARK  status: ('A' for Active; 'I' for Inactive)
REMARK    1  A    between atoms: C_2  and  C_3
REMARK    2  A    between atoms: C_2  and  C_10
REMARK    3  A    between atoms: C_6  and  O_7
REMARK    4  A    between atoms: C_20  and  C_21
REMARK    5  A    between atoms: C_24  and  O_25
REMARK                            x       y       z     vdW  Elec       q    Type
REMARK                         _______ _______ _______ _____ _____    ______ ____
ROOT
ATOM      1  C   UNL     1       4.719   5.233  17.007  0.00  0.00    +0.000 A 
ATOM      2  N   UNL     1       4.225   4.339  16.070  0.00  0.00    +0.000 N 
ATOM      3  C   UNL     1       5.091   4.249  15.028  0.00  0.00    +0.000 A 
ATOM      4  N   UNL     1       4.892   3.523  13.887  0.00  0.00    +0.000 N 
ATOM      5  C   UNL     1       5.842   3.575  12.893  0.00  0.00    +0.000 A 
ATOM      6  O   UNL     1       5.698   2.963  11.838  0.00  0.00    +0.000 OA
ATOM      7  N   UNL     1       6.958   4.340  13.133  0.00  0.00    +0.000 N 
ATOM      8  C   UNL     1       7.251   5.054  14.280  0.00  0.00    +0.000 A 
ATOM      9  O   UNL     1       8.316   5.653  14.391  0.00  0.00    +0.000 OA
ATOM     10  C   UNL     1       6.197   5.019  15.280  0.00  0.00    +0.000 A 
ATOM     11  C   UNL     1       5.986   5.645  16.553  0.00  0.00    +0.000 A 
ATOM     12  H   UNL     1       3.318   3.897  16.114  0.00  0.00    +0.000 HD
ATOM     13  H   UNL     1       4.065   2.968  13.711  0.00  0.00    +0.000 HD
ATOM     14  H   UNL     1       7.654   4.364  12.406  0.00  0.00    +0.000 HD
ENDROOT
BRANCH  11  15
ATOM     15  C   UNL     1       6.859   6.584  17.270  0.00  0.00    +0.000 A 
ATOM     16  C   UNL     1       7.634   6.150  18.355  0.00  0.00    +0.000 A 
ATOM     17  C   UNL     1       8.422   7.044  19.088  0.00  0.00    +0.000 A 
ATOM     18  C   UNL     1       8.478   8.376  18.704  0.00  0.00    +0.000 A 
ATOM     19  C   UNL     1       7.752   8.827  17.611  0.00  0.00    +0.000 A 
ATOM     20  C   UNL     1       6.927   7.940  16.912  0.00  0.00    +0.000 A 
BRANCH  18  21
ATOM     21  O   UNL     1       9.238   9.280  19.385  0.00  0.00    +0.000 OA
ATOM     22  H   UNL     1       8.647   9.820  19.935  0.00  0.00    +0.000 HD
ENDBRANCH  18  21
ENDBRANCH  11  15
BRANCH   1  24
ATOM     23  O   UNL     1       3.657   6.883  18.314  0.00  0.00    +0.000 OA
ATOM     24  C   UNL     1       3.942   5.702  18.149  0.00  0.00    +0.000 C 
BRANCH  24  25
ATOM     25  C   UNL     1       3.402   4.746  19.163  0.00  0.00    +0.000 A 
ATOM     26  C   UNL     1       2.269   5.146  19.889  0.00  0.00    +0.000 A 
ATOM     27  C   UNL     1       1.728   4.330  20.883  0.00  0.00    +0.000 A 
ATOM     28  C   UNL     1       2.330   3.107  21.154  0.00  0.00    +0.000 A 
ATOM     29  C   UNL     1       3.458   2.694  20.451  0.00  0.00    +0.000 A 
ATOM     30  C   UNL     1       4.007   3.515  19.459  0.00  0.00    +0.000 A 
BRANCH  28  31
ATOM     31  O   UNL     1       1.843   2.283  22.123  0.00  0.00    +0.000 OA
ATOM     32  H   UNL     1       2.331   2.445  22.948  0.00  0.00    +0.000 HD
ENDBRANCH  28  31
ENDBRANCH  24  25
ENDBRANCH   1  24
TORSDOF 5
ENDMDL
MODEL 5
REMARK VINA RESULT:      -8.4      3.186      5.394
REMARK  Name = 
REMARK  5 active torsions:
REMARK  status: ('A' for Active; 'I' for Inactive)
REMARK    1  A    between atoms: C_2  and  C_3
REMARK    2  A    between atoms: C_2  and  C_10
REMARK    3  A    between atoms: C_6  and  O_7
REMARK    4  A    between atoms: C_20  and  C_21
REMARK    5  A    between atoms: C_24  and  O_25
REMARK                            x       y       z     vdW  Elec       q    Type
REMARK                         _______ _______ _______ _____ _____    ______ ____
ROOT
ATOM      1  C   UNL     1       5.025   4.755  17.200  0.00  0.00    +0.000 A 
ATOM      2  N   UNL     1       4.553   3.855  16.258  0.00  0.00    +0.000 N 
ATOM      3  C   UNL     1       5.311   3.935  15.134  0.00  0.00    +0.000 A 
ATOM      4  N   UNL     1       5.087   3.252  13.971  0.00  0.00    +0.000 N 
ATOM      5  C   UNL     1       5.915   3.482  12.897  0.00  0.00    +0.000 A 
ATOM      6  O   UNL     1       5.740   2.913  11.822  0.00  0.00    +0.000 OA
ATOM      7  N   UNL     1       6.944   4.373  13.079  0.00  0.00    +0.000 N 
ATOM      8  C   UNL     1       7.262   5.059  14.236  0.00  0.00    +0.000 A 
ATOM      9  O   UNL     1       8.248   5.786  14.284  0.00  0.00    +0.000 OA
ATOM     10  C   UNL     1       6.331   4.831  15.328  0.00  0.00    +0.000 A 
ATOM     11  C   UNL     1       6.176   5.355  16.655  0.00  0.00    +0.000 A 
ATOM     12  H   UNL     1       3.718   3.295  16.360  0.00  0.00    +0.000 HD
ATOM     13  H   UNL     1       4.324   2.602  13.839  0.00  0.00    +0.000 HD
ATOM     14  H   UNL     1       7.552   4.528  12.291  0.00  0.00    +0.000 HD
ENDROOT
BRANCH  11  15
ATOM     15  C   UNL     1       6.993   6.361  17.344  0.00  0.00    +0.000 A 
ATOM     16  C   UNL     1       7.730   6.020  18.488  0.00  0.00    +0.000 A 
ATOM     17  C   UNL     1       8.463   6.980  19.193  0.00  0.00    +0.000 A 
ATOM     18  C   UNL     1       8.502   8.287  18.725  0.00  0.00    +0.000 A 
ATOM     19  C   UNL     1       7.813   8.646  17.576  0.00  0.00    +0.000 A 
ATOM     20  C   UNL     1       7.042   7.694  16.903  0.00  0.00    +0.000 A 
BRANCH  18  21
ATOM     21  O   UNL     1       9.208   9.253  19.378  0.00  0.00    +0.000 OA
ATOM     22  H   UNL     1       9.760   8.824  20.052  0.00  0.00    +0.000 HD
ENDBRANCH  18  21
ENDBRANCH  11  15
BRANCH   1  24
ATOM     23  O   UNL     1       4.399   4.345  19.436  0.00  0.00    +0.000 OA
ATOM     24  C   UNL     1       4.318   5.056  18.440  0.00  0.00    +0.000 C 
BRANCH  24  25
ATOM     25  C   UNL     1       3.490   6.292  18.579  0.00  0.00    +0.000 A 
ATOM     26  C   UNL     1       2.741   6.439  19.758  0.00  0.00    +0.000 A 
ATOM     27  C   UNL     1       1.910   7.543  19.946  0.00  0.00    +0.000 A 
ATOM     28  C   UNL     1       1.825   8.504  18.946  0.00  0.00    +0.000 A 
ATOM     29  C   UNL     1       2.553   8.374  17.767  0.00  0.00    +0.000 A 
ATOM     30  C   UNL     1       3.382   7.263  17.572  0.00  0.00    +0.000 A 
BRANCH  28  31
ATOM     31  O   UNL     1       1.017   9.593  19.083  0.00  0.00    +0.000 OA
ATOM     32  H   UNL     1       0.535   9.733  18.251  0.00  0.00    +0.000 HD
ENDBRANCH  28  31
ENDBRANCH  24  25
ENDBRANCH   1  24
TORSDOF 5
ENDMDL
MODEL 6
REMARK VINA RESULT:      -8.1      4.319      9.663
REMARK  Name = 
REMARK  5 active torsions:
REMARK  status: ('A' for Active; 'I' for Inactive)
REMARK    1  A    between atoms: C_2  and  C_3
REMARK    2  A    between atoms: C_2  and  C_10
REMARK    3  A    between atoms: C_6  and  O_7
REMARK    4  A    between atoms: C_20  and  C_21
REMARK    5  A    between atoms: C_24  and  O_25
REMARK                            x       y       z     vdW  Elec       q    Type
REMARK                         _______ _______ _______ _____ _____    ______ ____
ROOT
ATOM      1  C   UNL     1       0.954  11.708  18.768  0.00  0.00    +0.000 A 
ATOM      2  N   UNL     1       1.959  12.286  18.008  0.00  0.00    +0.000 N 
ATOM      3  C   UNL     1       2.121  13.581  18.380  0.00  0.00    +0.000 A 
ATOM      4  N   UNL     1       2.968  14.479  17.792  0.00  0.00    +0.000 N 
ATOM      5  C   UNL     1       2.981  15.777  18.249  0.00  0.00    +0.000 A 
ATOM      6  O   UNL     1       3.704  16.628  17.737  0.00  0.00    +0.000 OA
ATOM      7  N   UNL     1       2.152  16.078  19.302  0.00  0.00    +0.000 N 
ATOM      8  C   UNL     1       1.312  15.213  19.979  0.00  0.00    +0.000 A 
ATOM      9  O   UNL     1       0.663  15.598  20.946  0.00  0.00    +0.000 OA
ATOM     10  C   UNL     1       1.286  13.868  19.429  0.00  0.00    +0.000 A 
ATOM     11  C   UNL     1       0.541  12.674  19.705  0.00  0.00    +0.000 A 
ATOM     12  H   UNL     1       2.430  11.837  17.235  0.00  0.00    +0.000 HD
ATOM     13  H   UNL     1       3.571  14.255  17.012  0.00  0.00    +0.000 HD
ATOM     14  H   UNL     1       2.175  17.026  19.638  0.00  0.00    +0.000 HD
ENDROOT
BRANCH  11  15
ATOM     15  C   UNL     1      -0.501  12.456  20.716  0.00  0.00    +0.000 A 
ATOM     16  C   UNL     1      -1.804  12.934  20.511  0.00  0.00    +0.000 A 
ATOM     17  C   UNL     1      -2.793  12.790  21.491  0.00  0.00    +0.000 A 
ATOM     18  C   UNL     1      -2.493  12.119  22.668  0.00  0.00    +0.000 A 
ATOM     19  C   UNL     1      -1.224  11.603  22.884  0.00  0.00    +0.000 A 
ATOM     20  C   UNL     1      -0.225  11.793  21.923  0.00  0.00    +0.000 A 
BRANCH  18  21
ATOM     21  O   UNL     1      -3.427  11.952  23.647  0.00  0.00    +0.000 OA
ATOM     22  H   UNL     1      -4.265  12.331  23.336  0.00  0.00    +0.000 HD
ENDBRANCH  18  21
ENDBRANCH  11  15
BRANCH   1  24
ATOM     23  O   UNL     1      -0.675  10.228  17.921  0.00  0.00    +0.000 OA
ATOM     24  C   UNL     1       0.401  10.388  18.488  0.00  0.00    +0.000 C 
BRANCH  24  25
ATOM     25  C   UNL     1       1.152   9.144  18.836  0.00  0.00    +0.000 A 
ATOM     26  C   UNL     1       1.104   8.711  20.171  0.00  0.00    +0.000 A 
ATOM     27  C   UNL     1       1.812   7.583  20.586  0.00  0.00    +0.000 A 
ATOM     28  C   UNL     1       2.578   6.887  19.659  0.00  0.00    +0.000 A 
ATOM     29  C   UNL     1       2.646   7.303  18.332  0.00  0.00    +0.000 A 
ATOM     30  C   UNL     1       1.942   8.439  17.915  0.00  0.00    +0.000 A 
BRANCH  28  31
ATOM     31  O   UNL     1       3.295   5.787  20.022  0.00  0.00    +0.000 OA
ATOM     32  H   UNL     1       2.860   5.365  20.783  0.00  0.00    +0.000 HD
ENDBRANCH  28  31
ENDBRANCH  24  25
ENDBRANCH   1  24
TORSDOF 5
ENDMDL
MODEL 7
REMARK VINA RESULT:      -8.1      4.432      9.839
REMARK  Name = 
REMARK  5 active torsions:
REMARK  status: ('A' for Active; 'I' for Inactive)
REMARK    1  A    between atoms: C_2  and  C_3
REMARK    2  A    between atoms: C_2  and  C_10
REMARK    3  A    between atoms: C_6  and  O_7
REMARK    4  A    between atoms: C_20  and  C_21
REMARK    5  A    between atoms: C_24  and  O_25
REMARK                            x       y       z     vdW  Elec       q    Type
REMARK                         _______ _______ _______ _____ _____    ______ ____
ROOT
ATOM      1  C   UNL     1       0.941  11.910  18.803  0.00  0.00    +0.000 A 
ATOM      2  N   UNL     1       1.944  12.480  18.034  0.00  0.00    +0.000 N 
ATOM      3  C   UNL     1       2.092  13.785  18.376  0.00  0.00    +0.000 A 
ATOM      4  N   UNL     1       2.932  14.678  17.771  0.00  0.00    +0.000 N 
ATOM      5  C   UNL     1       2.929  15.986  18.197  0.00  0.00    +0.000 A 
ATOM      6  O   UNL     1       3.645  16.832  17.668  0.00  0.00    +0.000 OA
ATOM      7  N   UNL     1       2.092  16.303  19.239  0.00  0.00    +0.000 N 
ATOM      8  C   UNL     1       1.258  15.446  19.932  0.00  0.00    +0.000 A 
ATOM      9  O   UNL     1       0.601  15.847  20.887  0.00  0.00    +0.000 OA
ATOM     10  C   UNL     1       1.248  14.089  19.414  0.00  0.00    +0.000 A 
ATOM     11  C   UNL     1       0.514  12.893  19.715  0.00  0.00    +0.000 A 
ATOM     12  H   UNL     1       2.423  12.018  17.274  0.00  0.00    +0.000 HD
ATOM     13  H   UNL     1       3.540  14.442  16.999  0.00  0.00    +0.000 HD
ATOM     14  H   UNL     1       2.104  17.260  19.552  0.00  0.00    +0.000 HD
ENDROOT
BRANCH  11  15
ATOM     15  C   UNL     1      -0.530  12.689  20.727  0.00  0.00    +0.000 A 
ATOM     16  C   UNL     1      -0.236  12.036  21.933  0.00  0.00    +0.000 A 
ATOM     17  C   UNL     1      -1.232  11.777  22.880  0.00  0.00    +0.000 A 
ATOM     18  C   UNL     1      -2.527  12.218  22.646  0.00  0.00    +0.000 A 
ATOM     19  C   UNL     1      -2.840  12.900  21.479  0.00  0.00    +0.000 A 
ATOM     20  C   UNL     1      -1.852  13.113  20.513  0.00  0.00    +0.000 A 
BRANCH  18  21
ATOM     21  O   UNL     1      -3.528  11.993  23.544  0.00  0.00    +0.000 OA
ATOM     22  H   UNL     1      -3.224  11.319  24.174  0.00  0.00    +0.000 HD
ENDBRANCH  18  21
ENDBRANCH  11  15
BRANCH   1  24
ATOM     23  O   UNL     1      -0.628  10.390  17.917  0.00  0.00    +0.000 OA
ATOM     24  C   UNL     1       0.403  10.577  18.553  0.00  0.00    +0.000 C 
BRANCH  24  25
ATOM     25  C   UNL     1       1.120   9.352  19.020  0.00  0.00    +0.000 A 
ATOM     26  C   UNL     1       1.879   8.646  18.072  0.00  0.00    +0.000 A 
ATOM     27  C   UNL     1       2.543   7.470  18.418  0.00  0.00    +0.000 A 
ATOM     28  C   UNL     1       2.445   6.995  19.720  0.00  0.00    +0.000 A 
ATOM     29  C   UNL     1       1.692   7.675  20.673  0.00  0.00    +0.000 A 
ATOM     30  C   UNL     1       1.018   8.852  20.327  0.00  0.00    +0.000 A 
BRANCH  28  31
ATOM     31  O   UNL     1       3.068   5.844  20.099  0.00  0.00    +0.000 OA
ATOM     32  H   UNL     1       3.467   5.430  19.315  0.00  0.00    +0.000 HD
ENDBRANCH  28  31
ENDBRANCH  24  25
ENDBRANCH   1  24
TORSDOF 5
ENDMDL
MODEL 8
REMARK VINA RESULT:      -8.0      2.107      4.921
REMARK  Name = 
REMARK  5 active torsions:
REMARK  status: ('A' for Active; 'I' for Inactive)
REMARK    1  A    between atoms: C_2  and  C_3
REMARK    2  A    between atoms: C_2  and  C_10
REMARK    3  A    between atoms: C_6  and  O_7
REMARK    4  A    between atoms: C_20  and  C_21
REMARK    5  A    between atoms: C_24  and  O_25
REMARK                            x       y       z     vdW  Elec       q    Type
REMARK                         _______ _______ _______ _____ _____    ______ ____
ROOT
ATOM      1  C   UNL     1       2.766   7.026  18.614  0.00  0.00    +0.000 A 
ATOM      2  N   UNL     1       3.468   7.558  17.543  0.00  0.00    +0.000 N 
ATOM      3  C   UNL     1       4.181   6.576  16.935  0.00  0.00    +0.000 A 
ATOM      4  N   UNL     1       5.050   6.750  15.894  0.00  0.00    +0.000 N 
ATOM      5  C   UNL     1       5.743   5.661  15.419  0.00  0.00    +0.000 A 
ATOM      6  O   UNL     1       6.555   5.769  14.504  0.00  0.00    +0.000 OA
ATOM      7  N   UNL     1       5.486   4.448  16.012  0.00  0.00    +0.000 N 
ATOM      8  C   UNL     1       4.586   4.188  17.029  0.00  0.00    +0.000 A 
ATOM      9  O   UNL     1       4.409   3.044  17.432  0.00  0.00    +0.000 OA
ATOM     10  C   UNL     1       3.918   5.373  17.539  0.00  0.00    +0.000 A 
ATOM     11  C   UNL     1       2.998   5.638  18.608  0.00  0.00    +0.000 A 
ATOM     12  H   UNL     1       3.513   8.541  17.312  0.00  0.00    +0.000 HD
ATOM     13  H   UNL     1       5.242   7.645  15.466  0.00  0.00    +0.000 HD
ATOM     14  H   UNL     1       5.989   3.654  15.652  0.00  0.00    +0.000 HD
ENDROOT
BRANCH  11  15
ATOM     15  C   UNL     1       2.419   4.696  19.574  0.00  0.00    +0.000 A 
ATOM     16  C   UNL     1       1.231   4.013  19.279  0.00  0.00    +0.000 A 
ATOM     17  C   UNL     1       0.632   3.160  20.213  0.00  0.00    +0.000 A 
ATOM     18  C   UNL     1       1.252   2.946  21.437  0.00  0.00    +0.000 A 
ATOM     19  C   UNL     1       2.448   3.579  21.742  0.00  0.00    +0.000 A 
ATOM     20  C   UNL     1       3.017   4.469  20.825  0.00  0.00    +0.000 A 
BRANCH  18  21
ATOM     21  O   UNL     1       0.708   2.119  22.373  0.00  0.00    +0.000 OA
ATOM     22  H   UNL     1       0.095   2.639  22.919  0.00  0.00    +0.000 HD
ENDBRANCH  18  21
ENDBRANCH  11  15
BRANCH   1  24
ATOM     23  O   UNL     1       2.175   7.684  20.799  0.00  0.00    +0.000 OA
ATOM     24  C   UNL     1       2.057   7.846  19.590  0.00  0.00    +0.000 C 
BRANCH  24  25
ATOM     25  C   UNL     1       1.180   8.977  19.160  0.00  0.00    +0.000 A 
ATOM     26  C   UNL     1       0.988  10.029  20.069  0.00  0.00    +0.000 A 
ATOM     27  C   UNL     1       0.150  11.101  19.761  0.00  0.00    +0.000 A 
ATOM     28  C   UNL     1      -0.503  11.117  18.535  0.00  0.00    +0.000 A 
ATOM     29  C   UNL     1      -0.332  10.081  17.621  0.00  0.00    +0.000 A 
ATOM     30  C   UNL     1       0.502   9.000  17.932  0.00  0.00    +0.000 A 
BRANCH  28  31
ATOM     31  O   UNL     1      -1.339  12.138  18.196  0.00  0.00    +0.000 OA
ATOM     32  H   UNL     1      -1.041  12.521  17.353  0.00  0.00    +0.000 HD
ENDBRANCH  28  31
ENDBRANCH  24  25
ENDBRANCH   1  24
TORSDOF 5
ENDMDL
MODEL 9
REMARK VINA RESULT:      -7.8      2.347      5.299
REMARK  Name = 
REMARK  5 active torsions:
REMARK  status: ('A' for Active; 'I' for Inactive)
REMARK    1  A    between atoms: C_2  and  C_3
REMARK    2  A    between atoms: C_2  and  C_10
REMARK    3  A    between atoms: C_6  and  O_7
REMARK    4  A    between atoms: C_20  and  C_21
REMARK    5  A    between atoms: C_24  and  O_25
REMARK                            x       y       z     vdW  Elec       q    Type
REMARK                         _______ _______ _______ _____ _____    ______ ____
ROOT
ATOM      1  C   UNL     1       2.124   8.465  18.309  0.00  0.00    +0.000 A 
ATOM      2  N   UNL     1       2.756   7.611  17.420  0.00  0.00    +0.000 N 
ATOM      3  C   UNL     1       3.022   6.431  18.036  0.00  0.00    +0.000 A 
ATOM      4  N   UNL     1       3.709   5.382  17.489  0.00  0.00    +0.000 N 
ATOM      5  C   UNL     1       3.946   4.269  18.262  0.00  0.00    +0.000 A 
ATOM      6  O   UNL     1       4.581   3.312  17.827  0.00  0.00    +0.000 OA
ATOM      7  N   UNL     1       3.442   4.275  19.540  0.00  0.00    +0.000 N 
ATOM      8  C   UNL     1       2.696   5.272  20.141  0.00  0.00    +0.000 A 
ATOM      9  O   UNL     1       2.254   5.128  21.275  0.00  0.00    +0.000 OA
ATOM     10  C   UNL     1       2.517   6.452  19.311  0.00  0.00    +0.000 A 
ATOM     11  C   UNL     1       1.921   7.743  19.499  0.00  0.00    +0.000 A 
ATOM     12  H   UNL     1       3.056   7.863  16.488  0.00  0.00    +0.000 HD
ATOM     13  H   UNL     1       4.085   5.385  16.551  0.00  0.00    +0.000 HD
ATOM     14  H   UNL     1       3.610   3.452  20.096  0.00  0.00    +0.000 HD
ENDROOT
BRANCH  11  15
ATOM     15  C   UNL     1       1.261   8.283  20.695  0.00  0.00    +0.000 A 
ATOM     16  C   UNL     1      -0.109   8.075  20.909  0.00  0.00    +0.000 A 
ATOM     17  C   UNL     1      -0.766   8.635  22.010  0.00  0.00    +0.000 A 
ATOM     18  C   UNL     1      -0.038   9.370  22.936  0.00  0.00    +0.000 A 
ATOM     19  C   UNL     1       1.326   9.562  22.771  0.00  0.00    +0.000 A 
ATOM     20  C   UNL     1       1.968   9.041  21.643  0.00  0.00    +0.000 A 
BRANCH  18  21
ATOM     21  O   UNL     1      -0.636   9.929  24.026  0.00  0.00    +0.000 OA
ATOM     22  H   UNL     1      -0.215   9.567  24.823  0.00  0.00    +0.000 HD
ENDBRANCH  18  21
ENDBRANCH  11  15
BRANCH   1  24
ATOM     23  O   UNL     1       2.725  10.606  17.522  0.00  0.00    +0.000 OA
ATOM     24  C   UNL     1       1.877   9.874  18.022  0.00  0.00    +0.000 C 
BRANCH  24  25
ATOM     25  C   UNL     1       0.541  10.494  18.278  0.00  0.00    +0.000 A 
ATOM     26  C   UNL     1       0.504  11.635  19.094  0.00  0.00    +0.000 A 
ATOM     27  C   UNL     1      -0.707  12.248  19.416  0.00  0.00    +0.000 A 
ATOM     28  C   UNL     1      -1.889  11.712  18.919  0.00  0.00    +0.000 A 
ATOM     29  C   UNL     1      -1.875  10.577  18.113  0.00  0.00    +0.000 A 
ATOM     30  C   UNL     1      -0.661   9.955  17.796  0.00  0.00    +0.000 A 
BRANCH  28  31
ATOM     31  O   UNL     1      -3.095  12.271  19.216  0.00  0.00    +0.000 OA
ATOM     32  H   UNL     1      -3.231  12.233  20.178  0.00  0.00    +0.000 HD
ENDBRANCH  28  31
ENDBRANCH  24  25
ENDBRANCH   1  24
TORSDOF 5
ENDMDL
