MODEL 1
REMARK VINA RESULT:      -7.9      0.000      0.000
REMARK  Name = 
REMARK  7 active torsions:
REMARK  status: ('A' for Active; 'I' for Inactive)
REMARK    1  A    between atoms: C_1  and  C_2
REMARK    2  A    between atoms: C_2  and  N_3
REMARK    3  A    between atoms: C_5  and  C_6
REMARK    4  A    between atoms: C_6  and  O_8
REMARK    5  A    between atoms: O_8  and  C_9
REMARK    6  A    between atoms: C_9  and  C_10
REMARK    7  A    between atoms: C_22  and  C_23
REMARK                            x       y       z     vdW  Elec       q    Type
REMARK                         _______ _______ _______ _____ _____    ______ ____
ROOT
ATOM      1  N   UNL     1       3.535   6.543  18.421  0.00  0.00    +0.000 N 
ATOM      2  C   UNL     1       4.703   7.017  17.846  0.00  0.00    +0.000 A 
ATOM      3  C   UNL     1       5.856   6.334  17.736  0.00  0.00    +0.000 A 
ATOM      4  C   UNL     1       5.856   4.939  18.238  0.00  0.00    +0.000 A 
ATOM      5  O   UNL     1       6.788   4.163  18.048  0.00  0.00    +0.000 OA
ATOM      6  C   UNL     1       4.659   4.464  18.961  0.00  0.00    +0.000 A 
ATOM      7  C   UNL     1       4.660   3.198  19.553  0.00  0.00    +0.000 A 
ATOM      8  C   UNL     1       3.519   2.757  20.205  0.00  0.00    +0.000 A 
ATOM      9  C   UNL     1       2.412   3.596  20.243  0.00  0.00    +0.000 A 
ATOM     10  C   UNL     1       1.138   3.147  20.891  0.00  0.00    +0.000 C 
ATOM     11  N   UNL     1       2.404   4.826  19.671  0.00  0.00    +0.000 NA
ATOM     12  C   UNL     1       3.517   5.266  19.032  0.00  0.00    +0.000 A 
ENDROOT
BRANCH   1  14
ATOM     13  C   UNL     1       2.388   8.619  17.718  0.00  0.00    +0.000 C 
ATOM     14  C   UNL     1       2.286   7.310  18.489  0.00  0.00    +0.000 C 
ENDBRANCH   1  14
BRANCH   3  15
ATOM     15  C   UNL     1       7.024   6.987  17.108  0.00  0.00    +0.000 C 
ATOM     16  O   UNL     1       7.645   6.509  16.168  0.00  0.00    +0.000 OA
BRANCH  15  17
ATOM     17  O   UNL     1       7.270   8.178  17.697  0.00  0.00    +0.000 OA
BRANCH  17  18
ATOM     18  C   UNL     1       8.504   8.320  18.407  0.00  0.00    +0.000 C 
BRANCH  18  19
ATOM     19  C   UNL     1       8.786   9.789  18.620  0.00  0.00    +0.000 A 
ATOM     20  C   UNL     1       9.425  10.234  19.788  0.00  0.00    +0.000 A 
ATOM     21  C   UNL     1       9.711  11.589  19.964  0.00  0.00    +0.000 A 
ATOM     22  C   UNL     1       9.355  12.499  18.977  0.00  0.00    +0.000 A 
ATOM     23  F   UNL     1       9.635  13.798  19.142  0.00  0.00    +0.000 F 
ATOM     24  C   UNL     1       8.714  12.081  17.817  0.00  0.00    +0.000 A 
ATOM     25  C   UNL     1       8.427  10.726  17.638  0.00  0.00    +0.000 A 
ENDBRANCH  18  19
ENDBRANCH  17  18
ENDBRANCH  15  17
ENDBRANCH   3  15
TORSDOF 5
ENDMDL
MODEL 2
REMARK VINA RESULT:      -7.9      3.445      6.355
REMARK  Name = 
REMARK  7 active torsions:
REMARK  status: ('A' for Active; 'I' for Inactive)
REMARK    1  A    between atoms: C_1  and  C_2
REMARK    2  A    between atoms: C_2  and  N_3
REMARK    3  A    between atoms: C_5  and  C_6
REMARK    4  A    between atoms: C_6  and  O_8
REMARK    5  A    between atoms: O_8  and  C_9
REMARK    6  A    between atoms: C_9  and  C_10
REMARK    7  A    between atoms: C_22  and  C_23
REMARK                            x       y       z     vdW  Elec       q    Type
REMARK                         _______ _______ _______ _____ _____    ______ ____
ROOT
ATOM      1  N   UNL     1       6.705   5.802  17.489  0.00  0.00    +0.000 N 
ATOM      2  C   UNL     1       5.798   5.511  18.495  0.00  0.00    +0.000 A 
ATOM      3  C   UNL     1       4.769   4.651  18.398  0.00  0.00    +0.000 A 
ATOM      4  C   UNL     1       4.626   3.923  17.115  0.00  0.00    +0.000 A 
ATOM      5  O   UNL     1       3.834   2.999  16.959  0.00  0.00    +0.000 OA
ATOM      6  C   UNL     1       5.509   4.312  15.997  0.00  0.00    +0.000 A 
ATOM      7  C   UNL     1       5.332   3.736  14.736  0.00  0.00    +0.000 A 
ATOM      8  C   UNL     1       6.186   4.091  13.705  0.00  0.00    +0.000 A 
ATOM      9  C   UNL     1       7.193   5.011  13.966  0.00  0.00    +0.000 A 
ATOM     10  C   UNL     1       8.174   5.392  12.900  0.00  0.00    +0.000 C 
ATOM     11  N   UNL     1       7.371   5.575  15.188  0.00  0.00    +0.000 NA
ATOM     12  C   UNL     1       6.538   5.234  16.203  0.00  0.00    +0.000 A 
ENDROOT
BRANCH   1  14
ATOM     13  C   UNL     1       7.389   8.176  17.593  0.00  0.00    +0.000 C 
ATOM     14  C   UNL     1       7.837   6.722  17.647  0.00  0.00    +0.000 C 
ENDBRANCH   1  14
BRANCH   3  15
ATOM     15  C   UNL     1       3.876   4.461  19.561  0.00  0.00    +0.000 C 
ATOM     16  O   UNL     1       3.529   3.365  19.979  0.00  0.00    +0.000 OA
BRANCH  15  17
ATOM     17  O   UNL     1       3.541   5.656  20.096  0.00  0.00    +0.000 OA
BRANCH  17  18
ATOM     18  C   UNL     1       2.148   5.963  20.205  0.00  0.00    +0.000 C 
BRANCH  18  19
ATOM     19  C   UNL     1       1.902   7.351  19.660  0.00  0.00    +0.000 A 
ATOM     20  C   UNL     1       1.254   8.322  20.440  0.00  0.00    +0.000 A 
ATOM     21  C   UNL     1       1.057   9.611  19.942  0.00  0.00    +0.000 A 
ATOM     22  C   UNL     1       1.504   9.929  18.665  0.00  0.00    +0.000 A 
ATOM     23  F   UNL     1       1.322  11.168  18.190  0.00  0.00    +0.000 F 
ATOM     24  C   UNL     1       2.140   8.980  17.874  0.00  0.00    +0.000 A 
ATOM     25  C   UNL     1       2.338   7.690  18.369  0.00  0.00    +0.000 A 
ENDBRANCH  18  19
ENDBRANCH  17  18
ENDBRANCH  15  17
ENDBRANCH   3  15
TORSDOF 5
ENDMDL
MODEL 3
REMARK VINA RESULT:      -7.8      1.107      1.469
REMARK  Name = 
REMARK  7 active torsions:
REMARK  status: ('A' for Active; 'I' for Inactive)
REMARK    1  A    between atoms: C_1  and  C_2
REMARK    2  A    between atoms: C_2  and  N_3
REMARK    3  A    between atoms: C_5  and  C_6
REMARK    4  A    between atoms: C_6  and  O_8
REMARK    5  A    between atoms: O_8  and  C_9
REMARK    6  A    between atoms: C_9  and  C_10
REMARK    7  A    between atoms: C_22  and  C_23
REMARK                            x       y       z     vdW  Elec       q    Type
REMARK                         _______ _______ _______ _____ _____    ______ ____
ROOT
ATOM      1  N   UNL     1       3.540   6.411  18.109  0.00  0.00    +0.000 N 
ATOM      2  C   UNL     1       4.773   6.885  17.691  0.00  0.00    +0.000 A 
ATOM      3  C   UNL     1       5.757   6.143  17.154  0.00  0.00    +0.000 A 
ATOM      4  C   UNL     1       5.474   4.701  16.957  0.00  0.00    +0.000 A 
ATOM      5  O   UNL     1       6.221   3.955  16.331  0.00  0.00    +0.000 OA
ATOM      6  C   UNL     1       4.214   4.161  17.508  0.00  0.00    +0.000 A 
ATOM      7  C   UNL     1       3.959   2.789  17.449  0.00  0.00    +0.000 A 
ATOM      8  C   UNL     1       2.761   2.303  17.947  0.00  0.00    +0.000 A 
ATOM      9  C   UNL     1       1.853   3.205  18.487  0.00  0.00    +0.000 A 
ATOM     10  C   UNL     1       0.523   2.737  18.993  0.00  0.00    +0.000 C 
ATOM     11  N   UNL     1       2.094   4.539  18.548  0.00  0.00    +0.000 NA
ATOM     12  C   UNL     1       3.265   5.023  18.064  0.00  0.00    +0.000 A 
ENDROOT
BRANCH   1  14
ATOM     13  C   UNL     1       2.211   8.470  17.771  0.00  0.00    +0.000 C 
ATOM     14  C   UNL     1       2.478   7.262  18.659  0.00  0.00    +0.000 C 
ENDBRANCH   1  14
BRANCH   3  15
ATOM     15  C   UNL     1       7.026   6.797  16.771  0.00  0.00    +0.000 C 
ATOM     16  O   UNL     1       7.803   6.339  15.943  0.00  0.00    +0.000 OA
BRANCH  15  17
ATOM     17  O   UNL     1       7.173   7.963  17.437  0.00  0.00    +0.000 OA
BRANCH  17  18
ATOM     18  C   UNL     1       8.277   8.073  18.340  0.00  0.00    +0.000 C 
BRANCH  18  19
ATOM     19  C   UNL     1       8.645   9.530  18.499  0.00  0.00    +0.000 A 
ATOM     20  C   UNL     1       8.222  10.482  17.557  0.00  0.00    +0.000 A 
ATOM     21  C   UNL     1       8.540  11.831  17.726  0.00  0.00    +0.000 A 
ATOM     22  C   UNL     1       9.281  12.228  18.832  0.00  0.00    +0.000 A 
ATOM     23  F   UNL     1       9.580  13.523  18.998  0.00  0.00    +0.000 F 
ATOM     24  C   UNL     1       9.717  11.300  19.770  0.00  0.00    +0.000 A 
ATOM     25  C   UNL     1       9.401   9.950  19.604  0.00  0.00    +0.000 A 
ENDBRANCH  18  19
ENDBRANCH  17  18
ENDBRANCH  15  17
ENDBRANCH   3  15
TORSDOF 5
ENDMDL
MODEL 4
REMARK VINA RESULT:      -7.7      3.775      6.496
REMARK  Name = 
REMARK  7 active torsions:
REMARK  status: ('A' for Active; 'I' for Inactive)
REMARK    1  A    between atoms: C_1  and  C_2
REMARK    2  A    between atoms: C_2  and  N_3
REMARK    3  A    between atoms: C_5  and  C_6
REMARK    4  A    between atoms: C_6  and  O_8
REMARK    5  A    between atoms: O_8  and  C_9
REMARK    6  A    between atoms: C_9  and  C_10
REMARK    7  A    between atoms: C_22  and  C_23
REMARK                            x       y       z     vdW  Elec       q    Type
REMARK                         _______ _______ _______ _____ _____    ______ ____
ROOT
ATOM      1  N   UNL     1       6.623   4.778  18.019  0.00  0.00    +0.000 N 
ATOM      2  C   UNL     1       5.658   4.490  18.972  0.00  0.00    +0.000 A 
ATOM      3  C   UNL     1       4.431   4.003  18.722  0.00  0.00    +0.000 A 
ATOM      4  C   UNL     1       4.103   3.711  17.305  0.00  0.00    +0.000 A 
ATOM      5  O   UNL     1       3.085   3.115  16.966  0.00  0.00    +0.000 OA
ATOM      6  C   UNL     1       5.073   4.127  16.272  0.00  0.00    +0.000 A 
ATOM      7  C   UNL     1       4.756   3.978  14.919  0.00  0.00    +0.000 A 
ATOM      8  C   UNL     1       5.687   4.348  13.962  0.00  0.00    +0.000 A 
ATOM      9  C   UNL     1       6.910   4.853  14.388  0.00  0.00    +0.000 A 
ATOM     10  C   UNL     1       7.970   5.220  13.396  0.00  0.00    +0.000 C 
ATOM     11  N   UNL     1       7.225   5.000  15.700  0.00  0.00    +0.000 NA
ATOM     12  C   UNL     1       6.318   4.642  16.643  0.00  0.00    +0.000 A 
ENDROOT
BRANCH   1  14
ATOM     13  C   UNL     1       7.953   6.771  18.632  0.00  0.00    +0.000 C 
ATOM     14  C   UNL     1       7.966   5.277  18.336  0.00  0.00    +0.000 C 
ENDBRANCH   1  14
BRANCH   3  15
ATOM     15  C   UNL     1       3.507   3.762  19.851  0.00  0.00    +0.000 C 
ATOM     16  O   UNL     1       3.070   2.658  20.146  0.00  0.00    +0.000 OA
BRANCH  15  17
ATOM     17  O   UNL     1       3.256   4.916  20.506  0.00  0.00    +0.000 OA
BRANCH  17  18
ATOM     18  C   UNL     1       1.912   5.407  20.487  0.00  0.00    +0.000 C 
BRANCH  18  19
ATOM     19  C   UNL     1       1.890   6.766  19.829  0.00  0.00    +0.000 A 
ATOM     20  C   UNL     1       2.369   6.936  18.520  0.00  0.00    +0.000 A 
ATOM     21  C   UNL     1       2.317   8.189  17.906  0.00  0.00    +0.000 A 
ATOM     22  C   UNL     1       1.792   9.272  18.601  0.00  0.00    +0.000 A 
ATOM     23  F   UNL     1       1.736  10.473  18.010  0.00  0.00    +0.000 F 
ATOM     24  C   UNL     1       1.322   9.127  19.900  0.00  0.00    +0.000 A 
ATOM     25  C   UNL     1       1.372   7.875  20.517  0.00  0.00    +0.000 A 
ENDBRANCH  18  19
ENDBRANCH  17  18
ENDBRANCH  15  17
ENDBRANCH   3  15
TORSDOF 5
ENDMDL
MODEL 5
REMARK VINA RESULT:      -7.7      3.860      5.604
REMARK  Name = 
REMARK  7 active torsions:
REMARK  status: ('A' for Active; 'I' for Inactive)
REMARK    1  A    between atoms: C_1  and  C_2
REMARK    2  A    between atoms: C_2  and  N_3
REMARK    3  A    between atoms: C_5  and  C_6
REMARK    4  A    between atoms: C_6  and  O_8
REMARK    5  A    between atoms: O_8  and  C_9
REMARK    6  A    between atoms: C_9  and  C_10
REMARK    7  A    between atoms: C_22  and  C_23
REMARK                            x       y       z     vdW  Elec       q    Type
REMARK                         _______ _______ _______ _____ _____    ______ ____
ROOT
ATOM      1  N   UNL     1       3.462   6.317  17.966  0.00  0.00    +0.000 N 
ATOM      2  C   UNL     1       4.707   6.765  17.553  0.00  0.00    +0.000 A 
ATOM      3  C   UNL     1       5.877   6.141  17.774  0.00  0.00    +0.000 A 
ATOM      4  C   UNL     1       5.817   4.841  18.485  0.00  0.00    +0.000 A 
ATOM      5  O   UNL     1       6.789   4.101  18.602  0.00  0.00    +0.000 OA
ATOM      6  C   UNL     1       4.515   4.413  19.036  0.00  0.00    +0.000 A 
ATOM      7  C   UNL     1       4.434   3.255  19.813  0.00  0.00    +0.000 A 
ATOM      8  C   UNL     1       3.201   2.853  20.300  0.00  0.00    +0.000 A 
ATOM      9  C   UNL     1       2.085   3.622  19.993  0.00  0.00    +0.000 A 
ATOM     10  C   UNL     1       0.722   3.204  20.453  0.00  0.00    +0.000 C 
ATOM     11  N   UNL     1       2.156   4.748  19.240  0.00  0.00    +0.000 NA
ATOM     12  C   UNL     1       3.360   5.149  18.760  0.00  0.00    +0.000 A 
ENDROOT
BRANCH   1  14
ATOM     13  C   UNL     1       2.231   8.453  18.161  0.00  0.00    +0.000 C 
ATOM     14  C   UNL     1       2.202   7.011  17.673  0.00  0.00    +0.000 C 
ENDBRANCH   1  14
BRANCH   3  15
ATOM     15  C   UNL     1       7.127   6.757  17.281  0.00  0.00    +0.000 C 
ATOM     16  O   UNL     1       7.863   7.447  17.973  0.00  0.00    +0.000 OA
BRANCH  15  17
ATOM     17  O   UNL     1       7.339   6.419  15.990  0.00  0.00    +0.000 OA
BRANCH  17  18
ATOM     18  C   UNL     1       7.701   5.062  15.715  0.00  0.00    +0.000 C 
BRANCH  18  19
ATOM     19  C   UNL     1       6.927   4.577  14.511  0.00  0.00    +0.000 A 
ATOM     20  C   UNL     1       7.515   4.574  13.236  0.00  0.00    +0.000 A 
ATOM     21  C   UNL     1       6.804   4.096  12.133  0.00  0.00    +0.000 A 
ATOM     22  C   UNL     1       5.507   3.626  12.303  0.00  0.00    +0.000 A 
ATOM     23  F   UNL     1       4.828   3.161  11.247  0.00  0.00    +0.000 F 
ATOM     24  C   UNL     1       4.905   3.630  13.556  0.00  0.00    +0.000 A 
ATOM     25  C   UNL     1       5.613   4.107  14.660  0.00  0.00    +0.000 A 
ENDBRANCH  18  19
ENDBRANCH  17  18
ENDBRANCH  15  17
ENDBRANCH   3  15
TORSDOF 5
ENDMDL
MODEL 6
REMARK VINA RESULT:      -7.7      3.541      6.513
REMARK  Name = 
REMARK  7 active torsions:
REMARK  status: ('A' for Active; 'I' for Inactive)
REMARK    1  A    between atoms: C_1  and  C_2
REMARK    2  A    between atoms: C_2  and  N_3
REMARK    3  A    between atoms: C_5  and  C_6
REMARK    4  A    between atoms: C_6  and  O_8
REMARK    5  A    between atoms: O_8  and  C_9
REMARK    6  A    between atoms: C_9  and  C_10
REMARK    7  A    between atoms: C_22  and  C_23
REMARK                            x       y       z     vdW  Elec       q    Type
REMARK                         _______ _______ _______ _____ _____    ______ ____
ROOT
ATOM      1  N   UNL     1       6.666   6.050  17.443  0.00  0.00    +0.000 N 
ATOM      2  C   UNL     1       5.693   5.868  18.413  0.00  0.00    +0.000 A 
ATOM      3  C   UNL     1       4.608   5.083  18.296  0.00  0.00    +0.000 A 
ATOM      4  C   UNL     1       4.469   4.318  17.034  0.00  0.00    +0.000 A 
ATOM      5  O   UNL     1       3.617   3.449  16.872  0.00  0.00    +0.000 OA
ATOM      6  C   UNL     1       5.430   4.596  15.947  0.00  0.00    +0.000 A 
ATOM      7  C   UNL     1       5.268   3.986  14.701  0.00  0.00    +0.000 A 
ATOM      8  C   UNL     1       6.193   4.237  13.700  0.00  0.00    +0.000 A 
ATOM      9  C   UNL     1       7.254   5.090  13.978  0.00  0.00    +0.000 A 
ATOM     10  C   UNL     1       8.309   5.355  12.948  0.00  0.00    +0.000 C 
ATOM     11  N   UNL     1       7.418   5.686  15.186  0.00  0.00    +0.000 NA
ATOM     12  C   UNL     1       6.516   5.447  16.171  0.00  0.00    +0.000 A 
ENDROOT
BRANCH   1  14
ATOM     13  C   UNL     1       7.498   8.370  17.656  0.00  0.00    +0.000 C 
ATOM     14  C   UNL     1       7.856   6.890  17.623  0.00  0.00    +0.000 C 
ENDBRANCH   1  14
BRANCH   3  15
ATOM     15  C   UNL     1       3.651   5.005  19.420  0.00  0.00    +0.000 C 
ATOM     16  O   UNL     1       3.421   3.979  20.047  0.00  0.00    +0.000 OA
BRANCH  15  17
ATOM     17  O   UNL     1       3.109   6.219  19.661  0.00  0.00    +0.000 OA
BRANCH  17  18
ATOM     18  C   UNL     1       2.502   6.900  18.558  0.00  0.00    +0.000 C 
BRANCH  18  19
ATOM     19  C   UNL     1       1.863   8.176  19.055  0.00  0.00    +0.000 A 
ATOM     20  C   UNL     1       1.612   9.241  18.176  0.00  0.00    +0.000 A 
ATOM     21  C   UNL     1       0.993  10.405  18.636  0.00  0.00    +0.000 A 
ATOM     22  C   UNL     1       0.630  10.507  19.973  0.00  0.00    +0.000 A 
ATOM     23  F   UNL     1       0.030  11.621  20.413  0.00  0.00    +0.000 F 
ATOM     24  C   UNL     1       0.879   9.468  20.862  0.00  0.00    +0.000 A 
ATOM     25  C   UNL     1       1.498   8.303  20.405  0.00  0.00    +0.000 A 
ENDBRANCH  18  19
ENDBRANCH  17  18
ENDBRANCH  15  17
ENDBRANCH   3  15
TORSDOF 5
ENDMDL
MODEL 7
REMARK VINA RESULT:      -7.6      3.501      6.934
REMARK  Name = 
REMARK  7 active torsions:
REMARK  status: ('A' for Active; 'I' for Inactive)
REMARK    1  A    between atoms: C_1  and  C_2
REMARK    2  A    between atoms: C_2  and  N_3
REMARK    3  A    between atoms: C_5  and  C_6
REMARK    4  A    between atoms: C_6  and  O_8
REMARK    5  A    between atoms: O_8  and  C_9
REMARK    6  A    between atoms: C_9  and  C_10
REMARK    7  A    between atoms: C_22  and  C_23
REMARK                            x       y       z     vdW  Elec       q    Type
REMARK                         _______ _______ _______ _____ _____    ______ ____
ROOT
ATOM      1  N   UNL     1       5.182   4.695  16.209  0.00  0.00    +0.000 N 
ATOM      2  C   UNL     1       4.426   3.582  16.539  0.00  0.00    +0.000 A 
ATOM      3  C   UNL     1       4.317   3.044  17.766  0.00  0.00    +0.000 A 
ATOM      4  C   UNL     1       5.038   3.733  18.864  0.00  0.00    +0.000 A 
ATOM      5  O   UNL     1       4.887   3.440  20.046  0.00  0.00    +0.000 OA
ATOM      6  C   UNL     1       5.943   4.844  18.506  0.00  0.00    +0.000 A 
ATOM      7  C   UNL     1       6.731   5.444  19.491  0.00  0.00    +0.000 A 
ATOM      8  C   UNL     1       7.555   6.503  19.144  0.00  0.00    +0.000 A 
ATOM      9  C   UNL     1       7.564   6.930  17.822  0.00  0.00    +0.000 A 
ATOM     10  C   UNL     1       8.399   8.102  17.405  0.00  0.00    +0.000 C 
ATOM     11  N   UNL     1       6.802   6.351  16.860  0.00  0.00    +0.000 NA
ATOM     12  C   UNL     1       5.993   5.313  17.191  0.00  0.00    +0.000 A 
ENDROOT
BRANCH   1  14
ATOM     13  C   UNL     1       5.989   4.359  13.895  0.00  0.00    +0.000 C 
ATOM     14  C   UNL     1       5.247   5.273  14.861  0.00  0.00    +0.000 C 
ENDBRANCH   1  14
BRANCH   3  15
ATOM     15  C   UNL     1       3.478   1.841  17.954  0.00  0.00    +0.000 C 
ATOM     16  O   UNL     1       3.884   0.803  18.460  0.00  0.00    +0.000 OA
BRANCH  15  17
ATOM     17  O   UNL     1       2.219   2.074  17.522  0.00  0.00    +0.000 OA
BRANCH  17  18
ATOM     18  C   UNL     1       1.246   2.454  18.500  0.00  0.00    +0.000 C 
BRANCH  18  19
ATOM     19  C   UNL     1       1.514   3.875  18.939  0.00  0.00    +0.000 A 
ATOM     20  C   UNL     1       1.561   4.206  20.303  0.00  0.00    +0.000 A 
ATOM     21  C   UNL     1       1.839   5.515  20.701  0.00  0.00    +0.000 A 
ATOM     22  C   UNL     1       2.066   6.492  19.740  0.00  0.00    +0.000 A 
ATOM     23  F   UNL     1       2.340   7.746  20.122  0.00  0.00    +0.000 F 
ATOM     24  C   UNL     1       2.015   6.186  18.385  0.00  0.00    +0.000 A 
ATOM     25  C   UNL     1       1.737   4.879  17.983  0.00  0.00    +0.000 A 
ENDBRANCH  18  19
ENDBRANCH  17  18
ENDBRANCH  15  17
ENDBRANCH   3  15
TORSDOF 5
ENDMDL
MODEL 8
REMARK VINA RESULT:      -7.6      1.024      1.362
REMARK  Name = 
REMARK  7 active torsions:
REMARK  status: ('A' for Active; 'I' for Inactive)
REMARK    1  A    between atoms: C_1  and  C_2
REMARK    2  A    between atoms: C_2  and  N_3
REMARK    3  A    between atoms: C_5  and  C_6
REMARK    4  A    between atoms: C_6  and  O_8
REMARK    5  A    between atoms: O_8  and  C_9
REMARK    6  A    between atoms: C_9  and  C_10
REMARK    7  A    between atoms: C_22  and  C_23
REMARK                            x       y       z     vdW  Elec       q    Type
REMARK                         _______ _______ _______ _____ _____    ______ ____
ROOT
ATOM      1  N   UNL     1       3.812   6.645  17.813  0.00  0.00    +0.000 N 
ATOM      2  C   UNL     1       5.074   7.099  17.464  0.00  0.00    +0.000 A 
ATOM      3  C   UNL     1       6.233   6.471  17.727  0.00  0.00    +0.000 A 
ATOM      4  C   UNL     1       6.142   5.160  18.413  0.00  0.00    +0.000 A 
ATOM      5  O   UNL     1       7.108   4.418  18.562  0.00  0.00    +0.000 OA
ATOM      6  C   UNL     1       4.817   4.724  18.899  0.00  0.00    +0.000 A 
ATOM      7  C   UNL     1       4.702   3.553  19.652  0.00  0.00    +0.000 A 
ATOM      8  C   UNL     1       3.448   3.144  20.077  0.00  0.00    +0.000 A 
ATOM      9  C   UNL     1       2.347   3.918  19.733  0.00  0.00    +0.000 A 
ATOM     10  C   UNL     1       0.965   3.494  20.125  0.00  0.00    +0.000 C 
ATOM     11  N   UNL     1       2.451   5.056  19.002  0.00  0.00    +0.000 NA
ATOM     12  C   UNL     1       3.675   5.465  18.583  0.00  0.00    +0.000 A 
ENDROOT
BRANCH   1  14
ATOM     13  C   UNL     1       2.491   8.709  18.147  0.00  0.00    +0.000 C 
ATOM     14  C   UNL     1       2.567   7.345  17.476  0.00  0.00    +0.000 C 
ENDBRANCH   1  14
BRANCH   3  15
ATOM     15  C   UNL     1       7.504   7.095  17.300  0.00  0.00    +0.000 C 
ATOM     16  O   UNL     1       8.081   6.816  16.258  0.00  0.00    +0.000 OA
BRANCH  15  17
ATOM     17  O   UNL     1       7.899   8.021  18.202  0.00  0.00    +0.000 OA
BRANCH  17  18
ATOM     18  C   UNL     1       7.805   9.396  17.819  0.00  0.00    +0.000 C 
BRANCH  18  19
ATOM     19  C   UNL     1       8.944  10.164  18.448  0.00  0.00    +0.000 A 
ATOM     20  C   UNL     1       9.879  10.841  17.648  0.00  0.00    +0.000 A 
ATOM     21  C   UNL     1      10.912  11.574  18.237  0.00  0.00    +0.000 A 
ATOM     22  C   UNL     1      11.013  11.627  19.621  0.00  0.00    +0.000 A 
ATOM     23  F   UNL     1      11.999  12.336  20.186  0.00  0.00    +0.000 F 
ATOM     24  C   UNL     1      10.103  10.956  20.430  0.00  0.00    +0.000 A 
ATOM     25  C   UNL     1       9.070  10.222  19.845  0.00  0.00    +0.000 A 
ENDBRANCH  18  19
ENDBRANCH  17  18
ENDBRANCH  15  17
ENDBRANCH   3  15
TORSDOF 5
ENDMDL
MODEL 9
REMARK VINA RESULT:      -7.6      4.916      7.728
REMARK  Name = 
REMARK  7 active torsions:
REMARK  status: ('A' for Active; 'I' for Inactive)
REMARK    1  A    between atoms: C_1  and  C_2
REMARK    2  A    between atoms: C_2  and  N_3
REMARK    3  A    between atoms: C_5  and  C_6
REMARK    4  A    between atoms: C_6  and  O_8
REMARK    5  A    between atoms: O_8  and  C_9
REMARK    6  A    between atoms: C_9  and  C_10
REMARK    7  A    between atoms: C_22  and  C_23
REMARK                            x       y       z     vdW  Elec       q    Type
REMARK                         _______ _______ _______ _____ _____    ______ ____
ROOT
ATOM      1  N   UNL     1       3.849   6.465  17.612  0.00  0.00    +0.000 N 
ATOM      2  C   UNL     1       3.274   7.720  17.488  0.00  0.00    +0.000 A 
ATOM      3  C   UNL     1       2.391   8.265  18.342  0.00  0.00    +0.000 A 
ATOM      4  C   UNL     1       2.039   7.465  19.540  0.00  0.00    +0.000 A 
ATOM      5  O   UNL     1       1.376   7.915  20.470  0.00  0.00    +0.000 OA
ATOM      6  C   UNL     1       2.548   6.081  19.622  0.00  0.00    +0.000 A 
ATOM      7  C   UNL     1       2.147   5.252  20.672  0.00  0.00    +0.000 A 
ATOM      8  C   UNL     1       2.655   3.965  20.749  0.00  0.00    +0.000 A 
ATOM      9  C   UNL     1       3.551   3.547  19.772  0.00  0.00    +0.000 A 
ATOM     10  C   UNL     1       4.167   2.184  19.837  0.00  0.00    +0.000 C 
ATOM     11  N   UNL     1       3.944   4.347  18.749  0.00  0.00    +0.000 NA
ATOM     12  C   UNL     1       3.450   5.608  18.666  0.00  0.00    +0.000 A 
ENDROOT
BRANCH   1  14
ATOM     13  C   UNL     1       6.209   6.550  16.877  0.00  0.00    +0.000 C 
ATOM     14  C   UNL     1       4.837   5.920  16.674  0.00  0.00    +0.000 C 
ENDBRANCH   1  14
BRANCH   3  15
ATOM     15  C   UNL     1       1.854   9.614  18.062  0.00  0.00    +0.000 C 
ATOM     16  O   UNL     1       2.553  10.611  17.940  0.00  0.00    +0.000 OA
BRANCH  15  17
ATOM     17  O   UNL     1       0.510   9.567  17.931  0.00  0.00    +0.000 OA
BRANCH  17  18
ATOM     18  C   UNL     1      -0.267  10.398  18.798  0.00  0.00    +0.000 C 
BRANCH  18  19
ATOM     19  C   UNL     1      -1.627  10.623  18.181  0.00  0.00    +0.000 A 
ATOM     20  C   UNL     1      -2.544  11.507  18.772  0.00  0.00    +0.000 A 
ATOM     21  C   UNL     1      -3.789  11.733  18.180  0.00  0.00    +0.000 A 
ATOM     22  C   UNL     1      -4.118  11.074  17.002  0.00  0.00    +0.000 A 
ATOM     23  F   UNL     1      -5.308  11.296  16.430  0.00  0.00    +0.000 F 
ATOM     24  C   UNL     1      -3.228  10.188  16.406  0.00  0.00    +0.000 A 
ATOM     25  C   UNL     1      -1.983   9.960  16.996  0.00  0.00    +0.000 A 
ENDBRANCH  18  19
ENDBRANCH  17  18
ENDBRANCH  15  17
ENDBRANCH   3  15
TORSDOF 5
ENDMDL
