MODEL 1
REMARK VINA RESULT:      -8.1      0.000      0.000
REMARK  Name = 
REMARK  6 active torsions:
REMARK  status: ('A' for Active; 'I' for Inactive)
REMARK    1  A    between atoms: C_2  and  C_3
REMARK    2  A    between atoms: C_4  and  C_5
REMARK    3  A    between atoms: C_8  and  O_9
REMARK    4  A    between atoms: C_10  and  O_11
REMARK    5  A    between atoms: N_13  and  C_14
REMARK    6  A    between atoms: C_17  and  N_18
REMARK                            x       y       z     vdW  Elec       q    Type
REMARK                         _______ _______ _______ _____ _____    ______ ____
ROOT
ATOM      1  O   UNL     1       8.001   6.802  18.612  0.00  0.00    +0.000 OA
ATOM      2  C   UNL     1       7.560   7.588  17.783  0.00  0.00    +0.000 C 
ATOM      3  N   UNL     1       6.483   7.377  16.942  0.00  0.00    +0.000 N 
ATOM      4  H   UNL     1       6.322   8.047  16.203  0.00  0.00    +0.000 HD
ENDROOT
BRANCH   3   5
ATOM      5  C   UNL     1       5.586   6.286  17.003  0.00  0.00    +0.000 A 
ATOM      6  C   UNL     1       5.861   5.038  16.432  0.00  0.00    +0.000 A 
ATOM      7  C   UNL     1       4.966   3.973  16.566  0.00  0.00    +0.000 A 
ATOM      8  C   UNL     1       3.778   4.156  17.275  0.00  0.00    +0.000 A 
ATOM      9  C   UNL     1       3.477   5.402  17.839  0.00  0.00    +0.000 A 
ATOM     10  C   UNL     1       4.387   6.459  17.708  0.00  0.00    +0.000 A 
BRANCH   8  11
ATOM     11  N   UNL     1       2.854   3.028  17.443  0.00  0.00    +0.000 N 
ATOM     12  O   UNL     1       3.332   1.927  17.744  0.00  0.00    +0.000 OA
ATOM     13  O   UNL     1       1.643   3.249  17.284  0.00  0.00    +0.000 OA
ENDBRANCH   8  11
ENDBRANCH   3   5
BRANCH   2  14
ATOM     14  C   UNL     1       8.197   8.918  17.581  0.00  0.00    +0.000 C 
ATOM     15  C   UNL     1       8.755   9.539  18.634  0.00  0.00    +0.000 C 
BRANCH  15  16
ATOM     16  C   UNL     1       9.399  10.861  18.594  0.00  0.00    +0.000 A 
ATOM     17  C   UNL     1      10.679  11.094  19.127  0.00  0.00    +0.000 A 
ATOM     18  C   UNL     1      11.270  12.360  19.056  0.00  0.00    +0.000 A 
ATOM     19  C   UNL     1      10.584  13.394  18.435  0.00  0.00    +0.000 A 
ATOM     20  C   UNL     1       9.329  13.167  17.881  0.00  0.00    +0.000 A 
ATOM     21  C   UNL     1       8.735  11.913  17.948  0.00  0.00    +0.000 A 
BRANCH  19  22
ATOM     22  O   UNL     1      11.106  14.653  18.336  0.00  0.00    +0.000 OA
ATOM     23  H   UNL     1      10.559  15.252  18.873  0.00  0.00    +0.000 HD
ENDBRANCH  19  22
BRANCH  20  24
ATOM     24  O   UNL     1       8.665  14.186  17.259  0.00  0.00    +0.000 OA
ATOM     25  H   UNL     1       8.492  13.852  16.356  0.00  0.00    +0.000 HD
ENDBRANCH  20  24
ENDBRANCH  15  16
ENDBRANCH   2  14
TORSDOF 6
ENDMDL
MODEL 2
REMARK VINA RESULT:      -7.9      0.371      1.276
REMARK  Name = 
REMARK  6 active torsions:
REMARK  status: ('A' for Active; 'I' for Inactive)
REMARK    1  A    between atoms: C_2  and  C_3
REMARK    2  A    between atoms: C_4  and  C_5
REMARK    3  A    between atoms: C_8  and  O_9
REMARK    4  A    between atoms: C_10  and  O_11
REMARK    5  A    between atoms: N_13  and  C_14
REMARK    6  A    between atoms: C_17  and  N_18
REMARK                            x       y       z     vdW  Elec       q    Type
REMARK                         _______ _______ _______ _____ _____    ______ ____
ROOT
ATOM      1  O   UNL     1       7.944   6.764  18.644  0.00  0.00    +0.000 OA
ATOM      2  C   UNL     1       7.523   7.531  17.787  0.00  0.00    +0.000 C 
ATOM      3  N   UNL     1       6.390   7.355  17.013  0.00  0.00    +0.000 N 
ATOM      4  H   UNL     1       6.242   7.990  16.241  0.00  0.00    +0.000 HD
ENDROOT
BRANCH   3   5
ATOM      5  C   UNL     1       5.417   6.345  17.187  0.00  0.00    +0.000 A 
ATOM      6  C   UNL     1       4.268   6.518  17.969  0.00  0.00    +0.000 A 
ATOM      7  C   UNL     1       3.306   5.509  18.067  0.00  0.00    +0.000 A 
ATOM      8  C   UNL     1       3.494   4.309  17.379  0.00  0.00    +0.000 A 
ATOM      9  C   UNL     1       4.644   4.110  16.606  0.00  0.00    +0.000 A 
ATOM     10  C   UNL     1       5.597   5.133  16.506  0.00  0.00    +0.000 A 
BRANCH   8  11
ATOM     11  N   UNL     1       2.468   3.262  17.456  0.00  0.00    +0.000 N 
ATOM     12  O   UNL     1       1.281   3.608  17.386  0.00  0.00    +0.000 OA
ATOM     13  O   UNL     1       2.852   2.089  17.576  0.00  0.00    +0.000 OA
ENDBRANCH   8  11
ENDBRANCH   3   5
BRANCH   2  14
ATOM     14  C   UNL     1       8.247   8.791  17.471  0.00  0.00    +0.000 C 
ATOM     15  C   UNL     1       8.659   9.577  18.480  0.00  0.00    +0.000 C 
BRANCH  15  16
ATOM     16  C   UNL     1       9.365  10.858  18.323  0.00  0.00    +0.000 A 
ATOM     17  C   UNL     1      10.748  10.988  18.535  0.00  0.00    +0.000 A 
ATOM     18  C   UNL     1      11.392  12.218  18.359  0.00  0.00    +0.000 A 
ATOM     19  C   UNL     1      10.650  13.319  17.955  0.00  0.00    +0.000 A 
ATOM     20  C   UNL     1       9.286  13.194  17.717  0.00  0.00    +0.000 A 
ATOM     21  C   UNL     1       8.639  11.976  17.890  0.00  0.00    +0.000 A 
BRANCH  19  22
ATOM     22  O   UNL     1      11.220  14.547  17.769  0.00  0.00    +0.000 OA
ATOM     23  H   UNL     1      11.345  14.959  18.642  0.00  0.00    +0.000 HD
ENDBRANCH  19  22
BRANCH  20  24
ATOM     24  O   UNL     1       8.564  14.279  17.306  0.00  0.00    +0.000 OA
ATOM     25  H   UNL     1       8.530  14.862  18.090  0.00  0.00    +0.000 HD
ENDBRANCH  20  24
ENDBRANCH  15  16
ENDBRANCH   2  14
TORSDOF 6
ENDMDL
MODEL 3
REMARK VINA RESULT:      -7.8      1.339      1.466
REMARK  Name = 
REMARK  6 active torsions:
REMARK  status: ('A' for Active; 'I' for Inactive)
REMARK    1  A    between atoms: C_2  and  C_3
REMARK    2  A    between atoms: C_4  and  C_5
REMARK    3  A    between atoms: C_8  and  O_9
REMARK    4  A    between atoms: C_10  and  O_11
REMARK    5  A    between atoms: N_13  and  C_14
REMARK    6  A    between atoms: C_17  and  N_18
REMARK                            x       y       z     vdW  Elec       q    Type
REMARK                         _______ _______ _______ _____ _____    ______ ____
ROOT
ATOM      1  O   UNL     1       7.799   6.384  16.505  0.00  0.00    +0.000 OA
ATOM      2  C   UNL     1       7.202   7.195  17.201  0.00  0.00    +0.000 C 
ATOM      3  N   UNL     1       6.008   6.985  17.866  0.00  0.00    +0.000 N 
ATOM      4  H   UNL     1       5.551   7.786  18.281  0.00  0.00    +0.000 HD
ENDROOT
BRANCH   3   5
ATOM      5  C   UNL     1       5.345   5.745  18.006  0.00  0.00    +0.000 A 
ATOM      6  C   UNL     1       5.486   4.926  19.133  0.00  0.00    +0.000 A 
ATOM      7  C   UNL     1       4.766   3.733  19.250  0.00  0.00    +0.000 A 
ATOM      8  C   UNL     1       3.898   3.349  18.227  0.00  0.00    +0.000 A 
ATOM      9  C   UNL     1       3.756   4.146  17.084  0.00  0.00    +0.000 A 
ATOM     10  C   UNL     1       4.474   5.345  16.983  0.00  0.00    +0.000 A 
BRANCH   8  11
ATOM     11  N   UNL     1       3.118   2.113  18.365  0.00  0.00    +0.000 N 
ATOM     12  O   UNL     1       3.734   1.060  18.575  0.00  0.00    +0.000 OA
ATOM     13  O   UNL     1       1.884   2.200  18.274  0.00  0.00    +0.000 OA
ENDBRANCH   8  11
ENDBRANCH   3   5
BRANCH   2  14
ATOM     14  C   UNL     1       7.734   8.571  17.392  0.00  0.00    +0.000 C 
ATOM     15  C   UNL     1       8.419   8.855  18.513  0.00  0.00    +0.000 C 
BRANCH  15  16
ATOM     16  C   UNL     1       8.984  10.171  18.850  0.00  0.00    +0.000 A 
ATOM     17  C   UNL     1       9.656  10.416  20.060  0.00  0.00    +0.000 A 
ATOM     18  C   UNL     1      10.198  11.675  20.341  0.00  0.00    +0.000 A 
ATOM     19  C   UNL     1      10.080  12.689  19.400  0.00  0.00    +0.000 A 
ATOM     20  C   UNL     1       9.440  12.448  18.189  0.00  0.00    +0.000 A 
ATOM     21  C   UNL     1       8.899  11.201  17.904  0.00  0.00    +0.000 A 
BRANCH  19  22
ATOM     22  O   UNL     1      10.585  13.941  19.617  0.00  0.00    +0.000 OA
ATOM     23  H   UNL     1      11.554  13.874  19.661  0.00  0.00    +0.000 HD
ENDBRANCH  19  22
BRANCH  20  24
ATOM     24  O   UNL     1       9.340  13.447  17.263  0.00  0.00    +0.000 OA
ATOM     25  H   UNL     1      10.225  13.487  16.848  0.00  0.00    +0.000 HD
ENDBRANCH  20  24
ENDBRANCH  15  16
ENDBRANCH   2  14
TORSDOF 6
ENDMDL
MODEL 4
REMARK VINA RESULT:      -7.8      1.669      2.106
REMARK  Name = 
REMARK  6 active torsions:
REMARK  status: ('A' for Active; 'I' for Inactive)
REMARK    1  A    between atoms: C_2  and  C_3
REMARK    2  A    between atoms: C_4  and  C_5
REMARK    3  A    between atoms: C_8  and  O_9
REMARK    4  A    between atoms: C_10  and  O_11
REMARK    5  A    between atoms: N_13  and  C_14
REMARK    6  A    between atoms: C_17  and  N_18
REMARK                            x       y       z     vdW  Elec       q    Type
REMARK                         _______ _______ _______ _____ _____    ______ ____
ROOT
ATOM      1  O   UNL     1       7.848   6.618  16.553  0.00  0.00    +0.000 OA
ATOM      2  C   UNL     1       7.207   7.369  17.278  0.00  0.00    +0.000 C 
ATOM      3  N   UNL     1       6.004   7.085  17.898  0.00  0.00    +0.000 N 
ATOM      4  H   UNL     1       5.511   7.846  18.345  0.00  0.00    +0.000 HD
ENDROOT
BRANCH   3   5
ATOM      5  C   UNL     1       5.378   5.819  17.949  0.00  0.00    +0.000 A 
ATOM      6  C   UNL     1       5.486   4.957  19.047  0.00  0.00    +0.000 A 
ATOM      7  C   UNL     1       4.802   3.738  19.074  0.00  0.00    +0.000 A 
ATOM      8  C   UNL     1       4.005   3.371  17.989  0.00  0.00    +0.000 A 
ATOM      9  C   UNL     1       3.898   4.211  16.875  0.00  0.00    +0.000 A 
ATOM     10  C   UNL     1       4.578   5.436  16.863  0.00  0.00    +0.000 A 
BRANCH   8  11
ATOM     11  N   UNL     1       3.262   2.106  18.032  0.00  0.00    +0.000 N 
ATOM     12  O   UNL     1       2.168   2.055  17.454  0.00  0.00    +0.000 OA
ATOM     13  O   UNL     1       3.782   1.155  18.637  0.00  0.00    +0.000 OA
ENDBRANCH   8  11
ENDBRANCH   3   5
BRANCH   2  14
ATOM     14  C   UNL     1       7.690   8.748  17.562  0.00  0.00    +0.000 C 
ATOM     15  C   UNL     1       8.650   8.925  18.486  0.00  0.00    +0.000 C 
BRANCH  15  16
ATOM     16  C   UNL     1       9.210  10.225  18.886  0.00  0.00    +0.000 A 
ATOM     17  C   UNL     1       9.611  11.195  17.951  0.00  0.00    +0.000 A 
ATOM     18  C   UNL     1      10.124  12.428  18.367  0.00  0.00    +0.000 A 
ATOM     19  C   UNL     1      10.221  12.699  19.725  0.00  0.00    +0.000 A 
ATOM     20  C   UNL     1       9.802  11.756  20.658  0.00  0.00    +0.000 A 
ATOM     21  C   UNL     1       9.293  10.529  20.252  0.00  0.00    +0.000 A 
BRANCH  19  22
ATOM     22  O   UNL     1      10.716  13.883  20.194  0.00  0.00    +0.000 OA
ATOM     23  H   UNL     1      11.608  13.721  20.546  0.00  0.00    +0.000 HD
ENDBRANCH  19  22
BRANCH  20  24
ATOM     24  O   UNL     1       9.887  12.035  21.992  0.00  0.00    +0.000 OA
ATOM     25  H   UNL     1       9.206  11.468  22.406  0.00  0.00    +0.000 HD
ENDBRANCH  20  24
ENDBRANCH  15  16
ENDBRANCH   2  14
TORSDOF 6
ENDMDL
MODEL 5
REMARK VINA RESULT:      -7.8      1.002      1.610
REMARK  Name = 
REMARK  6 active torsions:
REMARK  status: ('A' for Active; 'I' for Inactive)
REMARK    1  A    between atoms: C_2  and  C_3
REMARK    2  A    between atoms: C_4  and  C_5
REMARK    3  A    between atoms: C_8  and  O_9
REMARK    4  A    between atoms: C_10  and  O_11
REMARK    5  A    between atoms: N_13  and  C_14
REMARK    6  A    between atoms: C_17  and  N_18
REMARK                            x       y       z     vdW  Elec       q    Type
REMARK                         _______ _______ _______ _____ _____    ______ ____
ROOT
ATOM      1  O   UNL     1       8.144   6.772  18.735  0.00  0.00    +0.000 OA
ATOM      2  C   UNL     1       7.679   7.636  18.003  0.00  0.00    +0.000 C 
ATOM      3  N   UNL     1       6.521   7.541  17.254  0.00  0.00    +0.000 N 
ATOM      4  H   UNL     1       6.334   8.270  16.578  0.00  0.00    +0.000 HD
ENDROOT
BRANCH   3   5
ATOM      5  C   UNL     1       5.570   6.499  17.327  0.00  0.00    +0.000 A 
ATOM      6  C   UNL     1       4.290   6.669  17.868  0.00  0.00    +0.000 A 
ATOM      7  C   UNL     1       3.364   5.621  17.868  0.00  0.00    +0.000 A 
ATOM      8  C   UNL     1       3.721   4.386  17.326  0.00  0.00    +0.000 A 
ATOM      9  C   UNL     1       5.002   4.191  16.795  0.00  0.00    +0.000 A 
ATOM     10  C   UNL     1       5.919   5.251  16.790  0.00  0.00    +0.000 A 
BRANCH   8  11
ATOM     11  N   UNL     1       2.738   3.297  17.297  0.00  0.00    +0.000 N 
ATOM     12  O   UNL     1       1.552   3.591  17.094  0.00  0.00    +0.000 OA
ATOM     13  O   UNL     1       3.156   2.141  17.467  0.00  0.00    +0.000 OA
ENDBRANCH   8  11
ENDBRANCH   3   5
BRANCH   2  14
ATOM     14  C   UNL     1       8.372   8.941  17.831  0.00  0.00    +0.000 C 
ATOM     15  C   UNL     1       8.923   9.533  18.905  0.00  0.00    +0.000 C 
BRANCH  15  16
ATOM     16  C   UNL     1       9.619  10.829  18.894  0.00  0.00    +0.000 A 
ATOM     17  C   UNL     1       9.672  11.667  20.022  0.00  0.00    +0.000 A 
ATOM     18  C   UNL     1      10.358  12.885  19.983  0.00  0.00    +0.000 A 
ATOM     19  C   UNL     1      11.007  13.260  18.814  0.00  0.00    +0.000 A 
ATOM     20  C   UNL     1      10.983  12.426  17.702  0.00  0.00    +0.000 A 
ATOM     21  C   UNL     1      10.302  11.215  17.733  0.00  0.00    +0.000 A 
BRANCH  19  22
ATOM     22  O   UNL     1      11.691  14.439  18.712  0.00  0.00    +0.000 OA
ATOM     23  H   UNL     1      12.314  14.365  17.969  0.00  0.00    +0.000 HD
ENDBRANCH  19  22
BRANCH  20  24
ATOM     24  O   UNL     1      11.635  12.795  16.560  0.00  0.00    +0.000 OA
ATOM     25  H   UNL     1      12.021  11.964  16.218  0.00  0.00    +0.000 HD
ENDBRANCH  20  24
ENDBRANCH  15  16
ENDBRANCH   2  14
TORSDOF 6
ENDMDL
MODEL 6
REMARK VINA RESULT:      -7.7      1.293      1.529
REMARK  Name = 
REMARK  6 active torsions:
REMARK  status: ('A' for Active; 'I' for Inactive)
REMARK    1  A    between atoms: C_2  and  C_3
REMARK    2  A    between atoms: C_4  and  C_5
REMARK    3  A    between atoms: C_8  and  O_9
REMARK    4  A    between atoms: C_10  and  O_11
REMARK    5  A    between atoms: N_13  and  C_14
REMARK    6  A    between atoms: C_17  and  N_18
REMARK                            x       y       z     vdW  Elec       q    Type
REMARK                         _______ _______ _______ _____ _____    ______ ____
ROOT
ATOM      1  O   UNL     1       7.805   6.398  16.711  0.00  0.00    +0.000 OA
ATOM      2  C   UNL     1       7.138   7.251  17.282  0.00  0.00    +0.000 C 
ATOM      3  N   UNL     1       5.863   7.091  17.793  0.00  0.00    +0.000 N 
ATOM      4  H   UNL     1       5.371   7.918  18.104  0.00  0.00    +0.000 HD
ENDROOT
BRANCH   3   5
ATOM      5  C   UNL     1       5.163   5.869  17.905  0.00  0.00    +0.000 A 
ATOM      6  C   UNL     1       4.391   5.333  16.866  0.00  0.00    +0.000 A 
ATOM      7  C   UNL     1       3.761   4.093  17.004  0.00  0.00    +0.000 A 
ATOM      8  C   UNL     1       3.897   3.380  18.196  0.00  0.00    +0.000 A 
ATOM      9  C   UNL     1       4.650   3.907  19.253  0.00  0.00    +0.000 A 
ATOM     10  C   UNL     1       5.287   5.145  19.099  0.00  0.00    +0.000 A 
BRANCH   8  11
ATOM     11  N   UNL     1       3.261   2.064  18.328  0.00  0.00    +0.000 N 
ATOM     12  O   UNL     1       2.043   1.984  18.120  0.00  0.00    +0.000 OA
ATOM     13  O   UNL     1       3.987   1.103  18.630  0.00  0.00    +0.000 OA
ENDBRANCH   8  11
ENDBRANCH   3   5
BRANCH   2  14
ATOM     14  C   UNL     1       7.667   8.628  17.473  0.00  0.00    +0.000 C 
ATOM     15  C   UNL     1       8.476   8.876  18.518  0.00  0.00    +0.000 C 
BRANCH  15  16
ATOM     16  C   UNL     1       9.057  10.186  18.847  0.00  0.00    +0.000 A 
ATOM     17  C   UNL     1       9.686  10.446  20.077  0.00  0.00    +0.000 A 
ATOM     18  C   UNL     1      10.244  11.699  20.351  0.00  0.00    +0.000 A 
ATOM     19  C   UNL     1      10.187  12.693  19.384  0.00  0.00    +0.000 A 
ATOM     20  C   UNL     1       9.590  12.437  18.153  0.00  0.00    +0.000 A 
ATOM     21  C   UNL     1       9.033  11.196  17.875  0.00  0.00    +0.000 A 
BRANCH  19  22
ATOM     22  O   UNL     1      10.710  13.938  19.592  0.00  0.00    +0.000 OA
ATOM     23  H   UNL     1      10.391  14.262  20.452  0.00  0.00    +0.000 HD
ENDBRANCH  19  22
BRANCH  20  24
ATOM     24  O   UNL     1       9.550  13.416  17.201  0.00  0.00    +0.000 OA
ATOM     25  H   UNL     1       8.661  13.812  17.293  0.00  0.00    +0.000 HD
ENDBRANCH  20  24
ENDBRANCH  15  16
ENDBRANCH   2  14
TORSDOF 6
ENDMDL
MODEL 7
REMARK VINA RESULT:      -7.6      1.655      2.098
REMARK  Name = 
REMARK  6 active torsions:
REMARK  status: ('A' for Active; 'I' for Inactive)
REMARK    1  A    between atoms: C_2  and  C_3
REMARK    2  A    between atoms: C_4  and  C_5
REMARK    3  A    between atoms: C_8  and  O_9
REMARK    4  A    between atoms: C_10  and  O_11
REMARK    5  A    between atoms: N_13  and  C_14
REMARK    6  A    between atoms: C_17  and  N_18
REMARK                            x       y       z     vdW  Elec       q    Type
REMARK                         _______ _______ _______ _____ _____    ______ ____
ROOT
ATOM      1  O   UNL     1       7.788   6.563  16.541  0.00  0.00    +0.000 OA
ATOM      2  C   UNL     1       7.198   7.374  17.243  0.00  0.00    +0.000 C 
ATOM      3  N   UNL     1       5.970   7.193  17.851  0.00  0.00    +0.000 N 
ATOM      4  H   UNL     1       5.530   7.998  18.277  0.00  0.00    +0.000 HD
ENDROOT
BRANCH   3   5
ATOM      5  C   UNL     1       5.249   5.980  17.917  0.00  0.00    +0.000 A 
ATOM      6  C   UNL     1       4.194   5.670  17.049  0.00  0.00    +0.000 A 
ATOM      7  C   UNL     1       3.546   4.434  17.117  0.00  0.00    +0.000 A 
ATOM      8  C   UNL     1       3.951   3.495  18.067  0.00  0.00    +0.000 A 
ATOM      9  C   UNL     1       4.992   3.792  18.955  0.00  0.00    +0.000 A 
ATOM     10  C   UNL     1       5.642   5.031  18.871  0.00  0.00    +0.000 A 
BRANCH   8  11
ATOM     11  N   UNL     1       3.292   2.185  18.117  0.00  0.00    +0.000 N 
ATOM     12  O   UNL     1       2.210   2.057  17.527  0.00  0.00    +0.000 OA
ATOM     13  O   UNL     1       3.865   1.276  18.738  0.00  0.00    +0.000 OA
ENDBRANCH   8  11
ENDBRANCH   3   5
BRANCH   2  14
ATOM     14  C   UNL     1       7.780   8.718  17.507  0.00  0.00    +0.000 C 
ATOM     15  C   UNL     1       8.637   8.867  18.532  0.00  0.00    +0.000 C 
BRANCH  15  16
ATOM     16  C   UNL     1       9.274  10.132  18.927  0.00  0.00    +0.000 A 
ATOM     17  C   UNL     1       9.839  11.017  17.992  0.00  0.00    +0.000 A 
ATOM     18  C   UNL     1      10.422  12.222  18.400  0.00  0.00    +0.000 A 
ATOM     19  C   UNL     1      10.425  12.550  19.749  0.00  0.00    +0.000 A 
ATOM     20  C   UNL     1       9.844  11.694  20.678  0.00  0.00    +0.000 A 
ATOM     21  C   UNL     1       9.265  10.496  20.281  0.00  0.00    +0.000 A 
BRANCH  19  22
ATOM     22  O   UNL     1      10.981  13.710  20.210  0.00  0.00    +0.000 OA
ATOM     23  H   UNL     1      10.295  14.399  20.205  0.00  0.00    +0.000 HD
ENDBRANCH  19  22
BRANCH  20  24
ATOM     24  O   UNL     1       9.839  12.030  22.002  0.00  0.00    +0.000 OA
ATOM     25  H   UNL     1       9.306  11.332  22.431  0.00  0.00    +0.000 HD
ENDBRANCH  20  24
ENDBRANCH  15  16
ENDBRANCH   2  14
TORSDOF 6
ENDMDL
MODEL 8
REMARK VINA RESULT:      -7.5      0.962      1.637
REMARK  Name = 
REMARK  6 active torsions:
REMARK  status: ('A' for Active; 'I' for Inactive)
REMARK    1  A    between atoms: C_2  and  C_3
REMARK    2  A    between atoms: C_4  and  C_5
REMARK    3  A    between atoms: C_8  and  O_9
REMARK    4  A    between atoms: C_10  and  O_11
REMARK    5  A    between atoms: N_13  and  C_14
REMARK    6  A    between atoms: C_17  and  N_18
REMARK                            x       y       z     vdW  Elec       q    Type
REMARK                         _______ _______ _______ _____ _____    ______ ____
ROOT
ATOM      1  O   UNL     1       8.171   6.829  18.725  0.00  0.00    +0.000 OA
ATOM      2  C   UNL     1       7.678   7.674  17.988  0.00  0.00    +0.000 C 
ATOM      3  N   UNL     1       6.526   7.536  17.236  0.00  0.00    +0.000 N 
ATOM      4  H   UNL     1       6.315   8.255  16.558  0.00  0.00    +0.000 HD
ENDROOT
BRANCH   3   5
ATOM      5  C   UNL     1       5.612   6.461  17.311  0.00  0.00    +0.000 A 
ATOM      6  C   UNL     1       4.349   6.571  17.906  0.00  0.00    +0.000 A 
ATOM      7  C   UNL     1       3.458   5.495  17.907  0.00  0.00    +0.000 A 
ATOM      8  C   UNL     1       3.832   4.289  17.311  0.00  0.00    +0.000 A 
ATOM      9  C   UNL     1       5.097   4.154  16.726  0.00  0.00    +0.000 A 
ATOM     10  C   UNL     1       5.978   5.243  16.721  0.00  0.00    +0.000 A 
BRANCH   8  11
ATOM     11  N   UNL     1       2.884   3.170  17.284  0.00  0.00    +0.000 N 
ATOM     12  O   UNL     1       3.306   2.045  17.582  0.00  0.00    +0.000 OA
ATOM     13  O   UNL     1       1.709   3.420  16.974  0.00  0.00    +0.000 OA
ENDBRANCH   8  11
ENDBRANCH   3   5
BRANCH   2  14
ATOM     14  C   UNL     1       8.325   9.002  17.813  0.00  0.00    +0.000 C 
ATOM     15  C   UNL     1       8.988   9.546  18.848  0.00  0.00    +0.000 C 
BRANCH  15  16
ATOM     16  C   UNL     1       9.657  10.856  18.832  0.00  0.00    +0.000 A 
ATOM     17  C   UNL     1      10.229  11.397  17.668  0.00  0.00    +0.000 A 
ATOM     18  C   UNL     1      10.843  12.654  17.683  0.00  0.00    +0.000 A 
ATOM     19  C   UNL     1      10.870  13.380  18.865  0.00  0.00    +0.000 A 
ATOM     20  C   UNL     1      10.283  12.865  20.016  0.00  0.00    +0.000 A 
ATOM     21  C   UNL     1       9.673  11.617  20.009  0.00  0.00    +0.000 A 
BRANCH  19  22
ATOM     22  O   UNL     1      11.457  14.612  18.946  0.00  0.00    +0.000 OA
ATOM     23  H   UNL     1      11.076  15.176  18.251  0.00  0.00    +0.000 HD
ENDBRANCH  19  22
BRANCH  20  24
ATOM     24  O   UNL     1      10.302  13.591  21.173  0.00  0.00    +0.000 OA
ATOM     25  H   UNL     1      11.251  13.690  21.386  0.00  0.00    +0.000 HD
ENDBRANCH  20  24
ENDBRANCH  15  16
ENDBRANCH   2  14
TORSDOF 6
ENDMDL
MODEL 9
REMARK VINA RESULT:      -7.5      1.615      2.118
REMARK  Name = 
REMARK  6 active torsions:
REMARK  status: ('A' for Active; 'I' for Inactive)
REMARK    1  A    between atoms: C_2  and  C_3
REMARK    2  A    between atoms: C_4  and  C_5
REMARK    3  A    between atoms: C_8  and  O_9
REMARK    4  A    between atoms: C_10  and  O_11
REMARK    5  A    between atoms: N_13  and  C_14
REMARK    6  A    between atoms: C_17  and  N_18
REMARK                            x       y       z     vdW  Elec       q    Type
REMARK                         _______ _______ _______ _____ _____    ______ ____
ROOT
ATOM      1  O   UNL     1       7.843   5.820  16.860  0.00  0.00    +0.000 OA
ATOM      2  C   UNL     1       7.172   6.766  17.251  0.00  0.00    +0.000 C 
ATOM      3  N   UNL     1       5.861   6.717  17.689  0.00  0.00    +0.000 N 
ATOM      4  H   UNL     1       5.380   7.594  17.840  0.00  0.00    +0.000 HD
ENDROOT
BRANCH   3   5
ATOM      5  C   UNL     1       5.110   5.544  17.929  0.00  0.00    +0.000 A 
ATOM      6  C   UNL     1       4.134   5.069  17.046  0.00  0.00    +0.000 A 
ATOM      7  C   UNL     1       3.456   3.873  17.299  0.00  0.00    +0.000 A 
ATOM      8  C   UNL     1       3.751   3.144  18.452  0.00  0.00    +0.000 A 
ATOM      9  C   UNL     1       4.712   3.612  19.356  0.00  0.00    +0.000 A 
ATOM     10  C   UNL     1       5.394   4.806  19.086  0.00  0.00    +0.000 A 
BRANCH   8  11
ATOM     11  N   UNL     1       3.062   1.873  18.701  0.00  0.00    +0.000 N 
ATOM     12  O   UNL     1       3.738   0.835  18.693  0.00  0.00    +0.000 OA
ATOM     13  O   UNL     1       1.841   1.914  18.918  0.00  0.00    +0.000 OA
ENDBRANCH   8  11
ENDBRANCH   3   5
BRANCH   2  14
ATOM     14  C   UNL     1       7.737   8.142  17.276  0.00  0.00    +0.000 C 
ATOM     15  C   UNL     1       8.242   8.618  18.426  0.00  0.00    +0.000 C 
BRANCH  15  16
ATOM     16  C   UNL     1       8.814   9.961  18.609  0.00  0.00    +0.000 A 
ATOM     17  C   UNL     1       8.586  11.009  17.700  0.00  0.00    +0.000 A 
ATOM     18  C   UNL     1       9.131  12.280  17.913  0.00  0.00    +0.000 A 
ATOM     19  C   UNL     1       9.894  12.508  19.049  0.00  0.00    +0.000 A 
ATOM     20  C   UNL     1      10.103  11.485  19.968  0.00  0.00    +0.000 A 
ATOM     21  C   UNL     1       9.567  10.220  19.763  0.00  0.00    +0.000 A 
BRANCH  19  22
ATOM     22  O   UNL     1      10.456  13.726  19.312  0.00  0.00    +0.000 OA
ATOM     23  H   UNL     1      10.585  13.800  20.273  0.00  0.00    +0.000 HD
ENDBRANCH  19  22
BRANCH  20  24
ATOM     24  O   UNL     1      10.844  11.721  21.091  0.00  0.00    +0.000 OA
ATOM     25  H   UNL     1      10.463  11.126  21.767  0.00  0.00    +0.000 HD
ENDBRANCH  20  24
ENDBRANCH  15  16
ENDBRANCH   2  14
TORSDOF 6
ENDMDL
