MODEL 1
REMARK VINA RESULT:      -8.7      0.000      0.000
REMARK  Name = 
REMARK  11 active torsions:
REMARK  status: ('A' for Active; 'I' for Inactive)
REMARK    1  A    between atoms: C_1  and  C_2
REMARK    2  A    between atoms: C_2  and  C_3
REMARK    3  A    between atoms: C_2  and  O_4
REMARK    4  A    between atoms: O_4  and  C_5
REMARK    5  A    between atoms: N_7  and  C_8
REMARK    6  A    between atoms: C_8  and  C_9
REMARK    7  A    between atoms: C_8  and  C_19
REMARK    8  A    between atoms: C_9  and  C_10
REMARK    9  A    between atoms: N_21  and  C_22
REMARK   10  A    between atoms: C_22  and  C_23
REMARK   11  A    between atoms: C_23  and  C_24
REMARK                            x       y       z     vdW  Elec       q    Type
REMARK                         _______ _______ _______ _____ _____    ______ ____
ROOT
ATOM      1  C   UNL     1       4.160   5.523  18.039  0.00  0.00    +0.000 C 
ENDROOT
BRANCH   1   4
ATOM      2  C   UNL     1       4.223   3.547  19.515  0.00  0.00    +0.000 C 
ATOM      3  O   UNL     1       5.428   3.375  19.397  0.00  0.00    +0.000 OA
ATOM      4  N   UNL     1       3.529   4.577  18.961  0.00  0.00    +0.000 N 
ATOM      5  H   UNL     1       2.528   4.576  19.085  0.00  0.00    +0.000 HD
BRANCH   2   6
ATOM      6  O   UNL     1       3.383   2.776  20.249  0.00  0.00    +0.000 OA
BRANCH   6   8
ATOM      7  C   UNL     1       1.432   1.961  19.083  0.00  0.00    +0.000 C 
ATOM      8  C   UNL     1       1.976   3.013  20.032  0.00  0.00    +0.000 C 
ATOM      9  C   UNL     1       1.269   2.878  21.377  0.00  0.00    +0.000 C 
ENDBRANCH   6   8
ENDBRANCH   2   6
ENDBRANCH   1   4
BRANCH   1  10
ATOM     10  C   UNL     1       3.553   6.938  18.114  0.00  0.00    +0.000 C 
ATOM     11  O   UNL     1       3.971   7.859  17.414  0.00  0.00    +0.000 OA
ATOM     12  N   UNL     1       2.489   7.093  18.979  0.00  0.00    +0.000 N 
ATOM     13  H   UNL     1       2.403   6.395  19.711  0.00  0.00    +0.000 HD
BRANCH  12  14
ATOM     14  C   UNL     1       1.955   8.423  19.227  0.00  0.00    +0.000 C 
BRANCH  14  15
ATOM     15  C   UNL     1       1.117   8.974  18.073  0.00  0.00    +0.000 C 
BRANCH  15  16
ATOM     16  C   UNL     1       0.075   9.964  18.503  0.00  0.00    +0.000 A 
ATOM     17  C   UNL     1       0.162  10.830  19.577  0.00  0.00    +0.000 A 
ATOM     18  N   UNL     1      -0.994  11.560  19.642  0.00  0.00    +0.000 N 
ATOM     19  C   UNL     1      -1.829  11.218  18.604  0.00  0.00    +0.000 A 
ATOM     20  C   UNL     1      -3.103  11.702  18.277  0.00  0.00    +0.000 A 
ATOM     21  C   UNL     1      -3.764  11.110  17.195  0.00  0.00    +0.000 A 
ATOM     22  C   UNL     1      -3.162  10.091  16.459  0.00  0.00    +0.000 A 
ATOM     23  C   UNL     1      -1.877   9.638  16.784  0.00  0.00    +0.000 A 
ATOM     24  C   UNL     1      -1.196  10.203  17.884  0.00  0.00    +0.000 A 
ATOM     25  H   UNL     1      -1.213  12.241  20.355  0.00  0.00    +0.000 HD
ENDBRANCH  15  16
ENDBRANCH  14  15
ENDBRANCH  12  14
ENDBRANCH   1  10
BRANCH   1  26
ATOM     26  C   UNL     1       4.106   5.060  16.578  0.00  0.00    +0.000 C 
BRANCH  26  27
ATOM     27  C   UNL     1       5.431   5.126  15.865  0.00  0.00    +0.000 A 
ATOM     28  C   UNL     1       6.570   5.751  16.333  0.00  0.00    +0.000 A 
ATOM     29  N   UNL     1       7.544   5.636  15.379  0.00  0.00    +0.000 N 
ATOM     30  C   UNL     1       7.060   4.962  14.283  0.00  0.00    +0.000 A 
ATOM     31  C   UNL     1       7.679   4.669  13.062  0.00  0.00    +0.000 A 
ATOM     32  C   UNL     1       6.940   3.952  12.117  0.00  0.00    +0.000 A 
ATOM     33  C   UNL     1       5.650   3.514  12.399  0.00  0.00    +0.000 A 
ATOM     34  C   UNL     1       5.050   3.811  13.629  0.00  0.00    +0.000 A 
ATOM     35  C   UNL     1       5.754   4.576  14.582  0.00  0.00    +0.000 A 
ATOM     36  H   UNL     1       8.481   6.006  15.454  0.00  0.00    +0.000 HD
ENDBRANCH  26  27
ENDBRANCH   1  26
TORSDOF 9
ENDMDL
MODEL 2
REMARK VINA RESULT:      -8.6      2.043      2.733
REMARK  Name = 
REMARK  11 active torsions:
REMARK  status: ('A' for Active; 'I' for Inactive)
REMARK    1  A    between atoms: C_1  and  C_2
REMARK    2  A    between atoms: C_2  and  C_3
REMARK    3  A    between atoms: C_2  and  O_4
REMARK    4  A    between atoms: O_4  and  C_5
REMARK    5  A    between atoms: N_7  and  C_8
REMARK    6  A    between atoms: C_8  and  C_9
REMARK    7  A    between atoms: C_8  and  C_19
REMARK    8  A    between atoms: C_9  and  C_10
REMARK    9  A    between atoms: N_21  and  C_22
REMARK   10  A    between atoms: C_22  and  C_23
REMARK   11  A    between atoms: C_23  and  C_24
REMARK                            x       y       z     vdW  Elec       q    Type
REMARK                         _______ _______ _______ _____ _____    ______ ____
ROOT
ATOM      1  C   UNL     1       4.502   4.191  18.080  0.00  0.00    +0.000 C 
ENDROOT
BRANCH   1   4
ATOM      2  C   UNL     1       2.296   3.155  18.462  0.00  0.00    +0.000 C 
ATOM      3  O   UNL     1       1.752   3.738  17.535  0.00  0.00    +0.000 OA
ATOM      4  N   UNL     1       3.617   3.251  18.769  0.00  0.00    +0.000 N 
ATOM      5  H   UNL     1       3.934   2.765  19.595  0.00  0.00    +0.000 HD
BRANCH   2   6
ATOM      6  O   UNL     1       1.695   2.284  19.309  0.00  0.00    +0.000 OA
BRANCH   6   8
ATOM      7  C   UNL     1       1.813   2.502  21.711  0.00  0.00    +0.000 C 
ATOM      8  C   UNL     1       1.050   2.878  20.454  0.00  0.00    +0.000 C 
ATOM      9  C   UNL     1       1.099   4.393  20.283  0.00  0.00    +0.000 C 
ENDBRANCH   6   8
ENDBRANCH   2   6
ENDBRANCH   1   4
BRANCH   1  10
ATOM     10  C   UNL     1       4.246   5.661  18.467  0.00  0.00    +0.000 C 
ATOM     11  O   UNL     1       4.905   6.225  19.339  0.00  0.00    +0.000 OA
ATOM     12  N   UNL     1       3.265   6.313  17.746  0.00  0.00    +0.000 N 
ATOM     13  H   UNL     1       2.590   5.719  17.274  0.00  0.00    +0.000 HD
BRANCH  12  14
ATOM     14  C   UNL     1       2.852   7.648  18.144  0.00  0.00    +0.000 C 
BRANCH  14  15
ATOM     15  C   UNL     1       2.028   7.679  19.433  0.00  0.00    +0.000 C 
BRANCH  15  16
ATOM     16  C   UNL     1       1.285   8.964  19.643  0.00  0.00    +0.000 A 
ATOM     17  C   UNL     1       1.088   9.959  18.704  0.00  0.00    +0.000 A 
ATOM     18  N   UNL     1       0.373  10.971  19.287  0.00  0.00    +0.000 N 
ATOM     19  C   UNL     1       0.061  10.645  20.586  0.00  0.00    +0.000 A 
ATOM     20  C   UNL     1      -0.651  11.370  21.550  0.00  0.00    +0.000 A 
ATOM     21  C   UNL     1      -0.752  10.819  22.833  0.00  0.00    +0.000 A 
ATOM     22  C   UNL     1      -0.182   9.582  23.127  0.00  0.00    +0.000 A 
ATOM     23  C   UNL     1       0.503   8.859  22.143  0.00  0.00    +0.000 A 
ATOM     24  C   UNL     1       0.638   9.400  20.847  0.00  0.00    +0.000 A 
ATOM     25  H   UNL     1       0.122  11.841  18.837  0.00  0.00    +0.000 HD
ENDBRANCH  15  16
ENDBRANCH  14  15
ENDBRANCH  12  14
ENDBRANCH   1  10
BRANCH   1  26
ATOM     26  C   UNL     1       4.417   4.081  16.552  0.00  0.00    +0.000 C 
BRANCH  26  27
ATOM     27  C   UNL     1       5.658   4.544  15.834  0.00  0.00    +0.000 A 
ATOM     28  C   UNL     1       6.649   5.344  16.368  0.00  0.00    +0.000 A 
ATOM     29  N   UNL     1       7.577   5.584  15.392  0.00  0.00    +0.000 N 
ATOM     30  C   UNL     1       7.203   4.973  14.219  0.00  0.00    +0.000 A 
ATOM     31  C   UNL     1       7.813   4.998  12.958  0.00  0.00    +0.000 A 
ATOM     32  C   UNL     1       7.208   4.266  11.932  0.00  0.00    +0.000 A 
ATOM     33  C   UNL     1       6.063   3.512  12.170  0.00  0.00    +0.000 A 
ATOM     34  C   UNL     1       5.473   3.494  13.439  0.00  0.00    +0.000 A 
ATOM     35  C   UNL     1       6.033   4.262  14.481  0.00  0.00    +0.000 A 
ATOM     36  H   UNL     1       8.411   6.145  15.504  0.00  0.00    +0.000 HD
ENDBRANCH  26  27
ENDBRANCH   1  26
TORSDOF 9
ENDMDL
MODEL 3
REMARK VINA RESULT:      -8.5      5.379      8.399
REMARK  Name = 
REMARK  11 active torsions:
REMARK  status: ('A' for Active; 'I' for Inactive)
REMARK    1  A    between atoms: C_1  and  C_2
REMARK    2  A    between atoms: C_2  and  C_3
REMARK    3  A    between atoms: C_2  and  O_4
REMARK    4  A    between atoms: O_4  and  C_5
REMARK    5  A    between atoms: N_7  and  C_8
REMARK    6  A    between atoms: C_8  and  C_9
REMARK    7  A    between atoms: C_8  and  C_19
REMARK    8  A    between atoms: C_9  and  C_10
REMARK    9  A    between atoms: N_21  and  C_22
REMARK   10  A    between atoms: C_22  and  C_23
REMARK   11  A    between atoms: C_23  and  C_24
REMARK                            x       y       z     vdW  Elec       q    Type
REMARK                         _______ _______ _______ _____ _____    ______ ____
ROOT
ATOM      1  C   UNL     1       6.328   6.842  17.354  0.00  0.00    +0.000 C 
ENDROOT
BRANCH   1   4
ATOM      2  C   UNL     1       7.334   5.277  15.733  0.00  0.00    +0.000 C 
ATOM      3  O   UNL     1       7.737   4.498  16.586  0.00  0.00    +0.000 OA
ATOM      4  N   UNL     1       6.597   6.392  15.987  0.00  0.00    +0.000 N 
ATOM      5  H   UNL     1       6.374   6.985  15.201  0.00  0.00    +0.000 HD
BRANCH   2   6
ATOM      6  O   UNL     1       7.508   5.143  14.395  0.00  0.00    +0.000 OA
BRANCH   6   8
ATOM      7  C   UNL     1       5.330   4.140  14.112  0.00  0.00    +0.000 C 
ATOM      8  C   UNL     1       6.809   4.038  13.786  0.00  0.00    +0.000 C 
ATOM      9  C   UNL     1       6.990   4.147  12.276  0.00  0.00    +0.000 C 
ENDBRANCH   6   8
ENDBRANCH   2   6
ENDBRANCH   1   4
BRANCH   1  10
ATOM     10  C   UNL     1       7.556   7.473  18.038  0.00  0.00    +0.000 C 
ATOM     11  O   UNL     1       8.330   6.806  18.723  0.00  0.00    +0.000 OA
ATOM     12  N   UNL     1       7.755   8.819  17.798  0.00  0.00    +0.000 N 
ATOM     13  H   UNL     1       6.943   9.341  17.485  0.00  0.00    +0.000 HD
BRANCH  12  14
ATOM     14  C   UNL     1       8.796   9.529  18.522  0.00  0.00    +0.000 C 
BRANCH  14  15
ATOM     15  C   UNL     1       9.125  10.903  17.935  0.00  0.00    +0.000 C 
BRANCH  15  16
ATOM     16  C   UNL     1       9.962  11.760  18.838  0.00  0.00    +0.000 A 
ATOM     17  C   UNL     1      11.235  11.470  19.293  0.00  0.00    +0.000 A 
ATOM     18  N   UNL     1      11.651  12.494  20.101  0.00  0.00    +0.000 N 
ATOM     19  C   UNL     1      10.690  13.475  20.157  0.00  0.00    +0.000 A 
ATOM     20  C   UNL     1      10.684  14.692  20.852  0.00  0.00    +0.000 A 
ATOM     21  C   UNL     1       9.523  15.471  20.787  0.00  0.00    +0.000 A 
ATOM     22  C   UNL     1       8.424  15.056  20.038  0.00  0.00    +0.000 A 
ATOM     23  C   UNL     1       8.458  13.850  19.327  0.00  0.00    +0.000 A 
ATOM     24  C   UNL     1       9.608  13.034  19.392  0.00  0.00    +0.000 A 
ATOM     25  H   UNL     1      12.530  12.522  20.599  0.00  0.00    +0.000 HD
ENDBRANCH  15  16
ENDBRANCH  14  15
ENDBRANCH  12  14
ENDBRANCH   1  10
BRANCH   1  26
ATOM     26  C   UNL     1       5.805   5.720  18.260  0.00  0.00    +0.000 C 
BRANCH  26  27
ATOM     27  C   UNL     1       4.314   5.515  18.182  0.00  0.00    +0.000 A 
ATOM     28  C   UNL     1       3.363   6.514  18.118  0.00  0.00    +0.000 A 
ATOM     29  N   UNL     1       2.127   5.928  18.112  0.00  0.00    +0.000 N 
ATOM     30  C   UNL     1       2.248   4.561  18.190  0.00  0.00    +0.000 A 
ATOM     31  C   UNL     1       1.257   3.574  18.271  0.00  0.00    +0.000 A 
ATOM     32  C   UNL     1       1.675   2.241  18.333  0.00  0.00    +0.000 A 
ATOM     33  C   UNL     1       3.025   1.911  18.278  0.00  0.00    +0.000 A 
ATOM     34  C   UNL     1       4.000   2.912  18.190  0.00  0.00    +0.000 A 
ATOM     35  C   UNL     1       3.610   4.267  18.175  0.00  0.00    +0.000 A 
ATOM     36  H   UNL     1       1.246   6.422  18.073  0.00  0.00    +0.000 HD
ENDBRANCH  26  27
ENDBRANCH   1  26
TORSDOF 9
ENDMDL
MODEL 4
REMARK VINA RESULT:      -8.3      4.768      8.327
REMARK  Name = 
REMARK  11 active torsions:
REMARK  status: ('A' for Active; 'I' for Inactive)
REMARK    1  A    between atoms: C_1  and  C_2
REMARK    2  A    between atoms: C_2  and  C_3
REMARK    3  A    between atoms: C_2  and  O_4
REMARK    4  A    between atoms: O_4  and  C_5
REMARK    5  A    between atoms: N_7  and  C_8
REMARK    6  A    between atoms: C_8  and  C_9
REMARK    7  A    between atoms: C_8  and  C_19
REMARK    8  A    between atoms: C_9  and  C_10
REMARK    9  A    between atoms: N_21  and  C_22
REMARK   10  A    between atoms: C_22  and  C_23
REMARK   11  A    between atoms: C_23  and  C_24
REMARK                            x       y       z     vdW  Elec       q    Type
REMARK                         _______ _______ _______ _____ _____    ______ ____
ROOT
ATOM      1  C   UNL     1       5.590   6.280  16.301  0.00  0.00    +0.000 C 
ENDROOT
BRANCH   1   4
ATOM      2  C   UNL     1       6.258   4.844  14.409  0.00  0.00    +0.000 C 
ATOM      3  O   UNL     1       7.132   5.602  14.014  0.00  0.00    +0.000 OA
ATOM      4  N   UNL     1       5.507   5.041  15.526  0.00  0.00    +0.000 N 
ATOM      5  H   UNL     1       4.777   4.370  15.713  0.00  0.00    +0.000 HD
BRANCH   2   6
ATOM      6  O   UNL     1       5.918   3.663  13.836  0.00  0.00    +0.000 OA
BRANCH   6   8
ATOM      7  C   UNL     1       6.862   2.580  11.895  0.00  0.00    +0.000 C 
ATOM      8  C   UNL     1       5.911   3.653  12.393  0.00  0.00    +0.000 C 
ATOM      9  C   UNL     1       4.497   3.310  11.937  0.00  0.00    +0.000 C 
ENDBRANCH   6   8
ENDBRANCH   2   6
ENDBRANCH   1   4
BRANCH   1  10
ATOM     10  C   UNL     1       7.000   6.550  16.862  0.00  0.00    +0.000 C 
ATOM     11  O   UNL     1       7.790   5.636  17.096  0.00  0.00    +0.000 OA
ATOM     12  N   UNL     1       7.333   7.878  17.043  0.00  0.00    +0.000 N 
ATOM     13  H   UNL     1       6.556   8.527  17.111  0.00  0.00    +0.000 HD
BRANCH  12  14
ATOM     14  C   UNL     1       8.579   8.220  17.709  0.00  0.00    +0.000 C 
BRANCH  14  15
ATOM     15  C   UNL     1       8.400   9.151  18.909  0.00  0.00    +0.000 C 
BRANCH  15  16
ATOM     16  C   UNL     1       9.197  10.418  18.814  0.00  0.00    +0.000 A 
ATOM     17  C   UNL     1       9.883  10.872  17.703  0.00  0.00    +0.000 A 
ATOM     18  N   UNL     1      10.491  12.057  18.022  0.00  0.00    +0.000 N 
ATOM     19  C   UNL     1      10.186  12.413  19.315  0.00  0.00    +0.000 A 
ATOM     20  C   UNL     1      10.581  13.534  20.057  0.00  0.00    +0.000 A 
ATOM     21  C   UNL     1      10.177  13.602  21.395  0.00  0.00    +0.000 A 
ATOM     22  C   UNL     1       9.391  12.599  21.957  0.00  0.00    +0.000 A 
ATOM     23  C   UNL     1       8.983  11.499  21.192  0.00  0.00    +0.000 A 
ATOM     24  C   UNL     1       9.393  11.394  19.846  0.00  0.00    +0.000 A 
ATOM     25  H   UNL     1      11.090  12.588  17.406  0.00  0.00    +0.000 HD
ENDBRANCH  15  16
ENDBRANCH  14  15
ENDBRANCH  12  14
ENDBRANCH   1  10
BRANCH   1  26
ATOM     26  C   UNL     1       4.599   6.320  17.471  0.00  0.00    +0.000 C 
BRANCH  26  27
ATOM     27  C   UNL     1       4.466   5.012  18.207  0.00  0.00    +0.000 A 
ATOM     28  C   UNL     1       5.484   4.346  18.859  0.00  0.00    +0.000 A 
ATOM     29  N   UNL     1       4.979   3.175  19.356  0.00  0.00    +0.000 N 
ATOM     30  C   UNL     1       3.651   3.050  19.024  0.00  0.00    +0.000 A 
ATOM     31  C   UNL     1       2.758   1.999  19.268  0.00  0.00    +0.000 A 
ATOM     32  C   UNL     1       1.443   2.149  18.817  0.00  0.00    +0.000 A 
ATOM     33  C   UNL     1       1.033   3.317  18.182  0.00  0.00    +0.000 A 
ATOM     34  C   UNL     1       1.939   4.359  17.953  0.00  0.00    +0.000 A 
ATOM     35  C   UNL     1       3.284   4.216  18.354  0.00  0.00    +0.000 A 
ATOM     36  H   UNL     1       5.505   2.487  19.877  0.00  0.00    +0.000 HD
ENDBRANCH  26  27
ENDBRANCH   1  26
TORSDOF 9
ENDMDL
MODEL 5
REMARK VINA RESULT:      -8.3      3.265      9.718
REMARK  Name = 
REMARK  11 active torsions:
REMARK  status: ('A' for Active; 'I' for Inactive)
REMARK    1  A    between atoms: C_1  and  C_2
REMARK    2  A    between atoms: C_2  and  C_3
REMARK    3  A    between atoms: C_2  and  O_4
REMARK    4  A    between atoms: O_4  and  C_5
REMARK    5  A    between atoms: N_7  and  C_8
REMARK    6  A    between atoms: C_8  and  C_9
REMARK    7  A    between atoms: C_8  and  C_19
REMARK    8  A    between atoms: C_9  and  C_10
REMARK    9  A    between atoms: N_21  and  C_22
REMARK   10  A    between atoms: C_22  and  C_23
REMARK   11  A    between atoms: C_23  and  C_24
REMARK                            x       y       z     vdW  Elec       q    Type
REMARK                         _______ _______ _______ _____ _____    ______ ____
ROOT
ATOM      1  C   UNL     1       0.997  10.844  19.590  0.00  0.00    +0.000 C 
ENDROOT
BRANCH   1   4
ATOM      2  C   UNL     1       1.459  13.228  20.027  0.00  0.00    +0.000 C 
ATOM      3  O   UNL     1       2.148  13.015  21.015  0.00  0.00    +0.000 OA
ATOM      4  N   UNL     1       0.915  12.263  19.239  0.00  0.00    +0.000 N 
ATOM      5  H   UNL     1       0.317  12.568  18.484  0.00  0.00    +0.000 HD
BRANCH   2   6
ATOM      6  O   UNL     1       1.159  14.450  19.522  0.00  0.00    +0.000 OA
BRANCH   6   8
ATOM      7  C   UNL     1       3.078  15.758  18.862  0.00  0.00    +0.000 C 
ATOM      8  C   UNL     1       2.030  15.523  19.935  0.00  0.00    +0.000 C 
ATOM      9  C   UNL     1       1.182  16.782  20.081  0.00  0.00    +0.000 C 
ENDBRANCH   6   8
ENDBRANCH   2   6
ENDBRANCH   1   4
BRANCH   1  10
ATOM     10  C   UNL     1       1.664   9.987  18.496  0.00  0.00    +0.000 C 
ATOM     11  O   UNL     1       2.129  10.489  17.474  0.00  0.00    +0.000 OA
ATOM     12  N   UNL     1       1.745   8.633  18.756  0.00  0.00    +0.000 N 
ATOM     13  H   UNL     1       1.098   8.273  19.450  0.00  0.00    +0.000 HD
BRANCH  12  14
ATOM     14  C   UNL     1       2.217   7.731  17.718  0.00  0.00    +0.000 C 
BRANCH  14  15
ATOM     15  C   UNL     1       3.509   6.997  18.083  0.00  0.00    +0.000 C 
BRANCH  15  16
ATOM     16  C   UNL     1       3.389   5.503  18.032  0.00  0.00    +0.000 A 
ATOM     17  C   UNL     1       4.010   4.662  17.128  0.00  0.00    +0.000 A 
ATOM     18  N   UNL     1       3.638   3.374  17.405  0.00  0.00    +0.000 N 
ATOM     19  C   UNL     1       2.811   3.346  18.503  0.00  0.00    +0.000 A 
ATOM     20  C   UNL     1       2.196   2.260  19.139  0.00  0.00    +0.000 A 
ATOM     21  C   UNL     1       1.331   2.535  20.204  0.00  0.00    +0.000 A 
ATOM     22  C   UNL     1       1.112   3.845  20.628  0.00  0.00    +0.000 A 
ATOM     23  C   UNL     1       1.757   4.916  19.997  0.00  0.00    +0.000 A 
ATOM     24  C   UNL     1       2.617   4.669  18.906  0.00  0.00    +0.000 A 
ATOM     25  H   UNL     1       3.916   2.561  16.874  0.00  0.00    +0.000 HD
ENDBRANCH  15  16
ENDBRANCH  14  15
ENDBRANCH  12  14
ENDBRANCH   1  10
BRANCH   1  26
ATOM     26  C   UNL     1      -0.371  10.227  19.908  0.00  0.00    +0.000 C 
BRANCH  26  27
ATOM     27  C   UNL     1      -1.532  10.963  19.292  0.00  0.00    +0.000 A 
ATOM     28  C   UNL     1      -2.234  11.998  19.878  0.00  0.00    +0.000 A 
ATOM     29  N   UNL     1      -3.244  12.363  19.029  0.00  0.00    +0.000 N 
ATOM     30  C   UNL     1      -3.230  11.573  17.905  0.00  0.00    +0.000 A 
ATOM     31  C   UNL     1      -4.104  11.551  16.810  0.00  0.00    +0.000 A 
ATOM     32  C   UNL     1      -3.840  10.634  15.789  0.00  0.00    +0.000 A 
ATOM     33  C   UNL     1      -2.727   9.801  15.846  0.00  0.00    +0.000 A 
ATOM     34  C   UNL     1      -1.861   9.842  16.945  0.00  0.00    +0.000 A 
ATOM     35  C   UNL     1      -2.130  10.724  18.013  0.00  0.00    +0.000 A 
ATOM     36  H   UNL     1      -3.918  13.096  19.205  0.00  0.00    +0.000 HD
ENDBRANCH  26  27
ENDBRANCH   1  26
TORSDOF 9
ENDMDL
MODEL 6
REMARK VINA RESULT:      -8.2      5.235      8.542
REMARK  Name = 
REMARK  11 active torsions:
REMARK  status: ('A' for Active; 'I' for Inactive)
REMARK    1  A    between atoms: C_1  and  C_2
REMARK    2  A    between atoms: C_2  and  C_3
REMARK    3  A    between atoms: C_2  and  O_4
REMARK    4  A    between atoms: O_4  and  C_5
REMARK    5  A    between atoms: N_7  and  C_8
REMARK    6  A    between atoms: C_8  and  C_9
REMARK    7  A    between atoms: C_8  and  C_19
REMARK    8  A    between atoms: C_9  and  C_10
REMARK    9  A    between atoms: N_21  and  C_22
REMARK   10  A    between atoms: C_22  and  C_23
REMARK   11  A    between atoms: C_23  and  C_24
REMARK                            x       y       z     vdW  Elec       q    Type
REMARK                         _______ _______ _______ _____ _____    ______ ____
ROOT
ATOM      1  C   UNL     1       6.231   6.655  17.346  0.00  0.00    +0.000 C 
ENDROOT
BRANCH   1   4
ATOM      2  C   UNL     1       7.365   5.169  15.735  0.00  0.00    +0.000 C 
ATOM      3  O   UNL     1       7.948   4.521  16.594  0.00  0.00    +0.000 OA
ATOM      4  N   UNL     1       6.476   6.166  15.988  0.00  0.00    +0.000 N 
ATOM      5  H   UNL     1       6.106   6.664  15.192  0.00  0.00    +0.000 HD
BRANCH   2   6
ATOM      6  O   UNL     1       7.467   4.979  14.397  0.00  0.00    +0.000 OA
BRANCH   6   8
ATOM      7  C   UNL     1       6.686   3.769  12.458  0.00  0.00    +0.000 C 
ATOM      8  C   UNL     1       6.288   4.451  13.755  0.00  0.00    +0.000 C 
ATOM      9  C   UNL     1       5.674   3.413  14.689  0.00  0.00    +0.000 C 
ENDBRANCH   6   8
ENDBRANCH   2   6
ENDBRANCH   1   4
BRANCH   1  10
ATOM     10  C   UNL     1       7.457   7.350  17.970  0.00  0.00    +0.000 C 
ATOM     11  O   UNL     1       8.149   6.798  18.824  0.00  0.00    +0.000 OA
ATOM     12  N   UNL     1       7.751   8.608  17.481  0.00  0.00    +0.000 N 
ATOM     13  H   UNL     1       6.991   9.095  17.018  0.00  0.00    +0.000 HD
BRANCH  12  14
ATOM     14  C   UNL     1       8.793   9.398  18.117  0.00  0.00    +0.000 C 
BRANCH  14  15
ATOM     15  C   UNL     1       8.406  10.861  18.337  0.00  0.00    +0.000 C 
BRANCH  15  16
ATOM     16  C   UNL     1       9.496  11.832  17.990  0.00  0.00    +0.000 A 
ATOM     17  C   UNL     1      10.810  11.517  17.699  0.00  0.00    +0.000 A 
ATOM     18  N   UNL     1      11.490  12.679  17.447  0.00  0.00    +0.000 N 
ATOM     19  C   UNL     1      10.637  13.754  17.528  0.00  0.00    +0.000 A 
ATOM     20  C   UNL     1      10.890  15.120  17.348  0.00  0.00    +0.000 A 
ATOM     21  C   UNL     1       9.835  16.012  17.572  0.00  0.00    +0.000 A 
ATOM     22  C   UNL     1       8.573  15.549  17.939  0.00  0.00    +0.000 A 
ATOM     23  C   UNL     1       8.331  14.177  18.088  0.00  0.00    +0.000 A 
ATOM     24  C   UNL     1       9.383  13.258  17.890  0.00  0.00    +0.000 A 
ATOM     25  H   UNL     1      12.477  12.743  17.245  0.00  0.00    +0.000 HD
ENDBRANCH  15  16
ENDBRANCH  14  15
ENDBRANCH  12  14
ENDBRANCH   1  10
BRANCH   1  26
ATOM     26  C   UNL     1       5.774   5.549  18.305  0.00  0.00    +0.000 C 
BRANCH  26  27
ATOM     27  C   UNL     1       4.311   5.614  18.662  0.00  0.00    +0.000 A 
ATOM     28  C   UNL     1       3.451   6.650  18.356  0.00  0.00    +0.000 A 
ATOM     29  N   UNL     1       2.226   6.361  18.894  0.00  0.00    +0.000 N 
ATOM     30  C   UNL     1       2.271   5.162  19.564  0.00  0.00    +0.000 A 
ATOM     31  C   UNL     1       1.279   4.510  20.308  0.00  0.00    +0.000 A 
ATOM     32  C   UNL     1       1.606   3.278  20.882  0.00  0.00    +0.000 A 
ATOM     33  C   UNL     1       2.860   2.708  20.689  0.00  0.00    +0.000 A 
ATOM     34  C   UNL     1       3.837   3.372  19.937  0.00  0.00    +0.000 A 
ATOM     35  C   UNL     1       3.551   4.639  19.386  0.00  0.00    +0.000 A 
ATOM     36  H   UNL     1       1.406   6.948  18.827  0.00  0.00    +0.000 HD
ENDBRANCH  26  27
ENDBRANCH   1  26
TORSDOF 9
ENDMDL
MODEL 7
REMARK VINA RESULT:      -8.2      1.981      2.596
REMARK  Name = 
REMARK  11 active torsions:
REMARK  status: ('A' for Active; 'I' for Inactive)
REMARK    1  A    between atoms: C_1  and  C_2
REMARK    2  A    between atoms: C_2  and  C_3
REMARK    3  A    between atoms: C_2  and  O_4
REMARK    4  A    between atoms: O_4  and  C_5
REMARK    5  A    between atoms: N_7  and  C_8
REMARK    6  A    between atoms: C_8  and  C_9
REMARK    7  A    between atoms: C_8  and  C_19
REMARK    8  A    between atoms: C_9  and  C_10
REMARK    9  A    between atoms: N_21  and  C_22
REMARK   10  A    between atoms: C_22  and  C_23
REMARK   11  A    between atoms: C_23  and  C_24
REMARK                            x       y       z     vdW  Elec       q    Type
REMARK                         _______ _______ _______ _____ _____    ______ ____
ROOT
ATOM      1  C   UNL     1       2.495   6.351  19.866  0.00  0.00    +0.000 C 
ENDROOT
BRANCH   1   4
ATOM      2  C   UNL     1       1.646   4.139  20.554  0.00  0.00    +0.000 C 
ATOM      3  O   UNL     1       2.319   4.088  21.574  0.00  0.00    +0.000 OA
ATOM      4  N   UNL     1       1.607   5.199  19.703  0.00  0.00    +0.000 N 
ATOM      5  H   UNL     1       1.055   5.095  18.864  0.00  0.00    +0.000 HD
BRANCH   2   6
ATOM      6  O   UNL     1       0.793   3.178  20.122  0.00  0.00    +0.000 OA
BRANCH   6   8
ATOM      7  C   UNL     1       1.359   3.474  17.793  0.00  0.00    +0.000 C 
ATOM      8  C   UNL     1       1.202   2.478  18.928  0.00  0.00    +0.000 C 
ATOM      9  C   UNL     1       2.554   1.831  19.208  0.00  0.00    +0.000 C 
ENDBRANCH   6   8
ENDBRANCH   2   6
ENDBRANCH   1   4
BRANCH   1  10
ATOM     10  C   UNL     1       1.753   7.632  20.295  0.00  0.00    +0.000 C 
ATOM     11  O   UNL     1       1.195   7.722  21.388  0.00  0.00    +0.000 OA
ATOM     12  N   UNL     1       1.790   8.680  19.397  0.00  0.00    +0.000 N 
ATOM     13  H   UNL     1       2.000   8.436  18.434  0.00  0.00    +0.000 HD
BRANCH  12  14
ATOM     14  C   UNL     1       0.991   9.869  19.649  0.00  0.00    +0.000 C 
BRANCH  14  15
ATOM     15  C   UNL     1       0.343  10.452  18.392  0.00  0.00    +0.000 C 
BRANCH  15  16
ATOM     16  C   UNL     1      -1.025  11.021  18.628  0.00  0.00    +0.000 A 
ATOM     17  C   UNL     1      -1.445  11.702  19.755  0.00  0.00    +0.000 A 
ATOM     18  N   UNL     1      -2.760  12.047  19.589  0.00  0.00    +0.000 N 
ATOM     19  C   UNL     1      -3.205  11.639  18.354  0.00  0.00    +0.000 A 
ATOM     20  C   UNL     1      -4.466  11.778  17.760  0.00  0.00    +0.000 A 
ATOM     21  C   UNL     1      -4.662  11.191  16.505  0.00  0.00    +0.000 A 
ATOM     22  C   UNL     1      -3.627  10.514  15.863  0.00  0.00    +0.000 A 
ATOM     23  C   UNL     1      -2.364  10.408  16.460  0.00  0.00    +0.000 A 
ATOM     24  C   UNL     1      -2.146  10.972  17.735  0.00  0.00    +0.000 A 
ATOM     25  H   UNL     1      -3.329  12.519  20.278  0.00  0.00    +0.000 HD
ENDBRANCH  15  16
ENDBRANCH  14  15
ENDBRANCH  12  14
ENDBRANCH   1  10
BRANCH   1  26
ATOM     26  C   UNL     1       3.299   6.670  18.599  0.00  0.00    +0.000 C 
BRANCH  26  27
ATOM     27  C   UNL     1       4.528   5.817  18.423  0.00  0.00    +0.000 A 
ATOM     28  C   UNL     1       5.244   5.213  19.438  0.00  0.00    +0.000 A 
ATOM     29  N   UNL     1       6.317   4.572  18.881  0.00  0.00    +0.000 N 
ATOM     30  C   UNL     1       6.330   4.761  17.519  0.00  0.00    +0.000 A 
ATOM     31  C   UNL     1       7.264   4.342  16.563  0.00  0.00    +0.000 A 
ATOM     32  C   UNL     1       7.015   4.674  15.227  0.00  0.00    +0.000 A 
ATOM     33  C   UNL     1       5.862   5.362  14.864  0.00  0.00    +0.000 A 
ATOM     34  C   UNL     1       4.937   5.766  15.834  0.00  0.00    +0.000 A 
ATOM     35  C   UNL     1       5.186   5.488  17.194  0.00  0.00    +0.000 A 
ATOM     36  H   UNL     1       7.014   4.048  19.392  0.00  0.00    +0.000 HD
ENDBRANCH  26  27
ENDBRANCH   1  26
TORSDOF 9
ENDMDL
MODEL 8
REMARK VINA RESULT:      -8.2      1.774      2.509
REMARK  Name = 
REMARK  11 active torsions:
REMARK  status: ('A' for Active; 'I' for Inactive)
REMARK    1  A    between atoms: C_1  and  C_2
REMARK    2  A    between atoms: C_2  and  C_3
REMARK    3  A    between atoms: C_2  and  O_4
REMARK    4  A    between atoms: O_4  and  C_5
REMARK    5  A    between atoms: N_7  and  C_8
REMARK    6  A    between atoms: C_8  and  C_9
REMARK    7  A    between atoms: C_8  and  C_19
REMARK    8  A    between atoms: C_9  and  C_10
REMARK    9  A    between atoms: N_21  and  C_22
REMARK   10  A    between atoms: C_22  and  C_23
REMARK   11  A    between atoms: C_23  and  C_24
REMARK                            x       y       z     vdW  Elec       q    Type
REMARK                         _______ _______ _______ _____ _____    ______ ____
ROOT
ATOM      1  C   UNL     1       4.210   4.558  17.880  0.00  0.00    +0.000 C 
ENDROOT
BRANCH   1   4
ATOM      2  C   UNL     1       3.928   2.869  19.656  0.00  0.00    +0.000 C 
ATOM      3  O   UNL     1       5.118   2.820  19.936  0.00  0.00    +0.000 OA
ATOM      4  N   UNL     1       3.381   3.708  18.736  0.00  0.00    +0.000 N 
ATOM      5  H   UNL     1       2.393   3.610  18.555  0.00  0.00    +0.000 HD
BRANCH   2   6
ATOM      6  O   UNL     1       2.949   2.135  20.241  0.00  0.00    +0.000 OA
BRANCH   6   8
ATOM      7  C   UNL     1       2.517   4.205  21.408  0.00  0.00    +0.000 C 
ATOM      8  C   UNL     1       1.927   2.895  20.919  0.00  0.00    +0.000 C 
ATOM      9  C   UNL     1       0.824   3.197  19.909  0.00  0.00    +0.000 C 
ENDBRANCH   6   8
ENDBRANCH   2   6
ENDBRANCH   1   4
BRANCH   1  10
ATOM     10  C   UNL     1       3.699   6.009  17.789  0.00  0.00    +0.000 C 
ATOM     11  O   UNL     1       4.424   6.928  17.413  0.00  0.00    +0.000 OA
ATOM     12  N   UNL     1       2.370   6.202  18.112  0.00  0.00    +0.000 N 
ATOM     13  H   UNL     1       1.939   5.477  18.678  0.00  0.00    +0.000 HD
BRANCH  12  14
ATOM     14  C   UNL     1       1.843   7.554  18.202  0.00  0.00    +0.000 C 
BRANCH  14  15
ATOM     15  C   UNL     1       1.934   8.156  19.605  0.00  0.00    +0.000 C 
BRANCH  15  16
ATOM     16  C   UNL     1       1.037   9.341  19.811  0.00  0.00    +0.000 A 
ATOM     17  C   UNL     1       0.703  10.290  18.863  0.00  0.00    +0.000 A 
ATOM     18  N   UNL     1      -0.126  11.212  19.444  0.00  0.00    +0.000 N 
ATOM     19  C   UNL     1      -0.376  10.867  20.751  0.00  0.00    +0.000 A 
ATOM     20  C   UNL     1      -1.160  11.511  21.718  0.00  0.00    +0.000 A 
ATOM     21  C   UNL     1      -1.174  10.970  23.008  0.00  0.00    +0.000 A 
ATOM     22  C   UNL     1      -0.448   9.819  23.309  0.00  0.00    +0.000 A 
ATOM     23  C   UNL     1       0.309   9.173  22.323  0.00  0.00    +0.000 A 
ATOM     24  C   UNL     1       0.357   9.710  21.019  0.00  0.00    +0.000 A 
ATOM     25  H   UNL     1      -0.490  12.036  18.988  0.00  0.00    +0.000 HD
ENDBRANCH  15  16
ENDBRANCH  14  15
ENDBRANCH  12  14
ENDBRANCH   1  10
BRANCH   1  26
ATOM     26  C   UNL     1       4.350   4.013  16.453  0.00  0.00    +0.000 C 
BRANCH  26  27
ATOM     27  C   UNL     1       5.620   4.432  15.759  0.00  0.00    +0.000 A 
ATOM     28  C   UNL     1       6.658   5.139  16.333  0.00  0.00    +0.000 A 
ATOM     29  N   UNL     1       7.602   5.370  15.369  0.00  0.00    +0.000 N 
ATOM     30  C   UNL     1       7.193   4.844  14.167  0.00  0.00    +0.000 A 
ATOM     31  C   UNL     1       7.806   4.894  12.908  0.00  0.00    +0.000 A 
ATOM     32  C   UNL     1       7.159   4.255  11.847  0.00  0.00    +0.000 A 
ATOM     33  C   UNL     1       5.968   3.564  12.047  0.00  0.00    +0.000 A 
ATOM     34  C   UNL     1       5.374   3.519  13.313  0.00  0.00    +0.000 A 
ATOM     35  C   UNL     1       5.980   4.196  14.393  0.00  0.00    +0.000 A 
ATOM     36  H   UNL     1       8.469   5.869  15.509  0.00  0.00    +0.000 HD
ENDBRANCH  26  27
ENDBRANCH   1  26
TORSDOF 9
ENDMDL
MODEL 9
REMARK VINA RESULT:      -8.1      4.867      8.337
REMARK  Name = 
REMARK  11 active torsions:
REMARK  status: ('A' for Active; 'I' for Inactive)
REMARK    1  A    between atoms: C_1  and  C_2
REMARK    2  A    between atoms: C_2  and  C_3
REMARK    3  A    between atoms: C_2  and  O_4
REMARK    4  A    between atoms: O_4  and  C_5
REMARK    5  A    between atoms: N_7  and  C_8
REMARK    6  A    between atoms: C_8  and  C_9
REMARK    7  A    between atoms: C_8  and  C_19
REMARK    8  A    between atoms: C_9  and  C_10
REMARK    9  A    between atoms: N_21  and  C_22
REMARK   10  A    between atoms: C_22  and  C_23
REMARK   11  A    between atoms: C_23  and  C_24
REMARK                            x       y       z     vdW  Elec       q    Type
REMARK                         _______ _______ _______ _____ _____    ______ ____
ROOT
ATOM      1  C   UNL     1       5.690   6.098  17.797  0.00  0.00    +0.000 C 
ENDROOT
BRANCH   1   4
ATOM      2  C   UNL     1       5.365   5.658  15.391  0.00  0.00    +0.000 C 
ATOM      3  O   UNL     1       5.290   6.839  15.085  0.00  0.00    +0.000 OA
ATOM      4  N   UNL     1       5.616   5.197  16.646  0.00  0.00    +0.000 N 
ATOM      5  H   UNL     1       5.595   4.197  16.781  0.00  0.00    +0.000 HD
BRANCH   2   6
ATOM      6  O   UNL     1       5.257   4.611  14.536  0.00  0.00    +0.000 OA
BRANCH   6   8
ATOM      7  C   UNL     1       6.251   3.546  12.610  0.00  0.00    +0.000 C 
ATOM      8  C   UNL     1       6.501   4.126  13.991  0.00  0.00    +0.000 C 
ATOM      9  C   UNL     1       7.449   5.314  13.863  0.00  0.00    +0.000 C 
ENDBRANCH   6   8
ENDBRANCH   2   6
ENDBRANCH   1   4
BRANCH   1  10
ATOM     10  C   UNL     1       7.065   6.778  17.948  0.00  0.00    +0.000 C 
ATOM     11  O   UNL     1       8.029   6.189  18.436  0.00  0.00    +0.000 OA
ATOM     12  N   UNL     1       7.157   8.068  17.463  0.00  0.00    +0.000 N 
ATOM     13  H   UNL     1       6.280   8.568  17.357  0.00  0.00    +0.000 HD
BRANCH  12  14
ATOM     14  C   UNL     1       8.368   8.838  17.700  0.00  0.00    +0.000 C 
BRANCH  14  15
ATOM     15  C   UNL     1       8.103  10.264  18.187  0.00  0.00    +0.000 C 
BRANCH  15  16
ATOM     16  C   UNL     1       9.258  11.197  17.975  0.00  0.00    +0.000 A 
ATOM     17  C   UNL     1      10.578  10.835  17.779  0.00  0.00    +0.000 A 
ATOM     18  N   UNL     1      11.324  11.974  17.637  0.00  0.00    +0.000 N 
ATOM     19  C   UNL     1      10.513  13.083  17.696  0.00  0.00    +0.000 A 
ATOM     20  C   UNL     1      10.838  14.442  17.599  0.00  0.00    +0.000 A 
ATOM     21  C   UNL     1       9.806  15.371  17.775  0.00  0.00    +0.000 A 
ATOM     22  C   UNL     1       8.499  14.951  18.016  0.00  0.00    +0.000 A 
ATOM     23  C   UNL     1       8.188  13.587  18.083  0.00  0.00    +0.000 A 
ATOM     24  C   UNL     1       9.214  12.630  17.930  0.00  0.00    +0.000 A 
ATOM     25  H   UNL     1      12.327  12.002  17.520  0.00  0.00    +0.000 HD
ENDBRANCH  15  16
ENDBRANCH  14  15
ENDBRANCH  12  14
ENDBRANCH   1  10
BRANCH   1  26
ATOM     26  C   UNL     1       5.358   5.402  19.123  0.00  0.00    +0.000 C 
BRANCH  26  27
ATOM     27  C   UNL     1       3.882   5.219  19.365  0.00  0.00    +0.000 A 
ATOM     28  C   UNL     1       3.054   6.111  20.018  0.00  0.00    +0.000 A 
ATOM     29  N   UNL     1       1.801   5.564  20.080  0.00  0.00    +0.000 N 
ATOM     30  C   UNL     1       1.795   4.319  19.497  0.00  0.00    +0.000 A 
ATOM     31  C   UNL     1       0.760   3.382  19.387  0.00  0.00    +0.000 A 
ATOM     32  C   UNL     1       1.040   2.183  18.726  0.00  0.00    +0.000 A 
ATOM     33  C   UNL     1       2.292   1.950  18.166  0.00  0.00    +0.000 A 
ATOM     34  C   UNL     1       3.312   2.901  18.280  0.00  0.00    +0.000 A 
ATOM     35  C   UNL     1       3.073   4.100  18.985  0.00  0.00    +0.000 A 
ATOM     36  H   UNL     1       0.995   5.998  20.508  0.00  0.00    +0.000 HD
ENDBRANCH  26  27
ENDBRANCH   1  26
TORSDOF 9
ENDMDL
