MODEL 1
REMARK VINA RESULT:      -8.1      0.000      0.000
REMARK  Name = 
REMARK  3 active torsions:
REMARK  status: ('A' for Active; 'I' for Inactive)
REMARK    1  A    between atoms: C_1  and  O_2
REMARK    2  A    between atoms: O_2  and  C_3
REMARK    3  A    between atoms: C_4  and  O_5
REMARK                            x       y       z     vdW  Elec       q    Type
REMARK                         _______ _______ _______ _____ _____    ______ ____
ROOT
ATOM      1  C   UNL     1       4.076   5.115  17.592  0.00  0.00    +0.000 A 
ATOM      2  C   UNL     1       4.621   3.820  17.610  0.00  0.00    +0.000 A 
ATOM      3  C   UNL     1       4.313   2.935  18.626  0.00  0.00    +0.000 A 
ATOM      4  C   UNL     1       3.505   3.366  19.674  0.00  0.00    +0.000 A 
ATOM      5  C   UNL     1       2.968   4.673  19.709  0.00  0.00    +0.000 A 
ATOM      6  C   UNL     1       2.191   5.095  20.785  0.00  0.00    +0.000 A 
ATOM      7  N   UNL     1       1.620   6.320  20.930  0.00  0.00    +0.000 NA
ATOM      8  C   UNL     1       1.801   7.247  19.965  0.00  0.00    +0.000 A 
ATOM      9  C   UNL     1       1.219   8.571  20.073  0.00  0.00    +0.000 A 
ATOM     10  C   UNL     1       0.390   9.056  21.142  0.00  0.00    +0.000 A 
ATOM     11  C   UNL     1      -0.107  10.364  21.102  0.00  0.00    +0.000 A 
ATOM     12  C   UNL     1       0.208  11.218  20.079  0.00  0.00    +0.000 A 
ATOM     13  C   UNL     1       0.992  10.824  19.037  0.00  0.00    +0.000 A 
ATOM     14  C   UNL     1       1.470   9.515  19.032  0.00  0.00    +0.000 A 
ATOM     15  C   UNL     1       2.206   9.152  17.930  0.00  0.00    +0.000 A 
ATOM     16  C   UNL     1       2.729   7.885  17.825  0.00  0.00    +0.000 A 
ATOM     17  C   UNL     1       2.583   6.902  18.817  0.00  0.00    +0.000 A 
ATOM     18  C   UNL     1       3.206   5.594  18.669  0.00  0.00    +0.000 A 
ATOM     19  O   UNL     1      -0.343  12.452  20.197  0.00  0.00    +0.000 OA
ATOM     20  C   UNL     1      -1.186  12.239  21.341  0.00  0.00    +0.000 C 
ATOM     21  O   UNL     1      -0.939  10.973  22.001  0.00  0.00    +0.000 OA
ENDROOT
BRANCH   1  23
ATOM     22  C   UNL     1       5.743   6.631  16.700  0.00  0.00    +0.000 C 
ATOM     23  O   UNL     1       4.458   6.013  16.617  0.00  0.00    +0.000 OA
ENDBRANCH   1  23
BRANCH   2  24
ATOM     24  O   UNL     1       5.542   3.381  16.700  0.00  0.00    +0.000 OA
ATOM     25  H   UNL     1       6.075   2.711  17.162  0.00  0.00    +0.000 HD
ENDBRANCH   2  24
TORSDOF 2
ENDMDL
MODEL 2
REMARK VINA RESULT:      -7.9      1.721      2.973
REMARK  Name = 
REMARK  3 active torsions:
REMARK  status: ('A' for Active; 'I' for Inactive)
REMARK    1  A    between atoms: C_1  and  O_2
REMARK    2  A    between atoms: O_2  and  C_3
REMARK    3  A    between atoms: C_4  and  O_5
REMARK                            x       y       z     vdW  Elec       q    Type
REMARK                         _______ _______ _______ _____ _____    ______ ____
ROOT
ATOM      1  C   UNL     1       3.638   4.863  19.649  0.00  0.00    +0.000 A 
ATOM      2  C   UNL     1       4.504   3.938  19.042  0.00  0.00    +0.000 A 
ATOM      3  C   UNL     1       5.096   4.214  17.825  0.00  0.00    +0.000 A 
ATOM      4  C   UNL     1       4.773   5.399  17.170  0.00  0.00    +0.000 A 
ATOM      5  C   UNL     1       3.877   6.337  17.732  0.00  0.00    +0.000 A 
ATOM      6  C   UNL     1       3.539   7.500  17.044  0.00  0.00    +0.000 A 
ATOM      7  N   UNL     1       2.696   8.473  17.480  0.00  0.00    +0.000 NA
ATOM      8  C   UNL     1       2.107   8.339  18.687  0.00  0.00    +0.000 A 
ATOM      9  C   UNL     1       1.196   9.345  19.197  0.00  0.00    +0.000 A 
ATOM     10  C   UNL     1       0.828  10.573  18.548  0.00  0.00    +0.000 A 
ATOM     11  C   UNL     1      -0.063  11.454  19.172  0.00  0.00    +0.000 A 
ATOM     12  C   UNL     1      -0.632  11.158  20.383  0.00  0.00    +0.000 A 
ATOM     13  C   UNL     1      -0.330  10.009  21.050  0.00  0.00    +0.000 A 
ATOM     14  C   UNL     1       0.584   9.132  20.469  0.00  0.00    +0.000 A 
ATOM     15  C   UNL     1       0.897   8.019  21.211  0.00  0.00    +0.000 A 
ATOM     16  C   UNL     1       1.785   7.085  20.730  0.00  0.00    +0.000 A 
ATOM     17  C   UNL     1       2.398   7.177  19.470  0.00  0.00    +0.000 A 
ATOM     18  C   UNL     1       3.290   6.128  18.997  0.00  0.00    +0.000 A 
ATOM     19  O   UNL     1      -1.482  12.109  20.844  0.00  0.00    +0.000 OA
ATOM     20  C   UNL     1      -1.269  13.132  19.857  0.00  0.00    +0.000 C 
ATOM     21  O   UNL     1      -0.487  12.676  18.726  0.00  0.00    +0.000 OA
ENDROOT
BRANCH   1  23
ATOM     22  C   UNL     1       1.876   3.644  20.782  0.00  0.00    +0.000 C 
ATOM     23  O   UNL     1       2.989   4.537  20.822  0.00  0.00    +0.000 OA
ENDBRANCH   1  23
BRANCH   2  24
ATOM     24  O   UNL     1       4.746   2.691  19.551  0.00  0.00    +0.000 OA
ATOM     25  H   UNL     1       4.340   2.066  18.926  0.00  0.00    +0.000 HD
ENDBRANCH   2  24
TORSDOF 2
ENDMDL
MODEL 3
REMARK VINA RESULT:      -7.8      1.485      7.365
REMARK  Name = 
REMARK  3 active torsions:
REMARK  status: ('A' for Active; 'I' for Inactive)
REMARK    1  A    between atoms: C_1  and  O_2
REMARK    2  A    between atoms: O_2  and  C_3
REMARK    3  A    between atoms: C_4  and  O_5
REMARK                            x       y       z     vdW  Elec       q    Type
REMARK                         _______ _______ _______ _____ _____    ______ ____
ROOT
ATOM      1  C   UNL     1      -0.725  11.988  20.019  0.00  0.00    +0.000 A 
ATOM      2  C   UNL     1      -1.552  12.791  20.823  0.00  0.00    +0.000 A 
ATOM      3  C   UNL     1      -1.783  12.468  22.146  0.00  0.00    +0.000 A 
ATOM      4  C   UNL     1      -1.238  11.295  22.660  0.00  0.00    +0.000 A 
ATOM      5  C   UNL     1      -0.431  10.443  21.872  0.00  0.00    +0.000 A 
ATOM      6  C   UNL     1       0.075   9.255  22.395  0.00  0.00    +0.000 A 
ATOM      7  N   UNL     1       0.860   8.362  21.739  0.00  0.00    +0.000 NA
ATOM      8  C   UNL     1       1.204   8.606  20.457  0.00  0.00    +0.000 A 
ATOM      9  C   UNL     1       2.035   7.681  19.710  0.00  0.00    +0.000 A 
ATOM     10  C   UNL     1       2.607   6.458  20.200  0.00  0.00    +0.000 A 
ATOM     11  C   UNL     1       3.399   5.669  19.357  0.00  0.00    +0.000 A 
ATOM     12  C   UNL     1       3.618   6.016  18.050  0.00  0.00    +0.000 A 
ATOM     13  C   UNL     1       3.102   7.160  17.520  0.00  0.00    +0.000 A 
ATOM     14  C   UNL     1       2.341   7.983  18.348  0.00  0.00    +0.000 A 
ATOM     15  C   UNL     1       1.895   9.153  17.781  0.00  0.00    +0.000 A 
ATOM     16  C   UNL     1       1.131  10.036  18.508  0.00  0.00    +0.000 A 
ATOM     17  C   UNL     1       0.734   9.805  19.835  0.00  0.00    +0.000 A 
ATOM     18  C   UNL     1      -0.120  10.756  20.533  0.00  0.00    +0.000 A 
ATOM     19  O   UNL     1       4.395   5.140  17.366  0.00  0.00    +0.000 OA
ATOM     20  C   UNL     1       4.787   4.266  18.439  0.00  0.00    +0.000 C 
ATOM     21  O   UNL     1       4.053   4.508  19.664  0.00  0.00    +0.000 OA
ENDROOT
BRANCH   1  23
ATOM     22  C   UNL     1      -1.624  11.956  17.769  0.00  0.00    +0.000 C 
ATOM     23  O   UNL     1      -0.572  12.277  18.679  0.00  0.00    +0.000 OA
ENDBRANCH   1  23
BRANCH   2  24
ATOM     24  O   UNL     1      -2.244  13.869  20.346  0.00  0.00    +0.000 OA
ATOM     25  H   UNL     1      -1.613  14.609  20.340  0.00  0.00    +0.000 HD
ENDBRANCH   2  24
TORSDOF 2
ENDMDL
MODEL 4
REMARK VINA RESULT:      -7.7      1.660      7.586
REMARK  Name = 
REMARK  3 active torsions:
REMARK  status: ('A' for Active; 'I' for Inactive)
REMARK    1  A    between atoms: C_1  and  O_2
REMARK    2  A    between atoms: O_2  and  C_3
REMARK    3  A    between atoms: C_4  and  O_5
REMARK                            x       y       z     vdW  Elec       q    Type
REMARK                         _______ _______ _______ _____ _____    ______ ____
ROOT
ATOM      1  C   UNL     1       0.633  10.756  21.206  0.00  0.00    +0.000 A 
ATOM      2  C   UNL     1       0.381  12.134  21.093  0.00  0.00    +0.000 A 
ATOM      3  C   UNL     1       0.569  12.792  19.893  0.00  0.00    +0.000 A 
ATOM      4  C   UNL     1       1.076  12.085  18.807  0.00  0.00    +0.000 A 
ATOM      5  C   UNL     1       1.376  10.706  18.893  0.00  0.00    +0.000 A 
ATOM      6  C   UNL     1       1.917  10.025  17.805  0.00  0.00    +0.000 A 
ATOM      7  N   UNL     1       2.243   8.706  17.767  0.00  0.00    +0.000 NA
ATOM      8  C   UNL     1       2.042   7.948  18.865  0.00  0.00    +0.000 A 
ATOM      9  C   UNL     1       2.377   6.537  18.879  0.00  0.00    +0.000 A 
ATOM     10  C   UNL     1       2.913   5.774  17.785  0.00  0.00    +0.000 A 
ATOM     11  C   UNL     1       3.180   4.410  17.948  0.00  0.00    +0.000 A 
ATOM     12  C   UNL     1       2.979   3.780  19.148  0.00  0.00    +0.000 A 
ATOM     13  C   UNL     1       2.478   4.445  20.226  0.00  0.00    +0.000 A 
ATOM     14  C   UNL     1       2.167   5.795  20.080  0.00  0.00    +0.000 A 
ATOM     15  C   UNL     1       1.610   6.402  21.180  0.00  0.00    +0.000 A 
ATOM     16  C   UNL     1       1.270   7.734  21.147  0.00  0.00    +0.000 A 
ATOM     17  C   UNL     1       1.486   8.560  20.032  0.00  0.00    +0.000 A 
ATOM     18  C   UNL     1       1.150   9.977  20.078  0.00  0.00    +0.000 A 
ATOM     19  O   UNL     1       3.299   2.462  19.143  0.00  0.00    +0.000 OA
ATOM     20  C   UNL     1       3.579   2.280  17.744  0.00  0.00    +0.000 C 
ATOM     21  O   UNL     1       3.644   3.528  17.011  0.00  0.00    +0.000 OA
ENDROOT
BRANCH   1  23
ATOM     22  C   UNL     1      -0.765   9.998  23.035  0.00  0.00    +0.000 C 
ATOM     23  O   UNL     1       0.522  10.131  22.431  0.00  0.00    +0.000 OA
ENDBRANCH   1  23
BRANCH   2  24
ATOM     24  O   UNL     1       0.031  12.922  22.154  0.00  0.00    +0.000 OA
ATOM     25  H   UNL     1      -0.031  12.326  22.920  0.00  0.00    +0.000 HD
ENDBRANCH   2  24
TORSDOF 2
ENDMDL
MODEL 5
REMARK VINA RESULT:      -7.6      1.931      3.759
REMARK  Name = 
REMARK  3 active torsions:
REMARK  status: ('A' for Active; 'I' for Inactive)
REMARK    1  A    between atoms: C_1  and  O_2
REMARK    2  A    between atoms: O_2  and  C_3
REMARK    3  A    between atoms: C_4  and  O_5
REMARK                            x       y       z     vdW  Elec       q    Type
REMARK                         _______ _______ _______ _____ _____    ______ ____
ROOT
ATOM      1  C   UNL     1       2.596   6.281  19.645  0.00  0.00    +0.000 A 
ATOM      2  C   UNL     1       3.356   5.585  18.690  0.00  0.00    +0.000 A 
ATOM      3  C   UNL     1       3.748   6.196  17.514  0.00  0.00    +0.000 A 
ATOM      4  C   UNL     1       3.323   7.495  17.254  0.00  0.00    +0.000 A 
ATOM      5  C   UNL     1       2.527   8.214  18.174  0.00  0.00    +0.000 A 
ATOM      6  C   UNL     1       2.082   9.501  17.879  0.00  0.00    +0.000 A 
ATOM      7  N   UNL     1       1.318  10.288  18.681  0.00  0.00    +0.000 NA
ATOM      8  C   UNL     1       0.928   9.818  19.884  0.00  0.00    +0.000 A 
ATOM      9  C   UNL     1       0.108  10.615  20.776  0.00  0.00    +0.000 A 
ATOM     10  C   UNL     1      -0.360  11.953  20.540  0.00  0.00    +0.000 A 
ATOM     11  C   UNL     1      -1.142  12.601  21.503  0.00  0.00    +0.000 A 
ATOM     12  C   UNL     1      -1.511  11.974  22.664  0.00  0.00    +0.000 A 
ATOM     13  C   UNL     1      -1.106  10.705  22.949  0.00  0.00    +0.000 A 
ATOM     14  C   UNL     1      -0.294  10.051  22.024  0.00  0.00    +0.000 A 
ATOM     15  C   UNL     1       0.134   8.797  22.387  0.00  0.00    +0.000 A 
ATOM     16  C   UNL     1       0.935   8.060  21.546  0.00  0.00    +0.000 A 
ATOM     17  C   UNL     1       1.341   8.506  20.277  0.00  0.00    +0.000 A 
ATOM     18  C   UNL     1       2.148   7.656  19.412  0.00  0.00    +0.000 A 
ATOM     19  O   UNL     1      -2.278  12.734  23.485  0.00  0.00    +0.000 OA
ATOM     20  C   UNL     1      -2.226  13.987  22.784  0.00  0.00    +0.000 C 
ATOM     21  O   UNL     1      -1.632  13.877  21.467  0.00  0.00    +0.000 OA
ENDROOT
BRANCH   1  23
ATOM     22  C   UNL     1       1.219   4.551  20.637  0.00  0.00    +0.000 C 
ATOM     23  O   UNL     1       2.142   5.632  20.774  0.00  0.00    +0.000 OA
ENDBRANCH   1  23
BRANCH   2  24
ATOM     24  O   UNL     1       3.678   4.261  18.806  0.00  0.00    +0.000 OA
ATOM     25  H   UNL     1       4.240   4.192  19.597  0.00  0.00    +0.000 HD
ENDBRANCH   2  24
TORSDOF 2
ENDMDL
MODEL 6
REMARK VINA RESULT:      -7.5      1.058      1.122
REMARK  Name = 
REMARK  3 active torsions:
REMARK  status: ('A' for Active; 'I' for Inactive)
REMARK    1  A    between atoms: C_1  and  O_2
REMARK    2  A    between atoms: O_2  and  C_3
REMARK    3  A    between atoms: C_4  and  O_5
REMARK                            x       y       z     vdW  Elec       q    Type
REMARK                         _______ _______ _______ _____ _____    ______ ____
ROOT
ATOM      1  C   UNL     1       3.424   3.947  17.834  0.00  0.00    +0.000 A 
ATOM      2  C   UNL     1       3.729   2.586  18.005  0.00  0.00    +0.000 A 
ATOM      3  C   UNL     1       3.411   1.930  19.179  0.00  0.00    +0.000 A 
ATOM      4  C   UNL     1       2.841   2.653  20.223  0.00  0.00    +0.000 A 
ATOM      5  C   UNL     1       2.554   4.032  20.101  0.00  0.00    +0.000 A 
ATOM      6  C   UNL     1       2.016   4.745  21.171  0.00  0.00    +0.000 A 
ATOM      7  N   UNL     1       1.696   6.066  21.173  0.00  0.00    +0.000 NA
ATOM      8  C   UNL     1       1.905   6.794  20.056  0.00  0.00    +0.000 A 
ATOM      9  C   UNL     1       1.587   8.209  20.007  0.00  0.00    +0.000 A 
ATOM     10  C   UNL     1       1.009   8.992  21.064  0.00  0.00    +0.000 A 
ATOM     11  C   UNL     1       0.751  10.353  20.865  0.00  0.00    +0.000 A 
ATOM     12  C   UNL     1       1.070  10.977  19.688  0.00  0.00    +0.000 A 
ATOM     13  C   UNL     1       1.624  10.294  18.647  0.00  0.00    +0.000 A 
ATOM     14  C   UNL     1       1.857   8.930  18.805  0.00  0.00    +0.000 A 
ATOM     15  C   UNL     1       2.360   8.278  17.705  0.00  0.00    +0.000 A 
ATOM     16  C   UNL     1       2.633   6.931  17.753  0.00  0.00    +0.000 A 
ATOM     17  C   UNL     1       2.451   6.146  18.903  0.00  0.00    +0.000 A 
ATOM     18  C   UNL     1       2.807   4.734  18.905  0.00  0.00    +0.000 A 
ATOM     19  O   UNL     1       0.767  12.298  19.661  0.00  0.00    +0.000 OA
ATOM     20  C   UNL     1       0.062  12.417  20.908  0.00  0.00    +0.000 C 
ATOM     21  O   UNL     1       0.169  11.233  21.736  0.00  0.00    +0.000 OA
ENDROOT
BRANCH   1  23
ATOM     22  C   UNL     1       5.204   4.927  16.513  0.00  0.00    +0.000 C 
ATOM     23  O   UNL     1       3.824   4.606  16.691  0.00  0.00    +0.000 OA
ENDBRANCH   1  23
BRANCH   2  24
ATOM     24  O   UNL     1       4.426   1.852  17.086  0.00  0.00    +0.000 OA
ATOM     25  H   UNL     1       3.945   1.950  16.247  0.00  0.00    +0.000 HD
ENDBRANCH   2  24
TORSDOF 2
ENDMDL
MODEL 7
REMARK VINA RESULT:      -7.4      1.433      7.092
REMARK  Name = 
REMARK  3 active torsions:
REMARK  status: ('A' for Active; 'I' for Inactive)
REMARK    1  A    between atoms: C_1  and  O_2
REMARK    2  A    between atoms: O_2  and  C_3
REMARK    3  A    between atoms: C_4  and  O_5
REMARK                            x       y       z     vdW  Elec       q    Type
REMARK                         _______ _______ _______ _____ _____    ______ ____
ROOT
ATOM      1  C   UNL     1       0.581  11.613  19.610  0.00  0.00    +0.000 A 
ATOM      2  C   UNL     1      -0.136  12.635  20.255  0.00  0.00    +0.000 A 
ATOM      3  C   UNL     1      -0.671  12.440  21.514  0.00  0.00    +0.000 A 
ATOM      4  C   UNL     1      -0.548  11.191  22.113  0.00  0.00    +0.000 A 
ATOM      5  C   UNL     1       0.134  10.127  21.480  0.00  0.00    +0.000 A 
ATOM      6  C   UNL     1       0.214   8.873  22.081  0.00  0.00    +0.000 A 
ATOM      7  N   UNL     1       0.842   7.780  21.575  0.00  0.00    +0.000 NA
ATOM      8  C   UNL     1       1.456   7.872  20.376  0.00  0.00    +0.000 A 
ATOM      9  C   UNL     1       2.136   6.733  19.787  0.00  0.00    +0.000 A 
ATOM     10  C   UNL     1       2.274   5.426  20.368  0.00  0.00    +0.000 A 
ATOM     11  C   UNL     1       2.969   4.426  19.679  0.00  0.00    +0.000 A 
ATOM     12  C   UNL     1       3.495   4.647  18.434  0.00  0.00    +0.000 A 
ATOM     13  C   UNL     1       3.396   5.861  17.824  0.00  0.00    +0.000 A 
ATOM     14  C   UNL     1       2.742   6.887  18.504  0.00  0.00    +0.000 A 
ATOM     15  C   UNL     1       2.722   8.106  17.870  0.00  0.00    +0.000 A 
ATOM     16  C   UNL     1       2.099   9.187  18.450  0.00  0.00    +0.000 A 
ATOM     17  C   UNL     1       1.430   9.123  19.683  0.00  0.00    +0.000 A 
ATOM     18  C   UNL     1       0.745  10.291  20.220  0.00  0.00    +0.000 A 
ATOM     19  O   UNL     1       4.125   3.572  17.898  0.00  0.00    +0.000 OA
ATOM     20  C   UNL     1       4.082   2.675  19.020  0.00  0.00    +0.000 C 
ATOM     21  O   UNL     1       3.235   3.150  20.094  0.00  0.00    +0.000 OA
ENDROOT
BRANCH   1  23
ATOM     22  C   UNL     1       2.208  12.577  18.095  0.00  0.00    +0.000 C 
ATOM     23  O   UNL     1       1.035  11.794  18.320  0.00  0.00    +0.000 OA
ENDBRANCH   1  23
BRANCH   2  24
ATOM     24  O   UNL     1      -0.429  13.833  19.664  0.00  0.00    +0.000 OA
ATOM     25  H   UNL     1       0.350  14.398  19.806  0.00  0.00    +0.000 HD
ENDBRANCH   2  24
TORSDOF 2
ENDMDL
MODEL 8
REMARK VINA RESULT:      -7.3      1.543      7.620
REMARK  Name = 
REMARK  3 active torsions:
REMARK  status: ('A' for Active; 'I' for Inactive)
REMARK    1  A    between atoms: C_1  and  O_2
REMARK    2  A    between atoms: O_2  and  C_3
REMARK    3  A    between atoms: C_4  and  O_5
REMARK                            x       y       z     vdW  Elec       q    Type
REMARK                         _______ _______ _______ _____ _____    ______ ____
ROOT
ATOM      1  C   UNL     1      -0.402  10.155  21.299  0.00  0.00    +0.000 A 
ATOM      2  C   UNL     1      -1.062  11.387  21.446  0.00  0.00    +0.000 A 
ATOM      3  C   UNL     1      -0.954  12.368  20.480  0.00  0.00    +0.000 A 
ATOM      4  C   UNL     1      -0.127  12.148  19.382  0.00  0.00    +0.000 A 
ATOM      5  C   UNL     1       0.581  10.936  19.218  0.00  0.00    +0.000 A 
ATOM      6  C   UNL     1       1.432  10.749  18.131  0.00  0.00    +0.000 A 
ATOM      7  N   UNL     1       2.159   9.633  17.865  0.00  0.00    +0.000 NA
ATOM      8  C   UNL     1       2.083   8.582  18.710  0.00  0.00    +0.000 A 
ATOM      9  C   UNL     1       2.843   7.369  18.476  0.00  0.00    +0.000 A 
ATOM     10  C   UNL     1       3.715   7.108  17.364  0.00  0.00    +0.000 A 
ATOM     11  C   UNL     1       4.379   5.879  17.271  0.00  0.00    +0.000 A 
ATOM     12  C   UNL     1       4.250   4.920  18.240  0.00  0.00    +0.000 A 
ATOM     13  C   UNL     1       3.443   5.105  19.323  0.00  0.00    +0.000 A 
ATOM     14  C   UNL     1       2.741   6.305  19.421  0.00  0.00    +0.000 A 
ATOM     15  C   UNL     1       1.897   6.415  20.501  0.00  0.00    +0.000 A 
ATOM     16  C   UNL     1       1.159   7.559  20.697  0.00  0.00    +0.000 A 
ATOM     17  C   UNL     1       1.230   8.680  19.855  0.00  0.00    +0.000 A 
ATOM     18  C   UNL     1       0.461   9.882  20.147  0.00  0.00    +0.000 A 
ATOM     19  O   UNL     1       4.968   3.794  18.006  0.00  0.00    +0.000 OA
ATOM     20  C   UNL     1       5.452   4.079  16.683  0.00  0.00    +0.000 C 
ATOM     21  O   UNL     1       5.204   5.445  16.269  0.00  0.00    +0.000 OA
ENDROOT
BRANCH   1  23
ATOM     22  C   UNL     1       0.257   9.464  23.526  0.00  0.00    +0.000 C 
ATOM     23  O   UNL     1      -0.451   9.219  22.310  0.00  0.00    +0.000 OA
ENDBRANCH   1  23
BRANCH   2  24
ATOM     24  O   UNL     1      -1.764  11.733  22.567  0.00  0.00    +0.000 OA
ATOM     25  H   UNL     1      -2.380  10.999  22.732  0.00  0.00    +0.000 HD
ENDBRANCH   2  24
TORSDOF 2
ENDMDL
MODEL 9
REMARK VINA RESULT:      -7.2      8.789      9.835
REMARK  Name = 
REMARK  3 active torsions:
REMARK  status: ('A' for Active; 'I' for Inactive)
REMARK    1  A    between atoms: C_1  and  O_2
REMARK    2  A    between atoms: O_2  and  C_3
REMARK    3  A    between atoms: C_4  and  O_5
REMARK                            x       y       z     vdW  Elec       q    Type
REMARK                         _______ _______ _______ _____ _____    ______ ____
ROOT
ATOM      1  C   UNL     1       9.964  14.513  17.956  0.00  0.00    +0.000 A 
ATOM      2  C   UNL     1      10.946  14.371  16.960  0.00  0.00    +0.000 A 
ATOM      3  C   UNL     1      11.800  13.286  16.958  0.00  0.00    +0.000 A 
ATOM      4  C   UNL     1      11.721  12.361  17.995  0.00  0.00    +0.000 A 
ATOM      5  C   UNL     1      10.771  12.490  19.034  0.00  0.00    +0.000 A 
ATOM      6  C   UNL     1      10.733  11.574  20.082  0.00  0.00    +0.000 A 
ATOM      7  N   UNL     1       9.868  11.591  21.130  0.00  0.00    +0.000 NA
ATOM      8  C   UNL     1       8.944  12.572  21.203  0.00  0.00    +0.000 A 
ATOM      9  C   UNL     1       8.001  12.641  22.303  0.00  0.00    +0.000 A 
ATOM     10  C   UNL     1       7.896  11.715  23.397  0.00  0.00    +0.000 A 
ATOM     11  C   UNL     1       6.924  11.909  24.386  0.00  0.00    +0.000 A 
ATOM     12  C   UNL     1       6.085  12.991  24.361  0.00  0.00    +0.000 A 
ATOM     13  C   UNL     1       6.134  13.909  23.356  0.00  0.00    +0.000 A 
ATOM     14  C   UNL     1       7.067  13.719  22.338  0.00  0.00    +0.000 A 
ATOM     15  C   UNL     1       7.035  14.641  21.319  0.00  0.00    +0.000 A 
ATOM     16  C   UNL     1       7.915  14.551  20.266  0.00  0.00    +0.000 A 
ATOM     17  C   UNL     1       8.904  13.559  20.168  0.00  0.00    +0.000 A 
ATOM     18  C   UNL     1       9.840  13.549  19.052  0.00  0.00    +0.000 A 
ATOM     19  O   UNL     1       5.211  13.039  25.398  0.00  0.00    +0.000 OA
ATOM     20  C   UNL     1       5.481  11.766  26.009  0.00  0.00    +0.000 C 
ATOM     21  O   UNL     1       6.653  11.112  25.464  0.00  0.00    +0.000 OA
ENDROOT
BRANCH   1  23
ATOM     22  C   UNL     1       9.735  16.873  18.454  0.00  0.00    +0.000 C 
ATOM     23  O   UNL     1       9.175  15.644  17.993  0.00  0.00    +0.000 OA
ENDBRANCH   1  23
BRANCH   2  24
ATOM     24  O   UNL     1      11.184  15.316  16.001  0.00  0.00    +0.000 OA
ATOM     25  H   UNL     1      10.551  15.134  15.285  0.00  0.00    +0.000 HD
ENDBRANCH   2  24
TORSDOF 2
ENDMDL
