MODEL 1
REMARK VINA RESULT:      -7.4      0.000      0.000
REMARK  Name = 
REMARK  3 active torsions:
REMARK  status: ('A' for Active; 'I' for Inactive)
REMARK    1  A    between atoms: C_1  and  C_2
REMARK    2  A    between atoms: C_14  and  C_15
REMARK    3  A    between atoms: N_23  and  C_24
REMARK                            x       y       z     vdW  Elec       q    Type
REMARK                         _______ _______ _______ _____ _____    ______ ____
ROOT
ATOM      1  C   UNL     1       5.750   3.410  15.836  0.00  0.00    +0.000 C 
ATOM      2  C   UNL     1       4.898   4.070  16.880  0.00  0.00    +0.000 A 
ATOM      3  C   UNL     1       4.489   3.386  18.021  0.00  0.00    +0.000 A 
ATOM      4  C   UNL     1       3.697   4.023  18.987  0.00  0.00    +0.000 A 
ATOM      5  C   UNL     1       3.288   5.362  18.849  0.00  0.00    +0.000 A 
ATOM      6  C   UNL     1       3.700   6.034  17.694  0.00  0.00    +0.000 A 
ATOM      7  C   UNL     1       4.498   5.398  16.721  0.00  0.00    +0.000 A 
ATOM      8  N   UNL     1       3.296   7.420  17.465  0.00  0.00    +0.000 N 
ATOM      9  O   UNL     1       3.685   7.974  16.385  0.00  0.00    +0.000 OA
ATOM     10  C   UNL     1       2.559   8.036  18.348  0.00  0.00    +0.000 A 
ATOM     11  C   UNL     1       2.107   9.439  18.157  0.00  0.00    +0.000 A 
ATOM     12  O   UNL     1       2.443  10.075  17.177  0.00  0.00    +0.000 OA
ATOM     13  N   UNL     1       1.311   9.995  19.113  0.00  0.00    +0.000 NA
ATOM     14  C   UNL     1       1.033   9.323  20.172  0.00  0.00    +0.000 A 
ATOM     15  N   UNL     1       1.446   8.041  20.434  0.00  0.00    +0.000 NA
ATOM     16  C   UNL     1       2.145   7.356  19.593  0.00  0.00    +0.000 A 
ATOM     17  N   UNL     1       2.507   6.037  19.796  0.00  0.00    +0.000 N 
ATOM     18  C   UNL     1       2.054   5.301  20.976  0.00  0.00    +0.000 C 
ENDROOT
BRANCH  14  19
ATOM     19  C   UNL     1       0.166   9.943  21.215  0.00  0.00    +0.000 A 
ATOM     20  C   UNL     1       0.072   9.370  22.492  0.00  0.00    +0.000 A 
ATOM     21  C   UNL     1      -0.756   9.950  23.453  0.00  0.00    +0.000 A 
ATOM     22  C   UNL     1      -1.484  11.102  23.146  0.00  0.00    +0.000 A 
ATOM     23  C   UNL     1      -1.371  11.686  21.884  0.00  0.00    +0.000 A 
ATOM     24  C   UNL     1      -0.547  11.111  20.922  0.00  0.00    +0.000 A 
ENDBRANCH  14  19
TORSDOF 1
ENDMDL
MODEL 2
REMARK VINA RESULT:      -7.2      1.659      7.379
REMARK  Name = 
REMARK  3 active torsions:
REMARK  status: ('A' for Active; 'I' for Inactive)
REMARK    1  A    between atoms: C_1  and  C_2
REMARK    2  A    between atoms: C_14  and  C_15
REMARK    3  A    between atoms: N_23  and  C_24
REMARK                            x       y       z     vdW  Elec       q    Type
REMARK                         _______ _______ _______ _____ _____    ______ ____
ROOT
ATOM      1  C   UNL     1      -1.921  15.154  21.602  0.00  0.00    +0.000 C 
ATOM      2  C   UNL     1      -1.408  13.748  21.704  0.00  0.00    +0.000 A 
ATOM      3  C   UNL     1      -1.606  12.984  22.851  0.00  0.00    +0.000 A 
ATOM      4  C   UNL     1      -1.123  11.670  22.923  0.00  0.00    +0.000 A 
ATOM      5  C   UNL     1      -0.428  11.072  21.857  0.00  0.00    +0.000 A 
ATOM      6  C   UNL     1      -0.229  11.853  20.714  0.00  0.00    +0.000 A 
ATOM      7  C   UNL     1      -0.715  13.175  20.636  0.00  0.00    +0.000 A 
ATOM      8  N   UNL     1       0.505  11.313  19.572  0.00  0.00    +0.000 N 
ATOM      9  O   UNL     1       0.672  12.078  18.566  0.00  0.00    +0.000 OA
ATOM     10  C   UNL     1       0.965  10.093  19.614  0.00  0.00    +0.000 A 
ATOM     11  C   UNL     1       1.732   9.501  18.487  0.00  0.00    +0.000 A 
ATOM     12  O   UNL     1       1.927  10.130  17.464  0.00  0.00    +0.000 OA
ATOM     13  N   UNL     1       2.206   8.231  18.627  0.00  0.00    +0.000 NA
ATOM     14  C   UNL     1       1.923   7.565  19.689  0.00  0.00    +0.000 A 
ATOM     15  N   UNL     1       1.189   8.032  20.750  0.00  0.00    +0.000 NA
ATOM     16  C   UNL     1       0.733   9.239  20.797  0.00  0.00    +0.000 A 
ATOM     17  N   UNL     1       0.060   9.760  21.886  0.00  0.00    +0.000 N 
ATOM     18  C   UNL     1      -0.124   8.977  23.108  0.00  0.00    +0.000 C 
ENDROOT
BRANCH  14  19
ATOM     19  C   UNL     1       2.441   6.175  19.830  0.00  0.00    +0.000 A 
ATOM     20  C   UNL     1       1.753   5.237  20.614  0.00  0.00    +0.000 A 
ATOM     21  C   UNL     1       2.258   3.944  20.752  0.00  0.00    +0.000 A 
ATOM     22  C   UNL     1       3.443   3.583  20.106  0.00  0.00    +0.000 A 
ATOM     23  C   UNL     1       4.114   4.508  19.307  0.00  0.00    +0.000 A 
ATOM     24  C   UNL     1       3.615   5.799  19.166  0.00  0.00    +0.000 A 
ENDBRANCH  14  19
TORSDOF 1
ENDMDL
MODEL 3
REMARK VINA RESULT:      -7.2      1.740      6.832
REMARK  Name = 
REMARK  3 active torsions:
REMARK  status: ('A' for Active; 'I' for Inactive)
REMARK    1  A    between atoms: C_1  and  C_2
REMARK    2  A    between atoms: C_14  and  C_15
REMARK    3  A    between atoms: N_23  and  C_24
REMARK                            x       y       z     vdW  Elec       q    Type
REMARK                         _______ _______ _______ _____ _____    ______ ____
ROOT
ATOM      1  C   UNL     1      -0.109  14.758  19.356  0.00  0.00    +0.000 C 
ATOM      2  C   UNL     1       0.118  13.351  19.825  0.00  0.00    +0.000 A 
ATOM      3  C   UNL     1      -0.300  12.929  21.084  0.00  0.00    +0.000 A 
ATOM      4  C   UNL     1      -0.083  11.607  21.500  0.00  0.00    +0.000 A 
ATOM      5  C   UNL     1       0.557  10.663  20.677  0.00  0.00    +0.000 A 
ATOM      6  C   UNL     1       0.979  11.103  19.419  0.00  0.00    +0.000 A 
ATOM      7  C   UNL     1       0.761  12.430  18.995  0.00  0.00    +0.000 A 
ATOM      8  N   UNL     1       1.673  10.189  18.514  0.00  0.00    +0.000 N 
ATOM      9  O   UNL     1       2.052  10.651  17.388  0.00  0.00    +0.000 OA
ATOM     10  C   UNL     1       1.888   8.955  18.877  0.00  0.00    +0.000 A 
ATOM     11  C   UNL     1       2.603   7.988  18.003  0.00  0.00    +0.000 A 
ATOM     12  O   UNL     1       2.984   8.313  16.894  0.00  0.00    +0.000 OA
ATOM     13  N   UNL     1       2.815   6.728  18.474  0.00  0.00    +0.000 NA
ATOM     14  C   UNL     1       2.338   6.393  19.619  0.00  0.00    +0.000 A 
ATOM     15  N   UNL     1       1.636   7.218  20.461  0.00  0.00    +0.000 NA
ATOM     16  C   UNL     1       1.416   8.460  20.187  0.00  0.00    +0.000 A 
ATOM     17  N   UNL     1       0.782   9.332  21.051  0.00  0.00    +0.000 N 
ATOM     18  C   UNL     1       0.368   8.907  22.388  0.00  0.00    +0.000 C 
ENDROOT
BRANCH  14  19
ATOM     19  C   UNL     1       2.570   5.009  20.123  0.00  0.00    +0.000 A 
ATOM     20  C   UNL     1       3.598   4.222  19.585  0.00  0.00    +0.000 A 
ATOM     21  C   UNL     1       3.794   2.922  20.053  0.00  0.00    +0.000 A 
ATOM     22  C   UNL     1       2.973   2.410  21.059  0.00  0.00    +0.000 A 
ATOM     23  C   UNL     1       1.966   3.202  21.613  0.00  0.00    +0.000 A 
ATOM     24  C   UNL     1       1.766   4.498  21.149  0.00  0.00    +0.000 A 
ENDBRANCH  14  19
TORSDOF 1
ENDMDL
MODEL 4
REMARK VINA RESULT:      -7.1      2.226      7.835
REMARK  Name = 
REMARK  3 active torsions:
REMARK  status: ('A' for Active; 'I' for Inactive)
REMARK    1  A    between atoms: C_1  and  C_2
REMARK    2  A    between atoms: C_14  and  C_15
REMARK    3  A    between atoms: N_23  and  C_24
REMARK                            x       y       z     vdW  Elec       q    Type
REMARK                         _______ _______ _______ _____ _____    ______ ____
ROOT
ATOM      1  C   UNL     1      -0.679   9.262  22.903  0.00  0.00    +0.000 C 
ATOM      2  C   UNL     1       0.172   8.965  21.704  0.00  0.00    +0.000 A 
ATOM      3  C   UNL     1       0.362   9.907  20.697  0.00  0.00    +0.000 A 
ATOM      4  C   UNL     1       1.166   9.610  19.587  0.00  0.00    +0.000 A 
ATOM      5  C   UNL     1       1.807   8.366  19.443  0.00  0.00    +0.000 A 
ATOM      6  C   UNL     1       1.601   7.427  20.458  0.00  0.00    +0.000 A 
ATOM      7  C   UNL     1       0.795   7.722  21.577  0.00  0.00    +0.000 A 
ATOM      8  N   UNL     1       2.213   6.102  20.371  0.00  0.00    +0.000 N 
ATOM      9  O   UNL     1       1.973   5.281  21.315  0.00  0.00    +0.000 OA
ATOM     10  C   UNL     1       2.965   5.801  19.349  0.00  0.00    +0.000 A 
ATOM     11  C   UNL     1       3.597   4.464  19.202  0.00  0.00    +0.000 A 
ATOM     12  O   UNL     1       3.460   3.611  20.058  0.00  0.00    +0.000 OA
ATOM     13  N   UNL     1       4.340   4.221  18.087  0.00  0.00    +0.000 NA
ATOM     14  C   UNL     1       4.527   5.165  17.234  0.00  0.00    +0.000 A 
ATOM     15  N   UNL     1       4.008   6.432  17.323  0.00  0.00    +0.000 NA
ATOM     16  C   UNL     1       3.226   6.792  18.284  0.00  0.00    +0.000 A 
ATOM     17  N   UNL     1       2.627   8.036  18.357  0.00  0.00    +0.000 N 
ATOM     18  C   UNL     1       2.794   9.020  17.288  0.00  0.00    +0.000 C 
ENDROOT
BRANCH  14  19
ATOM     19  C   UNL     1       5.346   4.891  16.019  0.00  0.00    +0.000 A 
ATOM     20  C   UNL     1       6.679   5.321  15.951  0.00  0.00    +0.000 A 
ATOM     21  C   UNL     1       7.430   5.073  14.801  0.00  0.00    +0.000 A 
ATOM     22  C   UNL     1       6.856   4.393  13.725  0.00  0.00    +0.000 A 
ATOM     23  C   UNL     1       5.538   3.943  13.802  0.00  0.00    +0.000 A 
ATOM     24  C   UNL     1       4.785   4.188  14.946  0.00  0.00    +0.000 A 
ENDBRANCH  14  19
TORSDOF 1
ENDMDL
MODEL 5
REMARK VINA RESULT:      -7.0      1.730      7.511
REMARK  Name = 
REMARK  3 active torsions:
REMARK  status: ('A' for Active; 'I' for Inactive)
REMARK    1  A    between atoms: C_1  and  C_2
REMARK    2  A    between atoms: C_14  and  C_15
REMARK    3  A    between atoms: N_23  and  C_24
REMARK                            x       y       z     vdW  Elec       q    Type
REMARK                         _______ _______ _______ _____ _____    ______ ____
ROOT
ATOM      1  C   UNL     1      -2.014  14.598  22.936  0.00  0.00    +0.000 C 
ATOM      2  C   UNL     1      -1.456  13.277  22.494  0.00  0.00    +0.000 A 
ATOM      3  C   UNL     1      -1.713  12.107  23.204  0.00  0.00    +0.000 A 
ATOM      4  C   UNL     1      -1.186  10.882  22.771  0.00  0.00    +0.000 A 
ATOM      5  C   UNL     1      -0.388  10.781  21.618  0.00  0.00    +0.000 A 
ATOM      6  C   UNL     1      -0.131  11.965  20.919  0.00  0.00    +0.000 A 
ATOM      7  C   UNL     1      -0.660  13.199  21.350  0.00  0.00    +0.000 A 
ATOM      8  N   UNL     1       0.711  11.947  19.724  0.00  0.00    +0.000 N 
ATOM      9  O   UNL     1       0.926  13.060  19.141  0.00  0.00    +0.000 OA
ATOM     10  C   UNL     1       1.213  10.820  19.301  0.00  0.00    +0.000 A 
ATOM     11  C   UNL     1       2.088  10.749  18.101  0.00  0.00    +0.000 A 
ATOM     12  O   UNL     1       2.337  11.745  17.450  0.00  0.00    +0.000 OA
ATOM     13  N   UNL     1       2.599   9.536  17.748  0.00  0.00    +0.000 NA
ATOM     14  C   UNL     1       2.259   8.490  18.413  0.00  0.00    +0.000 A 
ATOM     15  N   UNL     1       1.427   8.475  19.504  0.00  0.00    +0.000 NA
ATOM     16  C   UNL     1       0.923   9.552  20.002  0.00  0.00    +0.000 A 
ATOM     17  N   UNL     1       0.147   9.575  21.146  0.00  0.00    +0.000 N 
ATOM     18  C   UNL     1      -0.102   8.356  21.917  0.00  0.00    +0.000 C 
ENDROOT
BRANCH  14  19
ATOM     19  C   UNL     1       2.819   7.167  18.014  0.00  0.00    +0.000 A 
ATOM     20  C   UNL     1       2.091   5.990  18.246  0.00  0.00    +0.000 A 
ATOM     21  C   UNL     1       2.634   4.757  17.883  0.00  0.00    +0.000 A 
ATOM     22  C   UNL     1       3.895   4.696  17.286  0.00  0.00    +0.000 A 
ATOM     23  C   UNL     1       4.608   5.867  17.033  0.00  0.00    +0.000 A 
ATOM     24  C   UNL     1       4.071   7.100  17.393  0.00  0.00    +0.000 A 
ENDBRANCH  14  19
TORSDOF 1
ENDMDL
MODEL 6
REMARK VINA RESULT:      -7.0      1.972      2.940
REMARK  Name = 
REMARK  3 active torsions:
REMARK  status: ('A' for Active; 'I' for Inactive)
REMARK    1  A    between atoms: C_1  and  C_2
REMARK    2  A    between atoms: C_14  and  C_15
REMARK    3  A    between atoms: N_23  and  C_24
REMARK                            x       y       z     vdW  Elec       q    Type
REMARK                         _______ _______ _______ _____ _____    ______ ____
ROOT
ATOM      1  C   UNL     1       6.297   3.557  15.218  0.00  0.00    +0.000 C 
ATOM      2  C   UNL     1       5.518   4.658  15.874  0.00  0.00    +0.000 A 
ATOM      3  C   UNL     1       5.512   5.951  15.357  0.00  0.00    +0.000 A 
ATOM      4  C   UNL     1       4.773   6.964  15.983  0.00  0.00    +0.000 A 
ATOM      5  C   UNL     1       4.015   6.725  17.143  0.00  0.00    +0.000 A 
ATOM      6  C   UNL     1       4.036   5.424  17.656  0.00  0.00    +0.000 A 
ATOM      7  C   UNL     1       4.776   4.401  17.029  0.00  0.00    +0.000 A 
ATOM      8  N   UNL     1       3.293   5.100  18.873  0.00  0.00    +0.000 N 
ATOM      9  O   UNL     1       3.366   3.903  19.304  0.00  0.00    +0.000 OA
ATOM     10  C   UNL     1       2.598   6.025  19.474  0.00  0.00    +0.000 A 
ATOM     11  C   UNL     1       1.838   5.754  20.722  0.00  0.00    +0.000 A 
ATOM     12  O   UNL     1       1.812   4.639  21.208  0.00  0.00    +0.000 OA
ATOM     13  N   UNL     1       1.165   6.785  21.305  0.00  0.00    +0.000 NA
ATOM     14  C   UNL     1       1.151   7.935  20.729  0.00  0.00    +0.000 A 
ATOM     15  N   UNL     1       1.796   8.248  19.559  0.00  0.00    +0.000 NA
ATOM     16  C   UNL     1       2.532   7.397  18.927  0.00  0.00    +0.000 A 
ATOM     17  N   UNL     1       3.255   7.707  17.791  0.00  0.00    +0.000 N 
ATOM     18  C   UNL     1       3.281   9.070  17.259  0.00  0.00    +0.000 C 
ENDROOT
BRANCH  14  19
ATOM     19  C   UNL     1       0.408   9.056  21.372  0.00  0.00    +0.000 A 
ATOM     20  C   UNL     1      -0.041   8.943  22.696  0.00  0.00    +0.000 A 
ATOM     21  C   UNL     1      -0.751   9.993  23.280  0.00  0.00    +0.000 A 
ATOM     22  C   UNL     1      -1.008  11.155  22.549  0.00  0.00    +0.000 A 
ATOM     23  C   UNL     1      -0.540  11.278  21.241  0.00  0.00    +0.000 A 
ATOM     24  C   UNL     1       0.168  10.234  20.654  0.00  0.00    +0.000 A 
ENDBRANCH  14  19
TORSDOF 1
ENDMDL
MODEL 7
REMARK VINA RESULT:      -7.0      2.784      8.258
REMARK  Name = 
REMARK  3 active torsions:
REMARK  status: ('A' for Active; 'I' for Inactive)
REMARK    1  A    between atoms: C_1  and  C_2
REMARK    2  A    between atoms: C_14  and  C_15
REMARK    3  A    between atoms: N_23  and  C_24
REMARK                            x       y       z     vdW  Elec       q    Type
REMARK                         _______ _______ _______ _____ _____    ______ ____
ROOT
ATOM      1  C   UNL     1      -4.246  14.666  22.272  0.00  0.00    +0.000 C 
ATOM      2  C   UNL     1      -3.445  13.646  21.517  0.00  0.00    +0.000 A 
ATOM      3  C   UNL     1      -3.621  13.451  20.150  0.00  0.00    +0.000 A 
ATOM      4  C   UNL     1      -2.858  12.497  19.463  0.00  0.00    +0.000 A 
ATOM      5  C   UNL     1      -1.895  11.705  20.113  0.00  0.00    +0.000 A 
ATOM      6  C   UNL     1      -1.734  11.905  21.488  0.00  0.00    +0.000 A 
ATOM      7  C   UNL     1      -2.497  12.866  22.183  0.00  0.00    +0.000 A 
ATOM      8  N   UNL     1      -0.770  11.105  22.241  0.00  0.00    +0.000 N 
ATOM      9  O   UNL     1      -0.682  11.318  23.494  0.00  0.00    +0.000 OA
ATOM     10  C   UNL     1      -0.048  10.210  21.625  0.00  0.00    +0.000 A 
ATOM     11  C   UNL     1       0.934   9.358  22.346  0.00  0.00    +0.000 A 
ATOM     12  O   UNL     1       1.123   9.495  23.539  0.00  0.00    +0.000 OA
ATOM     13  N   UNL     1       1.623   8.424  21.632  0.00  0.00    +0.000 NA
ATOM     14  C   UNL     1       1.455   8.352  20.359  0.00  0.00    +0.000 A 
ATOM     15  N   UNL     1       0.597   9.129  19.624  0.00  0.00    +0.000 NA
ATOM     16  C   UNL     1      -0.176  10.009  20.167  0.00  0.00    +0.000 A 
ATOM     17  N   UNL     1      -1.105  10.750  19.461  0.00  0.00    +0.000 N 
ATOM     18  C   UNL     1      -1.320  10.529  18.031  0.00  0.00    +0.000 C 
ENDROOT
BRANCH  14  19
ATOM     19  C   UNL     1       2.217   7.330  19.587  0.00  0.00    +0.000 A 
ATOM     20  C   UNL     1       2.826   7.670  18.370  0.00  0.00    +0.000 A 
ATOM     21  C   UNL     1       3.522   6.700  17.648  0.00  0.00    +0.000 A 
ATOM     22  C   UNL     1       3.617   5.396  18.139  0.00  0.00    +0.000 A 
ATOM     23  C   UNL     1       3.033   5.064  19.361  0.00  0.00    +0.000 A 
ATOM     24  C   UNL     1       2.337   6.028  20.085  0.00  0.00    +0.000 A 
ENDBRANCH  14  19
TORSDOF 1
ENDMDL
MODEL 8
REMARK VINA RESULT:      -6.9      3.104      5.301
REMARK  Name = 
REMARK  3 active torsions:
REMARK  status: ('A' for Active; 'I' for Inactive)
REMARK    1  A    between atoms: C_1  and  C_2
REMARK    2  A    between atoms: C_14  and  C_15
REMARK    3  A    between atoms: N_23  and  C_24
REMARK                            x       y       z     vdW  Elec       q    Type
REMARK                         _______ _______ _______ _____ _____    ______ ____
ROOT
ATOM      1  C   UNL     1       3.522   6.598  18.097  0.00  0.00    +0.000 C 
ATOM      2  C   UNL     1       2.524   7.676  18.399  0.00  0.00    +0.000 A 
ATOM      3  C   UNL     1       1.964   8.451  17.387  0.00  0.00    +0.000 A 
ATOM      4  C   UNL     1       1.029   9.451  17.691  0.00  0.00    +0.000 A 
ATOM      5  C   UNL     1       0.621   9.712  19.011  0.00  0.00    +0.000 A 
ATOM      6  C   UNL     1       1.198   8.932  20.019  0.00  0.00    +0.000 A 
ATOM      7  C   UNL     1       2.137   7.924  19.717  0.00  0.00    +0.000 A 
ATOM      8  N   UNL     1       0.844   9.158  21.419  0.00  0.00    +0.000 N 
ATOM      9  O   UNL     1       1.418   8.430  22.294  0.00  0.00    +0.000 OA
ATOM     10  C   UNL     1      -0.023  10.082  21.728  0.00  0.00    +0.000 A 
ATOM     11  C   UNL     1      -0.405  10.365  23.136  0.00  0.00    +0.000 A 
ATOM     12  O   UNL     1       0.057   9.712  24.052  0.00  0.00    +0.000 OA
ATOM     13  N   UNL     1      -1.293  11.370  23.374  0.00  0.00    +0.000 NA
ATOM     14  C   UNL     1      -1.820  11.995  22.381  0.00  0.00    +0.000 A 
ATOM     15  N   UNL     1      -1.545  11.763  21.058  0.00  0.00    +0.000 NA
ATOM     16  C   UNL     1      -0.672  10.892  20.676  0.00  0.00    +0.000 A 
ATOM     17  N   UNL     1      -0.318  10.693  19.355  0.00  0.00    +0.000 N 
ATOM     18  C   UNL     1      -0.877  11.523  18.288  0.00  0.00    +0.000 C 
ENDROOT
BRANCH  14  19
ATOM     19  C   UNL     1      -2.794  13.090  22.652  0.00  0.00    +0.000 A 
ATOM     20  C   UNL     1      -2.471  14.124  23.543  0.00  0.00    +0.000 A 
ATOM     21  C   UNL     1      -3.399  15.133  23.800  0.00  0.00    +0.000 A 
ATOM     22  C   UNL     1      -4.643  15.117  23.167  0.00  0.00    +0.000 A 
ATOM     23  C   UNL     1      -4.956  14.103  22.262  0.00  0.00    +0.000 A 
ATOM     24  C   UNL     1      -4.034  13.093  22.002  0.00  0.00    +0.000 A 
ENDBRANCH  14  19
TORSDOF 1
ENDMDL
MODEL 9
REMARK VINA RESULT:      -6.8      1.775      7.549
REMARK  Name = 
REMARK  3 active torsions:
REMARK  status: ('A' for Active; 'I' for Inactive)
REMARK    1  A    between atoms: C_1  and  C_2
REMARK    2  A    between atoms: C_14  and  C_15
REMARK    3  A    between atoms: N_23  and  C_24
REMARK                            x       y       z     vdW  Elec       q    Type
REMARK                         _______ _______ _______ _____ _____    ______ ____
ROOT
ATOM      1  C   UNL     1      -1.551  15.723  22.023  0.00  0.00    +0.000 C 
ATOM      2  C   UNL     1      -1.149  14.278  21.979  0.00  0.00    +0.000 A 
ATOM      3  C   UNL     1      -1.459  13.407  23.019  0.00  0.00    +0.000 A 
ATOM      4  C   UNL     1      -1.078  12.059  22.956  0.00  0.00    +0.000 A 
ATOM      5  C   UNL     1      -0.377  11.534  21.856  0.00  0.00    +0.000 A 
ATOM      6  C   UNL     1      -0.065  12.423  20.822  0.00  0.00    +0.000 A 
ATOM      7  C   UNL     1      -0.448  13.779  20.880  0.00  0.00    +0.000 A 
ATOM      8  N   UNL     1       0.684  11.960  19.655  0.00  0.00    +0.000 N 
ATOM      9  O   UNL     1       0.957  12.820  18.754  0.00  0.00    +0.000 OA
ATOM     10  C   UNL     1       1.050  10.711  19.572  0.00  0.00    +0.000 A 
ATOM     11  C   UNL     1       1.826  10.193  18.415  0.00  0.00    +0.000 A 
ATOM     12  O   UNL     1       2.118  10.917  17.483  0.00  0.00    +0.000 OA
ATOM     13  N   UNL     1       2.198   8.882  18.424  0.00  0.00    +0.000 NA
ATOM     14  C   UNL     1       1.814   8.123  19.388  0.00  0.00    +0.000 A 
ATOM     15  N   UNL     1       1.065   8.523  20.466  0.00  0.00    +0.000 NA
ATOM     16  C   UNL     1       0.697   9.748  20.636  0.00  0.00    +0.000 A 
ATOM     17  N   UNL     1       0.011  10.193  21.750  0.00  0.00    +0.000 N 
ATOM     18  C   UNL     1      -0.291   9.292  22.862  0.00  0.00    +0.000 C 
ENDROOT
BRANCH  14  19
ATOM     19  C   UNL     1       2.221   6.689  19.386  0.00  0.00    +0.000 A 
ATOM     20  C   UNL     1       2.829   6.126  18.254  0.00  0.00    +0.000 A 
ATOM     21  C   UNL     1       3.189   4.778  18.259  0.00  0.00    +0.000 A 
ATOM     22  C   UNL     1       2.951   3.995  19.389  0.00  0.00    +0.000 A 
ATOM     23  C   UNL     1       2.369   4.560  20.524  0.00  0.00    +0.000 A 
ATOM     24  C   UNL     1       2.007   5.904  20.525  0.00  0.00    +0.000 A 
ENDBRANCH  14  19
TORSDOF 1
ENDMDL
