MODEL 1
REMARK VINA RESULT:      -8.7      0.000      0.000
REMARK  Name = 
REMARK  7 active torsions:
REMARK  status: ('A' for Active; 'I' for Inactive)
REMARK    1  A    between atoms: C_1  and  C_2
REMARK    2  A    between atoms: C_6  and  C_7
REMARK    3  A    between atoms: C_12  and  N_13
REMARK    4  A    between atoms: N_16  and  C_17
REMARK    5  A    between atoms: C_17  and  C_18
REMARK    6  A    between atoms: C_20  and  C_21
REMARK    7  A    between atoms: C_30  and  C_31
REMARK                            x       y       z     vdW  Elec       q    Type
REMARK                         _______ _______ _______ _____ _____    ______ ____
ROOT
ATOM      1  C   UNL     1      -0.146  11.146  21.769  0.00  0.00    +0.000 A 
ATOM      2  C   UNL     1       0.259  11.168  20.486  0.00  0.00    +0.000 A 
ATOM      3  C   UNL     1       0.946  10.056  19.868  0.00  0.00    +0.000 A 
ATOM      4  C   UNL     1       1.158  10.000  18.497  0.00  0.00    +0.000 A 
ATOM      5  C   UNL     1       1.765   8.874  17.919  0.00  0.00    +0.000 A 
ATOM      6  C   UNL     1       2.204   7.780  18.680  0.00  0.00    +0.000 A 
ATOM      7  C   UNL     1       1.976   7.869  20.073  0.00  0.00    +0.000 A 
ATOM      8  C   UNL     1       1.339   8.983  20.643  0.00  0.00    +0.000 A 
ATOM      9  O   UNL     1       1.050   8.987  22.024  0.00  0.00    +0.000 OA
ATOM     10  C   UNL     1       0.253   9.982  22.625  0.00  0.00    +0.000 A 
ATOM     11  O   UNL     1      -0.069   9.878  23.807  0.00  0.00    +0.000 OA
ENDROOT
BRANCH   1  17
ATOM     12  C   UNL     1      -3.416  16.867  24.976  0.00  0.00    +0.000 C 
ATOM     13  C   UNL     1      -3.095  15.527  24.377  0.00  0.00    +0.000 A 
ATOM     14  C   UNL     1      -2.023  15.340  23.577  0.00  0.00    +0.000 A 
ATOM     15  N   UNL     1      -1.773  14.071  23.090  0.00  0.00    +0.000 N 
ATOM     16  C   UNL     1      -0.757  13.558  22.323  0.00  0.00    +0.000 A 
ATOM     17  C   UNL     1      -0.996  12.199  22.261  0.00  0.00    +0.000 A 
ATOM     18  N   UNL     1      -2.170  11.884  22.931  0.00  0.00    +0.000 NA
ATOM     19  C   UNL     1      -2.600  13.029  23.418  0.00  0.00    +0.000 A 
ATOM     20  C   UNL     1      -3.737  13.299  24.267  0.00  0.00    +0.000 A 
ATOM     21  C   UNL     1      -4.672  12.189  24.655  0.00  0.00    +0.000 C 
ATOM     22  N   UNL     1      -3.968  14.504  24.723  0.00  0.00    +0.000 NA
ENDBRANCH   1  17
BRANCH   6  23
ATOM     23  N   UNL     1       2.813   6.693  18.082  0.00  0.00    +0.000 N 
ATOM     24  C   UNL     1       4.168   6.711  17.502  0.00  0.00    +0.000 C 
ATOM     25  C   UNL     1       5.024   5.498  17.992  0.00  0.00    +0.000 C 
ATOM     26  N   UNL     1       4.370   4.164  18.100  0.00  0.00    +0.000 NA
ATOM     27  C   UNL     1       2.999   4.306  18.662  0.00  0.00    +0.000 C 
ATOM     28  C   UNL     1       3.091   4.568  20.173  0.00  0.00    +0.000 C 
ATOM     29  C   UNL     1       2.151   5.391  17.955  0.00  0.00    +0.000 C 
BRANCH  26  30
ATOM     30  C   UNL     1       4.425   3.434  16.820  0.00  0.00    +0.000 C 
BRANCH  30  31
ATOM     31  C   UNL     1       5.608   3.786  15.907  0.00  0.00    +0.000 C 
ATOM     32  F   UNL     1       5.144   4.490  14.837  0.00  0.00    +0.000 F 
ENDBRANCH  30  31
ENDBRANCH  26  30
ENDBRANCH   6  23
TORSDOF 4
ENDMDL
MODEL 2
REMARK VINA RESULT:      -8.7      3.845     10.990
REMARK  Name = 
REMARK  7 active torsions:
REMARK  status: ('A' for Active; 'I' for Inactive)
REMARK    1  A    between atoms: C_1  and  C_2
REMARK    2  A    between atoms: C_6  and  C_7
REMARK    3  A    between atoms: C_12  and  N_13
REMARK    4  A    between atoms: N_16  and  C_17
REMARK    5  A    between atoms: C_17  and  C_18
REMARK    6  A    between atoms: C_20  and  C_21
REMARK    7  A    between atoms: C_30  and  C_31
REMARK                            x       y       z     vdW  Elec       q    Type
REMARK                         _______ _______ _______ _____ _____    ______ ____
ROOT
ATOM      1  C   UNL     1       1.556   8.146  20.223  0.00  0.00    +0.000 A 
ATOM      2  C   UNL     1       1.075   8.442  21.444  0.00  0.00    +0.000 A 
ATOM      3  C   UNL     1       0.332   9.653  21.716  0.00  0.00    +0.000 A 
ATOM      4  C   UNL     1      -0.345   9.841  22.912  0.00  0.00    +0.000 A 
ATOM      5  C   UNL     1      -1.115  10.997  23.117  0.00  0.00    +0.000 A 
ATOM      6  C   UNL     1      -1.218  12.014  22.156  0.00  0.00    +0.000 A 
ATOM      7  C   UNL     1      -0.514  11.794  20.950  0.00  0.00    +0.000 A 
ATOM      8  C   UNL     1       0.228  10.621  20.736  0.00  0.00    +0.000 A 
ATOM      9  O   UNL     1       0.838  10.403  19.483  0.00  0.00    +0.000 OA
ATOM     10  C   UNL     1       1.437   9.175  19.139  0.00  0.00    +0.000 A 
ATOM     11  O   UNL     1       1.849   8.992  17.995  0.00  0.00    +0.000 OA
ENDROOT
BRANCH   1  17
ATOM     12  C   UNL     1       3.827   1.624  17.772  0.00  0.00    +0.000 C 
ATOM     13  C   UNL     1       3.300   2.759  18.604  0.00  0.00    +0.000 A 
ATOM     14  C   UNL     1       3.477   4.049  18.248  0.00  0.00    +0.000 A 
ATOM     15  N   UNL     1       2.933   5.038  19.047  0.00  0.00    +0.000 N 
ATOM     16  C   UNL     1       2.890   6.404  18.926  0.00  0.00    +0.000 A 
ATOM     17  C   UNL     1       2.107   6.839  19.978  0.00  0.00    +0.000 A 
ATOM     18  N   UNL     1       1.720   5.765  20.768  0.00  0.00    +0.000 NA
ATOM     19  C   UNL     1       2.228   4.707  20.174  0.00  0.00    +0.000 A 
ATOM     20  C   UNL     1       2.086   3.308  20.505  0.00  0.00    +0.000 A 
ATOM     21  C   UNL     1       1.321   2.895  21.730  0.00  0.00    +0.000 C 
ATOM     22  N   UNL     1       2.605   2.378  19.746  0.00  0.00    +0.000 NA
ENDBRANCH   1  17
BRANCH   6  23
ATOM     23  N   UNL     1      -1.972  13.148  22.395  0.00  0.00    +0.000 N 
ATOM     24  C   UNL     1      -2.781  13.841  21.375  0.00  0.00    +0.000 C 
ATOM     25  C   UNL     1      -4.229  14.134  21.886  0.00  0.00    +0.000 C 
ATOM     26  N   UNL     1      -4.408  14.590  23.293  0.00  0.00    +0.000 NA
ATOM     27  C   UNL     1      -3.503  13.833  24.199  0.00  0.00    +0.000 C 
ATOM     28  C   UNL     1      -4.060  12.417  24.412  0.00  0.00    +0.000 C 
ATOM     29  C   UNL     1      -2.034  13.790  23.712  0.00  0.00    +0.000 C 
BRANCH  26  30
ATOM     30  C   UNL     1      -4.284  16.055  23.402  0.00  0.00    +0.000 C 
BRANCH  30  31
ATOM     31  C   UNL     1      -4.118  16.602  24.826  0.00  0.00    +0.000 C 
ATOM     32  F   UNL     1      -5.336  16.994  25.293  0.00  0.00    +0.000 F 
ENDBRANCH  30  31
ENDBRANCH  26  30
ENDBRANCH   6  23
TORSDOF 4
ENDMDL
MODEL 3
REMARK VINA RESULT:      -8.5      1.840      2.722
REMARK  Name = 
REMARK  7 active torsions:
REMARK  status: ('A' for Active; 'I' for Inactive)
REMARK    1  A    between atoms: C_1  and  C_2
REMARK    2  A    between atoms: C_6  and  C_7
REMARK    3  A    between atoms: C_12  and  N_13
REMARK    4  A    between atoms: N_16  and  C_17
REMARK    5  A    between atoms: C_17  and  C_18
REMARK    6  A    between atoms: C_20  and  C_21
REMARK    7  A    between atoms: C_30  and  C_31
REMARK                            x       y       z     vdW  Elec       q    Type
REMARK                         _______ _______ _______ _____ _____    ______ ____
ROOT
ATOM      1  C   UNL     1       0.387  10.856  20.488  0.00  0.00    +0.000 A 
ATOM      2  C   UNL     1       0.657   9.581  20.821  0.00  0.00    +0.000 A 
ATOM      3  C   UNL     1       1.403   8.692  19.957  0.00  0.00    +0.000 A 
ATOM      4  C   UNL     1       1.864   7.461  20.401  0.00  0.00    +0.000 A 
ATOM      5  C   UNL     1       2.645   6.652  19.561  0.00  0.00    +0.000 A 
ATOM      6  C   UNL     1       2.972   7.024  18.248  0.00  0.00    +0.000 A 
ATOM      7  C   UNL     1       2.485   8.282  17.826  0.00  0.00    +0.000 A 
ATOM      8  C   UNL     1       1.732   9.102  18.681  0.00  0.00    +0.000 A 
ATOM      9  O   UNL     1       1.345  10.388  18.248  0.00  0.00    +0.000 OA
ATOM     10  C   UNL     1       0.752  11.329  19.113  0.00  0.00    +0.000 A 
ATOM     11  O   UNL     1       0.542  12.475  18.722  0.00  0.00    +0.000 OA
ENDROOT
BRANCH   1  17
ATOM     12  C   UNL     1      -3.606  15.253  24.782  0.00  0.00    +0.000 C 
ATOM     13  C   UNL     1      -2.509  14.615  23.978  0.00  0.00    +0.000 A 
ATOM     14  C   UNL     1      -2.578  13.331  23.565  0.00  0.00    +0.000 A 
ATOM     15  N   UNL     1      -1.544  12.824  22.799  0.00  0.00    +0.000 N 
ATOM     16  C   UNL     1      -1.353  11.609  22.192  0.00  0.00    +0.000 A 
ATOM     17  C   UNL     1      -0.180  11.740  21.473  0.00  0.00    +0.000 A 
ATOM     18  N   UNL     1       0.373  12.996  21.677  0.00  0.00    +0.000 NA
ATOM     19  C   UNL     1      -0.475  13.616  22.470  0.00  0.00    +0.000 A 
ATOM     20  C   UNL     1      -0.456  14.976  22.954  0.00  0.00    +0.000 A 
ATOM     21  C   UNL     1       0.693  15.883  22.618  0.00  0.00    +0.000 C 
ATOM     22  N   UNL     1      -1.438  15.449  23.680  0.00  0.00    +0.000 NA
ENDBRANCH   1  17
BRANCH   6  23
ATOM     23  N   UNL     1       3.731   6.197  17.440  0.00  0.00    +0.000 N 
ATOM     24  C   UNL     1       4.746   6.671  16.482  0.00  0.00    +0.000 C 
ATOM     25  C   UNL     1       6.092   5.891  16.630  0.00  0.00    +0.000 C 
ATOM     26  N   UNL     1       6.039   4.420  16.863  0.00  0.00    +0.000 NA
ATOM     27  C   UNL     1       4.946   4.088  17.816  0.00  0.00    +0.000 C 
ATOM     28  C   UNL     1       5.379   4.465  19.241  0.00  0.00    +0.000 C 
ATOM     29  C   UNL     1       3.589   4.738  17.452  0.00  0.00    +0.000 C 
BRANCH  26  30
ATOM     30  C   UNL     1       5.976   3.678  15.590  0.00  0.00    +0.000 C 
BRANCH  30  31
ATOM     31  C   UNL     1       6.590   4.390  14.377  0.00  0.00    +0.000 C 
ATOM     32  F   UNL     1       6.216   3.731  13.244  0.00  0.00    +0.000 F 
ENDBRANCH  30  31
ENDBRANCH  26  30
ENDBRANCH   6  23
TORSDOF 4
ENDMDL
MODEL 4
REMARK VINA RESULT:      -8.5      1.010      1.432
REMARK  Name = 
REMARK  7 active torsions:
REMARK  status: ('A' for Active; 'I' for Inactive)
REMARK    1  A    between atoms: C_1  and  C_2
REMARK    2  A    between atoms: C_6  and  C_7
REMARK    3  A    between atoms: C_12  and  N_13
REMARK    4  A    between atoms: N_16  and  C_17
REMARK    5  A    between atoms: C_17  and  C_18
REMARK    6  A    between atoms: C_20  and  C_21
REMARK    7  A    between atoms: C_30  and  C_31
REMARK                            x       y       z     vdW  Elec       q    Type
REMARK                         _______ _______ _______ _____ _____    ______ ____
ROOT
ATOM      1  C   UNL     1      -0.429  10.979  21.860  0.00  0.00    +0.000 A 
ATOM      2  C   UNL     1      -0.052  11.060  20.571  0.00  0.00    +0.000 A 
ATOM      3  C   UNL     1       0.719  10.024  19.920  0.00  0.00    +0.000 A 
ATOM      4  C   UNL     1       0.909  10.012  18.545  0.00  0.00    +0.000 A 
ATOM      5  C   UNL     1       1.603   8.955  17.935  0.00  0.00    +0.000 A 
ATOM      6  C   UNL     1       2.151   7.891  18.667  0.00  0.00    +0.000 A 
ATOM      7  C   UNL     1       1.942   7.934  20.065  0.00  0.00    +0.000 A 
ATOM      8  C   UNL     1       1.219   8.977  20.667  0.00  0.00    +0.000 A 
ATOM      9  O   UNL     1       0.957   8.931  22.053  0.00  0.00    +0.000 OA
ATOM     10  C   UNL     1       0.087   9.840  22.687  0.00  0.00    +0.000 A 
ATOM     11  O   UNL     1      -0.203   9.687  23.871  0.00  0.00    +0.000 OA
ENDROOT
BRANCH   1  17
ATOM     12  C   UNL     1      -5.404  16.174  23.267  0.00  0.00    +0.000 C 
ATOM     13  C   UNL     1      -4.205  15.268  23.289  0.00  0.00    +0.000 A 
ATOM     14  C   UNL     1      -4.185  14.093  22.623  0.00  0.00    +0.000 A 
ATOM     15  N   UNL     1      -3.033  13.329  22.662  0.00  0.00    +0.000 N 
ATOM     16  C   UNL     1      -2.687  12.148  22.057  0.00  0.00    +0.000 A 
ATOM     17  C   UNL     1      -1.360  11.943  22.386  0.00  0.00    +0.000 A 
ATOM     18  N   UNL     1      -0.911  12.952  23.227  0.00  0.00    +0.000 NA
ATOM     19  C   UNL     1      -1.938  13.764  23.362  0.00  0.00    +0.000 A 
ATOM     20  C   UNL     1      -2.030  15.023  24.063  0.00  0.00    +0.000 A 
ATOM     21  C   UNL     1      -0.856  15.542  24.843  0.00  0.00    +0.000 C 
ATOM     22  N   UNL     1      -3.124  15.740  24.023  0.00  0.00    +0.000 NA
ENDBRANCH   1  17
BRANCH   6  23
ATOM     23  N   UNL     1       2.842   6.872  18.037  0.00  0.00    +0.000 N 
ATOM     24  C   UNL     1       4.176   7.023  17.429  0.00  0.00    +0.000 C 
ATOM     25  C   UNL     1       5.150   5.887  17.879  0.00  0.00    +0.000 C 
ATOM     26  N   UNL     1       4.623   4.497  17.980  0.00  0.00    +0.000 NA
ATOM     27  C   UNL     1       3.259   4.504  18.573  0.00  0.00    +0.000 C 
ATOM     28  C   UNL     1       3.361   4.752  20.086  0.00  0.00    +0.000 C 
ATOM     29  C   UNL     1       2.299   5.517  17.903  0.00  0.00    +0.000 C 
BRANCH  26  30
ATOM     30  C   UNL     1       4.715   3.794  16.687  0.00  0.00    +0.000 C 
BRANCH  30  31
ATOM     31  C   UNL     1       5.879   4.220  15.782  0.00  0.00    +0.000 C 
ATOM     32  F   UNL     1       5.405   4.427  14.521  0.00  0.00    +0.000 F 
ENDBRANCH  30  31
ENDBRANCH  26  30
ENDBRANCH   6  23
TORSDOF 4
ENDMDL
MODEL 5
REMARK VINA RESULT:      -8.5      3.823     11.125
REMARK  Name = 
REMARK  7 active torsions:
REMARK  status: ('A' for Active; 'I' for Inactive)
REMARK    1  A    between atoms: C_1  and  C_2
REMARK    2  A    between atoms: C_6  and  C_7
REMARK    3  A    between atoms: C_12  and  N_13
REMARK    4  A    between atoms: N_16  and  C_17
REMARK    5  A    between atoms: C_17  and  C_18
REMARK    6  A    between atoms: C_20  and  C_21
REMARK    7  A    between atoms: C_30  and  C_31
REMARK                            x       y       z     vdW  Elec       q    Type
REMARK                         _______ _______ _______ _____ _____    ______ ____
ROOT
ATOM      1  C   UNL     1       1.548   8.200  20.144  0.00  0.00    +0.000 A 
ATOM      2  C   UNL     1       1.097   8.492  21.377  0.00  0.00    +0.000 A 
ATOM      3  C   UNL     1       0.303   9.668  21.657  0.00  0.00    +0.000 A 
ATOM      4  C   UNL     1      -0.339   9.842  22.876  0.00  0.00    +0.000 A 
ATOM      5  C   UNL     1      -1.160  10.960  23.091  0.00  0.00    +0.000 A 
ATOM      6  C   UNL     1      -1.351  11.954  22.118  0.00  0.00    +0.000 A 
ATOM      7  C   UNL     1      -0.682  11.748  20.890  0.00  0.00    +0.000 A 
ATOM      8  C   UNL     1       0.112  10.611  20.667  0.00  0.00    +0.000 A 
ATOM      9  O   UNL     1       0.686  10.403  19.395  0.00  0.00    +0.000 OA
ATOM     10  C   UNL     1       1.335   9.201  19.048  0.00  0.00    +0.000 A 
ATOM     11  O   UNL     1       1.714   9.020  17.893  0.00  0.00    +0.000 OA
ENDROOT
BRANCH   1  17
ATOM     12  C   UNL     1       4.637   1.554  20.215  0.00  0.00    +0.000 C 
ATOM     13  C   UNL     1       4.262   2.978  19.913  0.00  0.00    +0.000 A 
ATOM     14  C   UNL     1       3.097   3.515  20.333  0.00  0.00    +0.000 A 
ATOM     15  N   UNL     1       2.837   4.843  20.046  0.00  0.00    +0.000 N 
ATOM     16  C   UNL     1       1.797   5.674  20.378  0.00  0.00    +0.000 A 
ATOM     17  C   UNL     1       2.157   6.919  19.899  0.00  0.00    +0.000 A 
ATOM     18  N   UNL     1       3.373   6.846  19.233  0.00  0.00    +0.000 NA
ATOM     19  C   UNL     1       3.749   5.591  19.350  0.00  0.00    +0.000 A 
ATOM     20  C   UNL     1       4.970   4.952  18.918  0.00  0.00    +0.000 A 
ATOM     21  C   UNL     1       6.002   5.731  18.153  0.00  0.00    +0.000 C 
ATOM     22  N   UNL     1       5.209   3.695  19.192  0.00  0.00    +0.000 NA
ENDBRANCH   1  17
BRANCH   6  23
ATOM     23  N   UNL     1      -2.155  13.051  22.367  0.00  0.00    +0.000 N 
ATOM     24  C   UNL     1      -3.047  13.674  21.373  0.00  0.00    +0.000 C 
ATOM     25  C   UNL     1      -4.483  13.902  21.945  0.00  0.00    +0.000 C 
ATOM     26  N   UNL     1      -4.621  14.382  23.348  0.00  0.00    +0.000 NA
ATOM     27  C   UNL     1      -3.634  13.698  24.227  0.00  0.00    +0.000 C 
ATOM     28  C   UNL     1      -4.103  12.260  24.498  0.00  0.00    +0.000 C 
ATOM     29  C   UNL     1      -2.190  13.722  23.671  0.00  0.00    +0.000 C 
BRANCH  26  30
ATOM     30  C   UNL     1      -4.572  15.854  23.418  0.00  0.00    +0.000 C 
BRANCH  30  31
ATOM     31  C   UNL     1      -4.232  16.442  24.795  0.00  0.00    +0.000 C 
ATOM     32  F   UNL     1      -5.314  17.126  25.262  0.00  0.00    +0.000 F 
ENDBRANCH  30  31
ENDBRANCH  26  30
ENDBRANCH   6  23
TORSDOF 4
ENDMDL
MODEL 6
REMARK VINA RESULT:      -8.5      3.650     11.071
REMARK  Name = 
REMARK  7 active torsions:
REMARK  status: ('A' for Active; 'I' for Inactive)
REMARK    1  A    between atoms: C_1  and  C_2
REMARK    2  A    between atoms: C_6  and  C_7
REMARK    3  A    between atoms: C_12  and  N_13
REMARK    4  A    between atoms: N_16  and  C_17
REMARK    5  A    between atoms: C_17  and  C_18
REMARK    6  A    between atoms: C_20  and  C_21
REMARK    7  A    between atoms: C_30  and  C_31
REMARK                            x       y       z     vdW  Elec       q    Type
REMARK                         _______ _______ _______ _____ _____    ______ ____
ROOT
ATOM      1  C   UNL     1       1.728   8.009  19.892  0.00  0.00    +0.000 A 
ATOM      2  C   UNL     1       1.314   8.115  21.167  0.00  0.00    +0.000 A 
ATOM      3  C   UNL     1       0.553   9.247  21.648  0.00  0.00    +0.000 A 
ATOM      4  C   UNL     1      -0.055   9.241  22.895  0.00  0.00    +0.000 A 
ATOM      5  C   UNL     1      -0.846  10.327  23.303  0.00  0.00    +0.000 A 
ATOM      6  C   UNL     1      -1.038  11.463  22.502  0.00  0.00    +0.000 A 
ATOM      7  C   UNL     1      -0.403  11.438  21.239  0.00  0.00    +0.000 A 
ATOM      8  C   UNL     1       0.360  10.336  20.821  0.00  0.00    +0.000 A 
ATOM      9  O   UNL     1       0.898  10.317  19.517  0.00  0.00    +0.000 OA
ATOM     10  C   UNL     1       1.512   9.172  18.971  0.00  0.00    +0.000 A 
ATOM     11  O   UNL     1       1.859   9.166  17.792  0.00  0.00    +0.000 OA
ENDROOT
BRANCH   1  17
ATOM     12  C   UNL     1       3.971   1.160  18.562  0.00  0.00    +0.000 C 
ATOM     13  C   UNL     1       3.882   2.649  18.744  0.00  0.00    +0.000 A 
ATOM     14  C   UNL     1       2.697   3.294  18.790  0.00  0.00    +0.000 A 
ATOM     15  N   UNL     1       2.695   4.662  18.994  0.00  0.00    +0.000 N 
ATOM     16  C   UNL     1       1.679   5.572  19.146  0.00  0.00    +0.000 A 
ATOM     17  C   UNL     1       2.303   6.770  19.435  0.00  0.00    +0.000 A 
ATOM     18  N   UNL     1       3.682   6.616  19.407  0.00  0.00    +0.000 NA
ATOM     19  C   UNL     1       3.875   5.340  19.147  0.00  0.00    +0.000 A 
ATOM     20  C   UNL     1       5.108   4.593  19.073  0.00  0.00    +0.000 A 
ATOM     21  C   UNL     1       6.428   5.292  19.236  0.00  0.00    +0.000 C 
ATOM     22  N   UNL     1       5.103   3.298  18.879  0.00  0.00    +0.000 NA
ENDBRANCH   1  17
BRANCH   6  23
ATOM     23  N   UNL     1      -1.810  12.523  22.940  0.00  0.00    +0.000 N 
ATOM     24  C   UNL     1      -1.338  13.916  23.031  0.00  0.00    +0.000 C 
ATOM     25  C   UNL     1      -2.345  14.914  22.372  0.00  0.00    +0.000 C 
ATOM     26  N   UNL     1      -3.803  14.695  22.585  0.00  0.00    +0.000 NA
ATOM     27  C   UNL     1      -4.125  13.245  22.505  0.00  0.00    +0.000 C 
ATOM     28  C   UNL     1      -4.104  12.797  21.035  0.00  0.00    +0.000 C 
ATOM     29  C   UNL     1      -3.201  12.358  23.374  0.00  0.00    +0.000 C 
BRANCH  26  30
ATOM     30  C   UNL     1      -4.269  15.349  23.822  0.00  0.00    +0.000 C 
BRANCH  30  31
ATOM     31  C   UNL     1      -5.723  15.840  23.806  0.00  0.00    +0.000 C 
ATOM     32  F   UNL     1      -6.539  14.813  24.176  0.00  0.00    +0.000 F 
ENDBRANCH  30  31
ENDBRANCH  26  30
ENDBRANCH   6  23
TORSDOF 4
ENDMDL
MODEL 7
REMARK VINA RESULT:      -8.5      1.464      1.857
REMARK  Name = 
REMARK  7 active torsions:
REMARK  status: ('A' for Active; 'I' for Inactive)
REMARK    1  A    between atoms: C_1  and  C_2
REMARK    2  A    between atoms: C_6  and  C_7
REMARK    3  A    between atoms: C_12  and  N_13
REMARK    4  A    between atoms: N_16  and  C_17
REMARK    5  A    between atoms: C_17  and  C_18
REMARK    6  A    between atoms: C_20  and  C_21
REMARK    7  A    between atoms: C_30  and  C_31
REMARK                            x       y       z     vdW  Elec       q    Type
REMARK                         _______ _______ _______ _____ _____    ______ ____
ROOT
ATOM      1  C   UNL     1      -0.326  11.581  20.738  0.00  0.00    +0.000 A 
ATOM      2  C   UNL     1       0.064  10.387  21.220  0.00  0.00    +0.000 A 
ATOM      3  C   UNL     1       0.772   9.416  20.415  0.00  0.00    +0.000 A 
ATOM      4  C   UNL     1       1.360   8.292  20.978  0.00  0.00    +0.000 A 
ATOM      5  C   UNL     1       2.101   7.406  20.180  0.00  0.00    +0.000 A 
ATOM      6  C   UNL     1       2.262   7.589  18.798  0.00  0.00    +0.000 A 
ATOM      7  C   UNL     1       1.648   8.742  18.256  0.00  0.00    +0.000 A 
ATOM      8  C   UNL     1       0.936   9.643  19.063  0.00  0.00    +0.000 A 
ATOM      9  O   UNL     1       0.419  10.827  18.495  0.00  0.00    +0.000 OA
ATOM     10  C   UNL     1      -0.140  11.857  19.276  0.00  0.00    +0.000 A 
ATOM     11  O   UNL     1      -0.468  12.918  18.749  0.00  0.00    +0.000 OA
ENDROOT
BRANCH   1  17
ATOM     12  C   UNL     1      -1.807  16.495  25.969  0.00  0.00    +0.000 C 
ATOM     13  C   UNL     1      -1.880  15.394  24.950  0.00  0.00    +0.000 A 
ATOM     14  C   UNL     1      -0.943  15.247  23.988  0.00  0.00    +0.000 A 
ATOM     15  N   UNL     1      -1.059  14.189  23.106  0.00  0.00    +0.000 N 
ATOM     16  C   UNL     1      -0.259  13.746  22.083  0.00  0.00    +0.000 A 
ATOM     17  C   UNL     1      -0.844  12.574  21.643  0.00  0.00    +0.000 A 
ATOM     18  N   UNL     1      -2.017  12.327  22.344  0.00  0.00    +0.000 NA
ATOM     19  C   UNL     1      -2.106  13.311  23.213  0.00  0.00    +0.000 A 
ATOM     20  C   UNL     1      -3.080  13.532  24.255  0.00  0.00    +0.000 A 
ATOM     21  C   UNL     1      -4.245  12.596  24.414  0.00  0.00    +0.000 C 
ATOM     22  N   UNL     1      -2.965  14.537  25.086  0.00  0.00    +0.000 NA
ENDBRANCH   1  17
BRANCH   6  23
ATOM     23  N   UNL     1       2.985   6.689  18.038  0.00  0.00    +0.000 N 
ATOM     24  C   UNL     1       4.258   7.002  17.363  0.00  0.00    +0.000 C 
ATOM     25  C   UNL     1       5.346   5.917  17.648  0.00  0.00    +0.000 C 
ATOM     26  N   UNL     1       4.937   4.485  17.657  0.00  0.00    +0.000 NA
ATOM     27  C   UNL     1       3.621   4.328  18.332  0.00  0.00    +0.000 C 
ATOM     28  C   UNL     1       3.808   4.454  19.852  0.00  0.00    +0.000 C 
ATOM     29  C   UNL     1       2.541   5.309  17.816  0.00  0.00    +0.000 C 
BRANCH  26  30
ATOM     30  C   UNL     1       4.994   3.903  16.303  0.00  0.00    +0.000 C 
BRANCH  30  31
ATOM     31  C   UNL     1       6.349   4.017  15.589  0.00  0.00    +0.000 C 
ATOM     32  F   UNL     1       6.182   3.700  14.274  0.00  0.00    +0.000 F 
ENDBRANCH  30  31
ENDBRANCH  26  30
ENDBRANCH   6  23
TORSDOF 4
ENDMDL
MODEL 8
REMARK VINA RESULT:      -8.5      1.391      1.471
REMARK  Name = 
REMARK  7 active torsions:
REMARK  status: ('A' for Active; 'I' for Inactive)
REMARK    1  A    between atoms: C_1  and  C_2
REMARK    2  A    between atoms: C_6  and  C_7
REMARK    3  A    between atoms: C_12  and  N_13
REMARK    4  A    between atoms: N_16  and  C_17
REMARK    5  A    between atoms: C_17  and  C_18
REMARK    6  A    between atoms: C_20  and  C_21
REMARK    7  A    between atoms: C_30  and  C_31
REMARK                            x       y       z     vdW  Elec       q    Type
REMARK                         _______ _______ _______ _____ _____    ______ ____
ROOT
ATOM      1  C   UNL     1      -0.386  11.227  21.652  0.00  0.00    +0.000 A 
ATOM      2  C   UNL     1       0.112  11.143  20.406  0.00  0.00    +0.000 A 
ATOM      3  C   UNL     1       0.813   9.973  19.925  0.00  0.00    +0.000 A 
ATOM      4  C   UNL     1       1.124   9.809  18.582  0.00  0.00    +0.000 A 
ATOM      5  C   UNL     1       1.742   8.630  18.137  0.00  0.00    +0.000 A 
ATOM      6  C   UNL     1       2.095   7.588  19.008  0.00  0.00    +0.000 A 
ATOM      7  C   UNL     1       1.768   7.787  20.369  0.00  0.00    +0.000 A 
ATOM      8  C   UNL     1       1.120   8.954  20.805  0.00  0.00    +0.000 A 
ATOM      9  O   UNL     1       0.730   9.069  22.156  0.00  0.00    +0.000 OA
ATOM     10  C   UNL     1      -0.082  10.123  22.620  0.00  0.00    +0.000 A 
ATOM     11  O   UNL     1      -0.494  10.116  23.779  0.00  0.00    +0.000 OA
ENDROOT
BRANCH   1  17
ATOM     12  C   UNL     1      -4.379  16.586  24.660  0.00  0.00    +0.000 C 
ATOM     13  C   UNL     1      -3.876  15.450  23.815  0.00  0.00    +0.000 A 
ATOM     14  C   UNL     1      -2.568  15.121  23.765  0.00  0.00    +0.000 A 
ATOM     15  N   UNL     1      -2.185  14.040  22.991  0.00  0.00    +0.000 N 
ATOM     16  C   UNL     1      -0.972  13.434  22.786  0.00  0.00    +0.000 A 
ATOM     17  C   UNL     1      -1.243  12.331  21.999  0.00  0.00    +0.000 A 
ATOM     18  N   UNL     1      -2.592  12.288  21.676  0.00  0.00    +0.000 NA
ATOM     19  C   UNL     1      -3.121  13.323  22.294  0.00  0.00    +0.000 A 
ATOM     20  C   UNL     1      -4.502  13.735  22.381  0.00  0.00    +0.000 A 
ATOM     21  C   UNL     1      -5.566  12.979  21.636  0.00  0.00    +0.000 C 
ATOM     22  N   UNL     1      -4.857  14.760  23.114  0.00  0.00    +0.000 NA
ENDBRANCH   1  17
BRANCH   6  23
ATOM     23  N   UNL     1       2.718   6.446  18.540  0.00  0.00    +0.000 N 
ATOM     24  C   UNL     1       4.128   6.379  18.116  0.00  0.00    +0.000 C 
ATOM     25  C   UNL     1       4.870   5.164  18.762  0.00  0.00    +0.000 C 
ATOM     26  N   UNL     1       4.149   3.865  18.865  0.00  0.00    +0.000 NA
ATOM     27  C   UNL     1       2.732   4.090  19.260  0.00  0.00    +0.000 C 
ATOM     28  C   UNL     1       2.668   4.434  20.756  0.00  0.00    +0.000 C 
ATOM     29  C   UNL     1       2.016   5.165  18.406  0.00  0.00    +0.000 C 
BRANCH  26  30
ATOM     30  C   UNL     1       4.313   3.061  17.640  0.00  0.00    +0.000 C 
BRANCH  30  31
ATOM     31  C   UNL     1       3.411   1.824  17.532  0.00  0.00    +0.000 C 
ATOM     32  F   UNL     1       3.834   0.891  18.430  0.00  0.00    +0.000 F 
ENDBRANCH  30  31
ENDBRANCH  26  30
ENDBRANCH   6  23
TORSDOF 4
ENDMDL
MODEL 9
REMARK VINA RESULT:      -8.4      1.786      2.162
REMARK  Name = 
REMARK  7 active torsions:
REMARK  status: ('A' for Active; 'I' for Inactive)
REMARK    1  A    between atoms: C_1  and  C_2
REMARK    2  A    between atoms: C_6  and  C_7
REMARK    3  A    between atoms: C_12  and  N_13
REMARK    4  A    between atoms: N_16  and  C_17
REMARK    5  A    between atoms: C_17  and  C_18
REMARK    6  A    between atoms: C_20  and  C_21
REMARK    7  A    between atoms: C_30  and  C_31
REMARK                            x       y       z     vdW  Elec       q    Type
REMARK                         _______ _______ _______ _____ _____    ______ ____
ROOT
ATOM      1  C   UNL     1      -0.097  11.216  20.210  0.00  0.00    +0.000 A 
ATOM      2  C   UNL     1       0.235   9.996  20.669  0.00  0.00    +0.000 A 
ATOM      3  C   UNL     1       1.033   9.066  19.901  0.00  0.00    +0.000 A 
ATOM      4  C   UNL     1       1.553   7.910  20.467  0.00  0.00    +0.000 A 
ATOM      5  C   UNL     1       2.382   7.064  19.715  0.00  0.00    +0.000 A 
ATOM      6  C   UNL     1       2.702   7.320  18.373  0.00  0.00    +0.000 A 
ATOM      7  C   UNL     1       2.155   8.503  17.826  0.00  0.00    +0.000 A 
ATOM      8  C   UNL     1       1.352   9.364  18.591  0.00  0.00    +0.000 A 
ATOM      9  O   UNL     1       0.904  10.579  18.031  0.00  0.00    +0.000 OA
ATOM     10  C   UNL     1       0.257  11.569  18.796  0.00  0.00    +0.000 A 
ATOM     11  O   UNL     1      -0.008  12.658  18.291  0.00  0.00    +0.000 OA
ENDROOT
BRANCH   1  17
ATOM     12  C   UNL     1      -2.540  15.437  25.680  0.00  0.00    +0.000 C 
ATOM     13  C   UNL     1      -2.413  14.594  24.443  0.00  0.00    +0.000 A 
ATOM     14  C   UNL     1      -1.214  14.317  23.887  0.00  0.00    +0.000 A 
ATOM     15  N   UNL     1      -1.174  13.505  22.768  0.00  0.00    +0.000 N 
ATOM     16  C   UNL     1      -0.134  13.004  22.026  0.00  0.00    +0.000 A 
ATOM     17  C   UNL     1      -0.718  12.162  21.100  0.00  0.00    +0.000 A 
ATOM     18  N   UNL     1      -2.100  12.186  21.230  0.00  0.00    +0.000 NA
ATOM     19  C   UNL     1      -2.331  12.995  22.242  0.00  0.00    +0.000 A 
ATOM     20  C   UNL     1      -3.581  13.340  22.877  0.00  0.00    +0.000 A 
ATOM     21  C   UNL     1      -4.877  12.804  22.338  0.00  0.00    +0.000 C 
ATOM     22  N   UNL     1      -3.612  14.110  23.935  0.00  0.00    +0.000 NA
ENDBRANCH   1  17
BRANCH   6  23
ATOM     23  N   UNL     1       3.510   6.457  17.655  0.00  0.00    +0.000 N 
ATOM     24  C   UNL     1       4.550   6.888  16.703  0.00  0.00    +0.000 C 
ATOM     25  C   UNL     1       5.906   6.154  16.956  0.00  0.00    +0.000 C 
ATOM     26  N   UNL     1       5.877   4.703  17.291  0.00  0.00    +0.000 NA
ATOM     27  C   UNL     1       4.756   4.411  18.225  0.00  0.00    +0.000 C 
ATOM     28  C   UNL     1       5.126   4.898  19.634  0.00  0.00    +0.000 C 
ATOM     29  C   UNL     1       3.400   4.999  17.765  0.00  0.00    +0.000 C 
BRANCH  26  30
ATOM     30  C   UNL     1       5.880   3.871  16.073  0.00  0.00    +0.000 C 
BRANCH  30  31
ATOM     31  C   UNL     1       6.304   4.587  14.783  0.00  0.00    +0.000 C 
ATOM     32  F   UNL     1       5.247   4.611  13.924  0.00  0.00    +0.000 F 
ENDBRANCH  30  31
ENDBRANCH  26  30
ENDBRANCH   6  23
TORSDOF 4
ENDMDL
