MODEL 1
REMARK VINA RESULT:      -9.4      0.000      0.000
REMARK  Name = 
REMARK  6 active torsions:
REMARK  status: ('A' for Active; 'I' for Inactive)
REMARK    1  A    between atoms: C_1  and  C_2
REMARK    2  A    between atoms: C_10  and  S_11
REMARK    3  A    between atoms: S_11  and  N_14
REMARK    4  A    between atoms: C_18  and  C_19
REMARK    5  A    between atoms: N_21  and  C_22
REMARK    6  A    between atoms: C_25  and  C_26
REMARK                            x       y       z     vdW  Elec       q    Type
REMARK                         _______ _______ _______ _____ _____    ______ ____
ROOT
ATOM      1  N   UNL     1       0.546  11.272  21.819  0.00  0.00    +0.000 NA
ATOM      2  C   UNL     1      -0.641  10.845  22.621  0.00  0.00    +0.000 C 
ATOM      3  C   UNL     1      -0.323   9.567  23.387  0.00  0.00    +0.000 C 
ATOM      4  C   UNL     1       0.122   8.465  22.440  0.00  0.00    +0.000 C 
ATOM      5  C   UNL     1       1.318   8.906  21.581  0.00  0.00    +0.000 C 
ATOM      6  C   UNL     1       0.998  10.214  20.860  0.00  0.00    +0.000 C 
ENDROOT
BRANCH   5   7
ATOM      7  C   UNL     1       1.638   7.814  20.564  0.00  0.00    +0.000 C 
ATOM      8  O   UNL     1       1.831   8.106  19.382  0.00  0.00    +0.000 OA
ATOM      9  N   UNL     1       1.655   6.522  21.066  0.00  0.00    +0.000 N 
ATOM     10  H   UNL     1       1.234   6.356  21.972  0.00  0.00    +0.000 HD
BRANCH   9  11
ATOM     11  C   UNL     1       2.033   5.374  20.323  0.00  0.00    +0.000 A 
ATOM     12  C   UNL     1       1.173   4.285  20.135  0.00  0.00    +0.000 A 
ATOM     13  C   UNL     1       1.589   3.143  19.444  0.00  0.00    +0.000 A 
ATOM     14  C   UNL     1       2.874   3.072  18.911  0.00  0.00    +0.000 A 
ATOM     15  C   UNL     1       3.337   1.839  18.200  0.00  0.00    +0.000 C 
ATOM     16  C   UNL     1       3.716   4.176  19.068  0.00  0.00    +0.000 A 
ATOM     17  F   UNL     1       4.958   4.137  18.560  0.00  0.00    +0.000 F 
ATOM     18  C   UNL     1       3.306   5.324  19.752  0.00  0.00    +0.000 A 
ENDBRANCH   9  11
ENDBRANCH   5   7
BRANCH   1  19
ATOM     19  S   UNL     1       0.324  12.791  21.024  0.00  0.00    +0.000 S 
ATOM     20  O   UNL     1       1.297  12.867  19.957  0.00  0.00    +0.000 OA
ATOM     21  O   UNL     1       0.245  13.818  22.041  0.00  0.00    +0.000 OA
BRANCH  19  31
ATOM     22  C   UNL     1      -7.544  12.847  18.280  0.00  0.00    +0.000 C 
ATOM     23  C   UNL     1      -6.199  13.116  18.908  0.00  0.00    +0.000 C 
ATOM     24  O   UNL     1      -6.080  14.135  19.593  0.00  0.00    +0.000 OA
ATOM     25  N   UNL     1      -5.169  12.206  18.630  0.00  0.00    +0.000 N 
ATOM     26  C   UNL     1      -5.311  11.096  17.676  0.00  0.00    +0.000 C 
ATOM     27  C   UNL     1      -4.217  11.141  16.626  0.00  0.00    +0.000 C 
ATOM     28  C   UNL     1      -2.856  10.994  17.288  0.00  0.00    +0.000 C 
ATOM     29  C   UNL     1      -2.739  11.784  18.568  0.00  0.00    +0.000 A 
ATOM     30  C   UNL     1      -1.459  11.939  19.130  0.00  0.00    +0.000 A 
ATOM     31  C   UNL     1      -1.295  12.643  20.325  0.00  0.00    +0.000 A 
ATOM     32  C   UNL     1      -2.396  13.164  20.994  0.00  0.00    +0.000 A 
ATOM     33  C   UNL     1      -3.669  13.009  20.438  0.00  0.00    +0.000 A 
ATOM     34  C   UNL     1      -3.862  12.342  19.216  0.00  0.00    +0.000 A 
ENDBRANCH  19  31
ENDBRANCH   1  19
TORSDOF 4
ENDMDL
MODEL 2
REMARK VINA RESULT:      -9.2      1.606      2.546
REMARK  Name = 
REMARK  6 active torsions:
REMARK  status: ('A' for Active; 'I' for Inactive)
REMARK    1  A    between atoms: C_1  and  C_2
REMARK    2  A    between atoms: C_10  and  S_11
REMARK    3  A    between atoms: S_11  and  N_14
REMARK    4  A    between atoms: C_18  and  C_19
REMARK    5  A    between atoms: N_21  and  C_22
REMARK    6  A    between atoms: C_25  and  C_26
REMARK                            x       y       z     vdW  Elec       q    Type
REMARK                         _______ _______ _______ _____ _____    ______ ____
ROOT
ATOM      1  N   UNL     1       0.273  11.383  21.904  0.00  0.00    +0.000 NA
ATOM      2  C   UNL     1      -0.833  10.866  22.767  0.00  0.00    +0.000 C 
ATOM      3  C   UNL     1      -0.378   9.617  23.511  0.00  0.00    +0.000 C 
ATOM      4  C   UNL     1       0.101   8.552  22.539  0.00  0.00    +0.000 C 
ATOM      5  C   UNL     1       1.212   9.083  21.620  0.00  0.00    +0.000 C 
ATOM      6  C   UNL     1       0.755  10.362  20.920  0.00  0.00    +0.000 C 
ENDROOT
BRANCH   5   7
ATOM      7  C   UNL     1       1.562   8.018  20.584  0.00  0.00    +0.000 C 
ATOM      8  O   UNL     1       1.758   8.337  19.410  0.00  0.00    +0.000 OA
ATOM      9  N   UNL     1       1.600   6.717  21.060  0.00  0.00    +0.000 N 
ATOM     10  H   UNL     1       1.175   6.525  21.960  0.00  0.00    +0.000 HD
BRANCH   9  11
ATOM     11  C   UNL     1       2.007   5.591  20.299  0.00  0.00    +0.000 A 
ATOM     12  C   UNL     1       3.275   5.498  19.714  0.00  0.00    +0.000 A 
ATOM     13  C   UNL     1       3.632   4.401  18.924  0.00  0.00    +0.000 A 
ATOM     14  C   UNL     1       2.728   3.363  18.713  0.00  0.00    +0.000 A 
ATOM     15  C   UNL     1       3.091   2.202  17.842  0.00  0.00    +0.000 C 
ATOM     16  C   UNL     1       1.477   3.441  19.330  0.00  0.00    +0.000 A 
ATOM     17  F   UNL     1       0.588   2.452  19.148  0.00  0.00    +0.000 F 
ATOM     18  C   UNL     1       1.115   4.531  20.127  0.00  0.00    +0.000 A 
ENDBRANCH   9  11
ENDBRANCH   5   7
BRANCH   1  19
ATOM     19  S   UNL     1      -0.107  12.879  21.126  0.00  0.00    +0.000 S 
ATOM     20  O   UNL     1       1.125  13.416  20.594  0.00  0.00    +0.000 OA
ATOM     21  O   UNL     1      -0.934  13.652  22.029  0.00  0.00    +0.000 OA
BRANCH  19  31
ATOM     22  C   UNL     1      -4.236  10.102  14.442  0.00  0.00    +0.000 C 
ATOM     23  C   UNL     1      -3.255  10.417  15.544  0.00  0.00    +0.000 C 
ATOM     24  O   UNL     1      -2.136   9.902  15.479  0.00  0.00    +0.000 OA
ATOM     25  N   UNL     1      -3.706  11.240  16.586  0.00  0.00    +0.000 N 
ATOM     26  C   UNL     1      -5.098  11.697  16.707  0.00  0.00    +0.000 C 
ATOM     27  C   UNL     1      -5.670  11.337  18.066  0.00  0.00    +0.000 C 
ATOM     28  C   UNL     1      -4.874  12.026  19.162  0.00  0.00    +0.000 C 
ATOM     29  C   UNL     1      -3.386  11.999  18.912  0.00  0.00    +0.000 A 
ATOM     30  C   UNL     1      -2.534  12.366  19.969  0.00  0.00    +0.000 A 
ATOM     31  C   UNL     1      -1.150  12.378  19.786  0.00  0.00    +0.000 A 
ATOM     32  C   UNL     1      -0.598  12.066  18.549  0.00  0.00    +0.000 A 
ATOM     33  C   UNL     1      -1.443  11.703  17.498  0.00  0.00    +0.000 A 
ATOM     34  C   UNL     1      -2.838  11.641  17.661  0.00  0.00    +0.000 A 
ENDBRANCH  19  31
ENDBRANCH   1  19
TORSDOF 4
ENDMDL
MODEL 3
REMARK VINA RESULT:      -9.0      1.369      2.261
REMARK  Name = 
REMARK  6 active torsions:
REMARK  status: ('A' for Active; 'I' for Inactive)
REMARK    1  A    between atoms: C_1  and  C_2
REMARK    2  A    between atoms: C_10  and  S_11
REMARK    3  A    between atoms: S_11  and  N_14
REMARK    4  A    between atoms: C_18  and  C_19
REMARK    5  A    between atoms: N_21  and  C_22
REMARK    6  A    between atoms: C_25  and  C_26
REMARK                            x       y       z     vdW  Elec       q    Type
REMARK                         _______ _______ _______ _____ _____    ______ ____
ROOT
ATOM      1  N   UNL     1       0.429  11.336  21.809  0.00  0.00    +0.000 NA
ATOM      2  C   UNL     1      -0.680  10.865  22.692  0.00  0.00    +0.000 C 
ATOM      3  C   UNL     1      -0.251   9.615  23.451  0.00  0.00    +0.000 C 
ATOM      4  C   UNL     1       0.186   8.522  22.491  0.00  0.00    +0.000 C 
ATOM      5  C   UNL     1       1.300   9.007  21.550  0.00  0.00    +0.000 C 
ATOM      6  C   UNL     1       0.870  10.287  20.835  0.00  0.00    +0.000 C 
ENDROOT
BRANCH   5   7
ATOM      7  C   UNL     1       1.607   7.916  20.528  0.00  0.00    +0.000 C 
ATOM      8  O   UNL     1       1.763   8.207  19.340  0.00  0.00    +0.000 OA
ATOM      9  N   UNL     1       1.656   6.626  21.033  0.00  0.00    +0.000 N 
ATOM     10  H   UNL     1       1.263   6.457  21.951  0.00  0.00    +0.000 HD
BRANCH   9  11
ATOM     11  C   UNL     1       2.029   5.481  20.283  0.00  0.00    +0.000 A 
ATOM     12  C   UNL     1       1.152   4.415  20.054  0.00  0.00    +0.000 A 
ATOM     13  C   UNL     1       1.561   3.274  19.357  0.00  0.00    +0.000 A 
ATOM     14  C   UNL     1       2.860   3.182  18.860  0.00  0.00    +0.000 A 
ATOM     15  C   UNL     1       3.315   1.950  18.143  0.00  0.00    +0.000 C 
ATOM     16  C   UNL     1       3.721   4.263  19.058  0.00  0.00    +0.000 A 
ATOM     17  F   UNL     1       4.976   4.203  18.585  0.00  0.00    +0.000 F 
ATOM     18  C   UNL     1       3.317   5.410  19.748  0.00  0.00    +0.000 A 
ENDBRANCH   9  11
ENDBRANCH   5   7
BRANCH   1  19
ATOM     19  S   UNL     1       0.082  12.830  21.011  0.00  0.00    +0.000 S 
ATOM     20  O   UNL     1       1.319  13.317  20.444  0.00  0.00    +0.000 OA
ATOM     21  O   UNL     1      -0.701  13.645  21.916  0.00  0.00    +0.000 OA
BRANCH  19  31
ATOM     22  C   UNL     1      -4.261  10.114  14.438  0.00  0.00    +0.000 C 
ATOM     23  C   UNL     1      -3.244  10.421  15.509  0.00  0.00    +0.000 C 
ATOM     24  O   UNL     1      -2.124   9.915  15.398  0.00  0.00    +0.000 OA
ATOM     25  N   UNL     1      -3.663  11.226  16.577  0.00  0.00    +0.000 N 
ATOM     26  C   UNL     1      -5.054  11.670  16.754  0.00  0.00    +0.000 C 
ATOM     27  C   UNL     1      -5.575  11.287  18.127  0.00  0.00    +0.000 C 
ATOM     28  C   UNL     1      -4.745  11.968  19.204  0.00  0.00    +0.000 C 
ATOM     29  C   UNL     1      -3.267  11.955  18.901  0.00  0.00    +0.000 A 
ATOM     30  C   UNL     1      -2.381  12.314  19.932  0.00  0.00    +0.000 A 
ATOM     31  C   UNL     1      -1.005  12.340  19.701  0.00  0.00    +0.000 A 
ATOM     32  C   UNL     1      -0.495  12.049  18.442  0.00  0.00    +0.000 A 
ATOM     33  C   UNL     1      -1.373  11.694  17.416  0.00  0.00    +0.000 A 
ATOM     34  C   UNL     1      -2.761  11.618  17.627  0.00  0.00    +0.000 A 
ENDBRANCH  19  31
ENDBRANCH   1  19
TORSDOF 4
ENDMDL
MODEL 4
REMARK VINA RESULT:      -9.0      5.431      8.886
REMARK  Name = 
REMARK  6 active torsions:
REMARK  status: ('A' for Active; 'I' for Inactive)
REMARK    1  A    between atoms: C_1  and  C_2
REMARK    2  A    between atoms: C_10  and  S_11
REMARK    3  A    between atoms: S_11  and  N_14
REMARK    4  A    between atoms: C_18  and  C_19
REMARK    5  A    between atoms: N_21  and  C_22
REMARK    6  A    between atoms: C_25  and  C_26
REMARK                            x       y       z     vdW  Elec       q    Type
REMARK                         _______ _______ _______ _____ _____    ______ ____
ROOT
ATOM      1  N   UNL     1       5.165   4.143  17.676  0.00  0.00    +0.000 NA
ATOM      2  C   UNL     1       4.883   4.477  16.247  0.00  0.00    +0.000 C 
ATOM      3  C   UNL     1       6.184   4.780  15.513  0.00  0.00    +0.000 C 
ATOM      4  C   UNL     1       6.942   5.904  16.198  0.00  0.00    +0.000 C 
ATOM      5  C   UNL     1       7.204   5.589  17.680  0.00  0.00    +0.000 C 
ATOM      6  C   UNL     1       5.895   5.241  18.387  0.00  0.00    +0.000 C 
ENDROOT
BRANCH   5   7
ATOM      7  C   UNL     1       7.851   6.801  18.345  0.00  0.00    +0.000 C 
ATOM      8  O   UNL     1       8.472   6.669  19.402  0.00  0.00    +0.000 OA
ATOM      9  N   UNL     1       7.652   8.010  17.698  0.00  0.00    +0.000 N 
ATOM     10  H   UNL     1       6.923   8.063  16.996  0.00  0.00    +0.000 HD
BRANCH   9  11
ATOM     11  C   UNL     1       8.250   9.238  18.082  0.00  0.00    +0.000 A 
ATOM     12  C   UNL     1       9.135   9.337  19.162  0.00  0.00    +0.000 A 
ATOM     13  C   UNL     1       9.669  10.569  19.552  0.00  0.00    +0.000 A 
ATOM     14  C   UNL     1       9.339  11.731  18.858  0.00  0.00    +0.000 A 
ATOM     15  C   UNL     1       9.881  13.057  19.291  0.00  0.00    +0.000 C 
ATOM     16  C   UNL     1       8.486  11.622  17.757  0.00  0.00    +0.000 A 
ATOM     17  F   UNL     1       8.156  12.725  17.066  0.00  0.00    +0.000 F 
ATOM     18  C   UNL     1       7.953  10.394  17.356  0.00  0.00    +0.000 A 
ENDBRANCH   9  11
ENDBRANCH   5   7
BRANCH   1  19
ATOM     19  S   UNL     1       3.760   3.650  18.554  0.00  0.00    +0.000 S 
ATOM     20  O   UNL     1       4.211   2.962  19.742  0.00  0.00    +0.000 OA
ATOM     21  O   UNL     1       2.851   3.019  17.621  0.00  0.00    +0.000 OA
BRANCH  19  31
ATOM     22  C   UNL     1       0.378  10.606  21.656  0.00  0.00    +0.000 C 
ATOM     23  C   UNL     1       1.066   9.289  21.399  0.00  0.00    +0.000 C 
ATOM     24  O   UNL     1       1.496   8.667  22.373  0.00  0.00    +0.000 OA
ATOM     25  N   UNL     1       1.205   8.890  20.062  0.00  0.00    +0.000 N 
ATOM     26  C   UNL     1       0.826   9.741  18.924  0.00  0.00    +0.000 C 
ATOM     27  C   UNL     1       1.989   9.911  17.963  0.00  0.00    +0.000 C 
ATOM     28  C   UNL     1       2.397   8.560  17.398  0.00  0.00    +0.000 C 
ATOM     29  C   UNL     1       2.400   7.467  18.438  0.00  0.00    +0.000 A 
ATOM     30  C   UNL     1       3.006   6.243  18.103  0.00  0.00    +0.000 A 
ATOM     31  C   UNL     1       3.020   5.190  19.020  0.00  0.00    +0.000 A 
ATOM     32  C   UNL     1       2.402   5.323  20.258  0.00  0.00    +0.000 A 
ATOM     33  C   UNL     1       1.798   6.537  20.591  0.00  0.00    +0.000 A 
ATOM     34  C   UNL     1       1.803   7.630  19.707  0.00  0.00    +0.000 A 
ENDBRANCH  19  31
ENDBRANCH   1  19
TORSDOF 4
ENDMDL
MODEL 5
REMARK VINA RESULT:      -8.7      3.646      9.915
REMARK  Name = 
REMARK  6 active torsions:
REMARK  status: ('A' for Active; 'I' for Inactive)
REMARK    1  A    between atoms: C_1  and  C_2
REMARK    2  A    between atoms: C_10  and  S_11
REMARK    3  A    between atoms: S_11  and  N_14
REMARK    4  A    between atoms: C_18  and  C_19
REMARK    5  A    between atoms: N_21  and  C_22
REMARK    6  A    between atoms: C_25  and  C_26
REMARK                            x       y       z     vdW  Elec       q    Type
REMARK                         _______ _______ _______ _____ _____    ______ ____
ROOT
ATOM      1  N   UNL     1      -0.637  11.060  18.456  0.00  0.00    +0.000 NA
ATOM      2  C   UNL     1      -0.890   9.765  17.753  0.00  0.00    +0.000 C 
ATOM      3  C   UNL     1      -2.064   9.911  16.792  0.00  0.00    +0.000 C 
ATOM      4  C   UNL     1      -3.307  10.389  17.524  0.00  0.00    +0.000 C 
ATOM      5  C   UNL     1      -3.048  11.700  18.283  0.00  0.00    +0.000 C 
ATOM      6  C   UNL     1      -1.839  11.548  19.205  0.00  0.00    +0.000 C 
ENDROOT
BRANCH   5   7
ATOM      7  C   UNL     1      -4.285  12.062  19.100  0.00  0.00    +0.000 C 
ATOM      8  O   UNL     1      -5.367  11.524  18.855  0.00  0.00    +0.000 OA
ATOM      9  N   UNL     1      -4.093  13.030  20.072  0.00  0.00    +0.000 N 
ATOM     10  H   UNL     1      -3.252  13.593  20.025  0.00  0.00    +0.000 HD
BRANCH   9  11
ATOM     11  C   UNL     1      -5.075  13.436  21.012  0.00  0.00    +0.000 A 
ATOM     12  C   UNL     1      -5.996  14.455  20.742  0.00  0.00    +0.000 A 
ATOM     13  C   UNL     1      -6.920  14.873  21.705  0.00  0.00    +0.000 A 
ATOM     14  C   UNL     1      -6.951  14.266  22.959  0.00  0.00    +0.000 A 
ATOM     15  C   UNL     1      -7.915  14.730  24.005  0.00  0.00    +0.000 C 
ATOM     16  C   UNL     1      -6.057  13.223  23.210  0.00  0.00    +0.000 A 
ATOM     17  F   UNL     1      -6.069  12.617  24.408  0.00  0.00    +0.000 F 
ATOM     18  C   UNL     1      -5.135  12.796  22.251  0.00  0.00    +0.000 A 
ENDBRANCH   9  11
ENDBRANCH   5   7
BRANCH   1  19
ATOM     19  S   UNL     1       0.765  11.027  19.466  0.00  0.00    +0.000 S 
ATOM     20  O   UNL     1       0.310  10.989  20.837  0.00  0.00    +0.000 OA
ATOM     21  O   UNL     1       1.670  12.058  19.003  0.00  0.00    +0.000 OA
BRANCH  19  31
ATOM     22  C   UNL     1       4.824   4.211  16.914  0.00  0.00    +0.000 C 
ATOM     23  C   UNL     1       4.308   5.599  17.203  0.00  0.00    +0.000 C 
ATOM     24  O   UNL     1       4.877   6.547  16.656  0.00  0.00    +0.000 OA
ATOM     25  N   UNL     1       3.244   5.710  18.109  0.00  0.00    +0.000 N 
ATOM     26  C   UNL     1       2.706   4.568  18.864  0.00  0.00    +0.000 C 
ATOM     27  C   UNL     1       2.711   4.853  20.354  0.00  0.00    +0.000 C 
ATOM     28  C   UNL     1       1.823   6.050  20.656  0.00  0.00    +0.000 C 
ATOM     29  C   UNL     1       1.980   7.164  19.651  0.00  0.00    +0.000 A 
ATOM     30  C   UNL     1       1.417   8.415  19.962  0.00  0.00    +0.000 A 
ATOM     31  C   UNL     1       1.514   9.475  19.059  0.00  0.00    +0.000 A 
ATOM     32  C   UNL     1       2.133   9.299  17.827  0.00  0.00    +0.000 A 
ATOM     33  C   UNL     1       2.690   8.057  17.515  0.00  0.00    +0.000 A 
ATOM     34  C   UNL     1       2.646   6.981  18.419  0.00  0.00    +0.000 A 
ENDBRANCH  19  31
ENDBRANCH   1  19
TORSDOF 4
ENDMDL
MODEL 6
REMARK VINA RESULT:      -8.7      1.208      1.531
REMARK  Name = 
REMARK  6 active torsions:
REMARK  status: ('A' for Active; 'I' for Inactive)
REMARK    1  A    between atoms: C_1  and  C_2
REMARK    2  A    between atoms: C_10  and  S_11
REMARK    3  A    between atoms: S_11  and  N_14
REMARK    4  A    between atoms: C_18  and  C_19
REMARK    5  A    between atoms: N_21  and  C_22
REMARK    6  A    between atoms: C_25  and  C_26
REMARK                            x       y       z     vdW  Elec       q    Type
REMARK                         _______ _______ _______ _____ _____    ______ ____
ROOT
ATOM      1  N   UNL     1       0.569  11.182  20.962  0.00  0.00    +0.000 NA
ATOM      2  C   UNL     1      -0.615  10.807  21.793  0.00  0.00    +0.000 C 
ATOM      3  C   UNL     1      -0.265   9.644  22.712  0.00  0.00    +0.000 C 
ATOM      4  C   UNL     1       0.240   8.455  21.912  0.00  0.00    +0.000 C 
ATOM      5  C   UNL     1       1.435   8.837  21.024  0.00  0.00    +0.000 C 
ATOM      6  C   UNL     1       1.080  10.035  20.144  0.00  0.00    +0.000 C 
ENDROOT
BRANCH   5   7
ATOM      7  C   UNL     1       1.816   7.644  20.151  0.00  0.00    +0.000 C 
ATOM      8  O   UNL     1       2.061   7.806  18.954  0.00  0.00    +0.000 OA
ATOM      9  N   UNL     1       1.825   6.417  20.795  0.00  0.00    +0.000 N 
ATOM     10  H   UNL     1       1.363   6.345  21.694  0.00  0.00    +0.000 HD
BRANCH   9  11
ATOM     11  C   UNL     1       2.251   5.199  20.204  0.00  0.00    +0.000 A 
ATOM     12  C   UNL     1       3.594   4.935  19.915  0.00  0.00    +0.000 A 
ATOM     13  C   UNL     1       3.982   3.749  19.284  0.00  0.00    +0.000 A 
ATOM     14  C   UNL     1       3.029   2.792  18.940  0.00  0.00    +0.000 A 
ATOM     15  C   UNL     1       3.433   1.535  18.235  0.00  0.00    +0.000 C 
ATOM     16  C   UNL     1       1.694   3.042  19.265  0.00  0.00    +0.000 A 
ATOM     17  F   UNL     1       0.757   2.134  18.951  0.00  0.00    +0.000 F 
ATOM     18  C   UNL     1       1.300   4.222  19.902  0.00  0.00    +0.000 A 
ENDBRANCH   9  11
ENDBRANCH   5   7
BRANCH   1  19
ATOM     19  S   UNL     1       0.305  12.584  19.985  0.00  0.00    +0.000 S 
ATOM     20  O   UNL     1       0.819  12.295  18.666  0.00  0.00    +0.000 OA
ATOM     21  O   UNL     1       0.761  13.737  20.732  0.00  0.00    +0.000 OA
BRANCH  19  31
ATOM     22  C   UNL     1      -7.916  13.939  20.089  0.00  0.00    +0.000 C 
ATOM     23  C   UNL     1      -6.411  13.996  20.168  0.00  0.00    +0.000 C 
ATOM     24  O   UNL     1      -5.898  15.041  20.577  0.00  0.00    +0.000 OA
ATOM     25  N   UNL     1      -5.703  12.868  19.729  0.00  0.00    +0.000 N 
ATOM     26  C   UNL     1      -6.349  11.709  19.095  0.00  0.00    +0.000 C 
ATOM     27  C   UNL     1      -5.719  11.408  17.748  0.00  0.00    +0.000 C 
ATOM     28  C   UNL     1      -4.250  11.061  17.928  0.00  0.00    +0.000 C 
ATOM     29  C   UNL     1      -3.557  11.952  18.929  0.00  0.00    +0.000 A 
ATOM     30  C   UNL     1      -2.152  11.905  18.989  0.00  0.00    +0.000 A 
ATOM     31  C   UNL     1      -1.460  12.692  19.911  0.00  0.00    +0.000 A 
ATOM     32  C   UNL     1      -2.149  13.502  20.806  0.00  0.00    +0.000 A 
ATOM     33  C   UNL     1      -3.544  13.548  20.750  0.00  0.00    +0.000 A 
ATOM     34  C   UNL     1      -4.268  12.799  19.806  0.00  0.00    +0.000 A 
ENDBRANCH  19  31
ENDBRANCH   1  19
TORSDOF 4
ENDMDL
MODEL 7
REMARK VINA RESULT:      -8.6      2.312      3.420
REMARK  Name = 
REMARK  6 active torsions:
REMARK  status: ('A' for Active; 'I' for Inactive)
REMARK    1  A    between atoms: C_1  and  C_2
REMARK    2  A    between atoms: C_10  and  S_11
REMARK    3  A    between atoms: S_11  and  N_14
REMARK    4  A    between atoms: C_18  and  C_19
REMARK    5  A    between atoms: N_21  and  C_22
REMARK    6  A    between atoms: C_25  and  C_26
REMARK                            x       y       z     vdW  Elec       q    Type
REMARK                         _______ _______ _______ _____ _____    ______ ____
ROOT
ATOM      1  N   UNL     1       0.361  11.264  21.509  0.00  0.00    +0.000 NA
ATOM      2  C   UNL     1      -0.673  10.794  22.481  0.00  0.00    +0.000 C 
ATOM      3  C   UNL     1      -0.132   9.627  23.297  0.00  0.00    +0.000 C 
ATOM      4  C   UNL     1       0.321   8.495  22.391  0.00  0.00    +0.000 C 
ATOM      5  C   UNL     1       1.356   8.975  21.361  0.00  0.00    +0.000 C 
ATOM      6  C   UNL     1       0.815  10.175  20.586  0.00  0.00    +0.000 C 
ENDROOT
BRANCH   5   7
ATOM      7  C   UNL     1       1.676   7.833  20.400  0.00  0.00    +0.000 C 
ATOM      8  O   UNL     1       1.866   8.066  19.204  0.00  0.00    +0.000 OA
ATOM      9  N   UNL     1       1.696   6.569  20.965  0.00  0.00    +0.000 N 
ATOM     10  H   UNL     1       1.277   6.448  21.880  0.00  0.00    +0.000 HD
BRANCH   9  11
ATOM     11  C   UNL     1       2.075   5.385  20.281  0.00  0.00    +0.000 A 
ATOM     12  C   UNL     1       1.166   4.360  19.994  0.00  0.00    +0.000 A 
ATOM     13  C   UNL     1       1.576   3.181  19.364  0.00  0.00    +0.000 A 
ATOM     14  C   UNL     1       2.908   3.008  18.995  0.00  0.00    +0.000 A 
ATOM     15  C   UNL     1       3.361   1.734  18.352  0.00  0.00    +0.000 C 
ATOM     16  C   UNL     1       3.805   4.048  19.249  0.00  0.00    +0.000 A 
ATOM     17  F   UNL     1       5.093   3.910  18.898  0.00  0.00    +0.000 F 
ATOM     18  C   UNL     1       3.401   5.233  19.871  0.00  0.00    +0.000 A 
ENDBRANCH   9  11
ENDBRANCH   5   7
BRANCH   1  19
ATOM     19  S   UNL     1      -0.114  12.676  20.632  0.00  0.00    +0.000 S 
ATOM     20  O   UNL     1      -0.407  12.267  19.277  0.00  0.00    +0.000 OA
ATOM     21  O   UNL     1       0.853  13.717  20.909  0.00  0.00    +0.000 OA
BRANCH  19  31
ATOM     22  C   UNL     1      -7.552  14.086  24.114  0.00  0.00    +0.000 C 
ATOM     23  C   UNL     1      -6.319  13.536  23.443  0.00  0.00    +0.000 C 
ATOM     24  O   UNL     1      -6.350  12.365  23.057  0.00  0.00    +0.000 OA
ATOM     25  N   UNL     1      -5.208  14.387  23.348  0.00  0.00    +0.000 N 
ATOM     26  C   UNL     1      -5.159  15.719  23.969  0.00  0.00    +0.000 C 
ATOM     27  C   UNL     1      -3.943  15.852  24.867  0.00  0.00    +0.000 C 
ATOM     28  C   UNL     1      -2.673  15.691  24.048  0.00  0.00    +0.000 C 
ATOM     29  C   UNL     1      -2.769  14.581  23.030  0.00  0.00    +0.000 A 
ATOM     30  C   UNL     1      -1.584  14.163  22.398  0.00  0.00    +0.000 A 
ATOM     31  C   UNL     1      -1.619  13.155  21.433  0.00  0.00    +0.000 A 
ATOM     32  C   UNL     1      -2.826  12.580  21.056  0.00  0.00    +0.000 A 
ATOM     33  C   UNL     1      -4.004  12.995  21.680  0.00  0.00    +0.000 A 
ATOM     34  C   UNL     1      -3.998  13.978  22.685  0.00  0.00    +0.000 A 
ENDBRANCH  19  31
ENDBRANCH   1  19
TORSDOF 4
ENDMDL
MODEL 8
REMARK VINA RESULT:      -8.6      5.498      8.998
REMARK  Name = 
REMARK  6 active torsions:
REMARK  status: ('A' for Active; 'I' for Inactive)
REMARK    1  A    between atoms: C_1  and  C_2
REMARK    2  A    between atoms: C_10  and  S_11
REMARK    3  A    between atoms: S_11  and  N_14
REMARK    4  A    between atoms: C_18  and  C_19
REMARK    5  A    between atoms: N_21  and  C_22
REMARK    6  A    between atoms: C_25  and  C_26
REMARK                            x       y       z     vdW  Elec       q    Type
REMARK                         _______ _______ _______ _____ _____    ______ ____
ROOT
ATOM      1  N   UNL     1       5.566   4.269  17.912  0.00  0.00    +0.000 NA
ATOM      2  C   UNL     1       5.511   3.910  16.462  0.00  0.00    +0.000 C 
ATOM      3  C   UNL     1       6.802   4.327  15.770  0.00  0.00    +0.000 C 
ATOM      4  C   UNL     1       7.061   5.812  15.956  0.00  0.00    +0.000 C 
ATOM      5  C   UNL     1       7.081   6.201  17.443  0.00  0.00    +0.000 C 
ATOM      6  C   UNL     1       5.800   5.732  18.130  0.00  0.00    +0.000 C 
ENDROOT
BRANCH   5   7
ATOM      7  C   UNL     1       7.215   7.716  17.566  0.00  0.00    +0.000 C 
ATOM      8  O   UNL     1       6.330   8.453  17.125  0.00  0.00    +0.000 OA
ATOM      9  N   UNL     1       8.385   8.163  18.158  0.00  0.00    +0.000 N 
ATOM     10  H   UNL     1       9.155   7.511  18.247  0.00  0.00    +0.000 HD
BRANCH   9  11
ATOM     11  C   UNL     1       8.665   9.519  18.468  0.00  0.00    +0.000 A 
ATOM     12  C   UNL     1       8.375  10.566  17.585  0.00  0.00    +0.000 A 
ATOM     13  C   UNL     1       8.710  11.888  17.892  0.00  0.00    +0.000 A 
ATOM     14  C   UNL     1       9.332  12.194  19.101  0.00  0.00    +0.000 A 
ATOM     15  C   UNL     1       9.724  13.602  19.421  0.00  0.00    +0.000 C 
ATOM     16  C   UNL     1       9.584  11.152  19.996  0.00  0.00    +0.000 A 
ATOM     17  F   UNL     1      10.177  11.418  21.170  0.00  0.00    +0.000 F 
ATOM     18  C   UNL     1       9.247   9.828  19.699  0.00  0.00    +0.000 A 
ENDBRANCH   9  11
ENDBRANCH   5   7
BRANCH   1  19
ATOM     19  S   UNL     1       4.197   3.709  18.808  0.00  0.00    +0.000 S 
ATOM     20  O   UNL     1       4.693   3.117  20.030  0.00  0.00    +0.000 OA
ATOM     21  O   UNL     1       3.349   2.963  17.903  0.00  0.00    +0.000 OA
BRANCH  19  31
ATOM     22  C   UNL     1       0.232  10.504  21.555  0.00  0.00    +0.000 C 
ATOM     23  C   UNL     1       1.021   9.233  21.366  0.00  0.00    +0.000 C 
ATOM     24  O   UNL     1       1.467   8.679  22.374  0.00  0.00    +0.000 OA
ATOM     25  N   UNL     1       1.227   8.797  20.049  0.00  0.00    +0.000 N 
ATOM     26  C   UNL     1       0.820   9.576  18.870  0.00  0.00    +0.000 C 
ATOM     27  C   UNL     1       1.994   9.797  17.934  0.00  0.00    +0.000 C 
ATOM     28  C   UNL     1       2.515   8.460  17.431  0.00  0.00    +0.000 C 
ATOM     29  C   UNL     1       2.568   7.408  18.512  0.00  0.00    +0.000 A 
ATOM     30  C   UNL     1       3.271   6.221  18.240  0.00  0.00    +0.000 A 
ATOM     31  C   UNL     1       3.334   5.205  19.195  0.00  0.00    +0.000 A 
ATOM     32  C   UNL     1       2.674   5.337  20.411  0.00  0.00    +0.000 A 
ATOM     33  C   UNL     1       1.974   6.515  20.683  0.00  0.00    +0.000 A 
ATOM     34  C   UNL     1       1.925   7.573  19.758  0.00  0.00    +0.000 A 
ENDBRANCH  19  31
ENDBRANCH   1  19
TORSDOF 4
ENDMDL
MODEL 9
REMARK VINA RESULT:      -8.6      3.935      6.312
REMARK  Name = 
REMARK  6 active torsions:
REMARK  status: ('A' for Active; 'I' for Inactive)
REMARK    1  A    between atoms: C_1  and  C_2
REMARK    2  A    between atoms: C_10  and  S_11
REMARK    3  A    between atoms: S_11  and  N_14
REMARK    4  A    between atoms: C_18  and  C_19
REMARK    5  A    between atoms: N_21  and  C_22
REMARK    6  A    between atoms: C_25  and  C_26
REMARK                            x       y       z     vdW  Elec       q    Type
REMARK                         _______ _______ _______ _____ _____    ______ ____
ROOT
ATOM      1  N   UNL     1       0.337  11.404  21.099  0.00  0.00    +0.000 NA
ATOM      2  C   UNL     1      -0.783  10.998  22.001  0.00  0.00    +0.000 C 
ATOM      3  C   UNL     1      -0.335   9.863  22.914  0.00  0.00    +0.000 C 
ATOM      4  C   UNL     1       0.170   8.682  22.103  0.00  0.00    +0.000 C 
ATOM      5  C   UNL     1       1.296   9.096  21.142  0.00  0.00    +0.000 C 
ATOM      6  C   UNL     1       0.845  10.265  20.269  0.00  0.00    +0.000 C 
ENDROOT
BRANCH   5   7
ATOM      7  C   UNL     1       1.673   7.905  20.266  0.00  0.00    +0.000 C 
ATOM      8  O   UNL     1       1.937   8.073  19.073  0.00  0.00    +0.000 OA
ATOM      9  N   UNL     1       1.658   6.673  20.899  0.00  0.00    +0.000 N 
ATOM     10  H   UNL     1       1.184   6.600  21.791  0.00  0.00    +0.000 HD
BRANCH   9  11
ATOM     11  C   UNL     1       2.077   5.455  20.304  0.00  0.00    +0.000 A 
ATOM     12  C   UNL     1       3.405   5.219  19.931  0.00  0.00    +0.000 A 
ATOM     13  C   UNL     1       3.781   4.030  19.298  0.00  0.00    +0.000 A 
ATOM     14  C   UNL     1       2.835   3.042  19.037  0.00  0.00    +0.000 A 
ATOM     15  C   UNL     1       3.224   1.782  18.330  0.00  0.00    +0.000 C 
ATOM     16  C   UNL     1       1.518   3.265  19.446  0.00  0.00    +0.000 A 
ATOM     17  F   UNL     1       0.586   2.327  19.213  0.00  0.00    +0.000 F 
ATOM     18  C   UNL     1       1.135   4.448  20.086  0.00  0.00    +0.000 A 
ENDBRANCH   9  11
ENDBRANCH   5   7
BRANCH   1  19
ATOM     19  S   UNL     1      -0.037  12.780  20.120  0.00  0.00    +0.000 S 
ATOM     20  O   UNL     1      -0.960  13.604  20.866  0.00  0.00    +0.000 OA
ATOM     21  O   UNL     1      -0.359  12.305  18.791  0.00  0.00    +0.000 OA
BRANCH  19  31
ATOM     22  C   UNL     1       6.879  17.251  18.849  0.00  0.00    +0.000 C 
ATOM     23  C   UNL     1       5.492  16.660  18.891  0.00  0.00    +0.000 C 
ATOM     24  O   UNL     1       4.616  17.207  18.217  0.00  0.00    +0.000 OA
ATOM     25  N   UNL     1       5.292  15.555  19.730  0.00  0.00    +0.000 N 
ATOM     26  C   UNL     1       6.324  15.039  20.642  0.00  0.00    +0.000 C 
ATOM     27  C   UNL     1       5.804  14.968  22.066  0.00  0.00    +0.000 C 
ATOM     28  C   UNL     1       4.622  14.015  22.139  0.00  0.00    +0.000 C 
ATOM     29  C   UNL     1       3.677  14.162  20.971  0.00  0.00    +0.000 A 
ATOM     30  C   UNL     1       2.424  13.530  21.056  0.00  0.00    +0.000 A 
ATOM     31  C   UNL     1       1.519  13.616  19.997  0.00  0.00    +0.000 A 
ATOM     32  C   UNL     1       1.858  14.292  18.831  0.00  0.00    +0.000 A 
ATOM     33  C   UNL     1       3.104  14.919  18.744  0.00  0.00    +0.000 A 
ATOM     34  C   UNL     1       4.021  14.886  19.809  0.00  0.00    +0.000 A 
ENDBRANCH  19  31
ENDBRANCH   1  19
TORSDOF 4
ENDMDL
