MODEL 1
REMARK VINA RESULT:      -8.1      0.000      0.000
REMARK  Name = 
REMARK  8 active torsions:
REMARK  status: ('A' for Active; 'I' for Inactive)
REMARK    1  A    between atoms: C_1  and  C_2
REMARK    2  A    between atoms: C_2  and  C_3
REMARK    3  A    between atoms: C_2  and  C_14
REMARK    4  A    between atoms: C_2  and  C_20
REMARK    5  A    between atoms: C_3  and  O_5
REMARK    6  A    between atoms: O_5  and  C_6
REMARK    7  A    between atoms: N_9  and  C_10
REMARK    8  A    between atoms: N_9  and  C_11
REMARK                            x       y       z     vdW  Elec       q    Type
REMARK                         _______ _______ _______ _____ _____    ______ ____
ROOT
ATOM      1  C   UNL     1       5.140   6.567  15.414  0.00  0.00    +0.000 C 
ATOM      2  C   UNL     1       5.978   5.301  15.726  0.00  0.00    +0.000 C 
ENDROOT
BRANCH   2   3
ATOM      3  C   UNL     1       6.433   4.801  14.293  0.00  0.00    +0.000 A 
ATOM      4  C   UNL     1       7.519   5.359  13.580  0.00  0.00    +0.000 A 
ATOM      5  C   UNL     1       7.876   4.939  12.292  0.00  0.00    +0.000 A 
ATOM      6  C   UNL     1       7.148   3.972  11.653  0.00  0.00    +0.000 A 
ATOM      7  C   UNL     1       6.033   3.428  12.279  0.00  0.00    +0.000 A 
ATOM      8  C   UNL     1       5.677   3.853  13.580  0.00  0.00    +0.000 A 
ENDBRANCH   2   3
BRANCH   2   9
ATOM      9  C   UNL     1       7.177   5.647  16.731  0.00  0.00    +0.000 C 
ATOM     10  C   UNL     1       7.225   7.096  17.252  0.00  0.00    +0.000 C 
ATOM     11  C   UNL     1       8.059   7.098  18.523  0.00  0.00    +0.000 C 
ATOM     12  C   UNL     1       7.920   5.701  19.096  0.00  0.00    +0.000 C 
ATOM     13  C   UNL     1       7.163   4.867  18.061  0.00  0.00    +0.000 C 
ENDBRANCH   2   9
BRANCH   2  14
ATOM     14  C   UNL     1       5.085   4.233  16.439  0.00  0.00    +0.000 C 
ATOM     15  O   UNL     1       5.441   3.075  16.660  0.00  0.00    +0.000 OA
BRANCH  14  16
ATOM     16  O   UNL     1       3.865   4.696  16.883  0.00  0.00    +0.000 OA
BRANCH  16  17
ATOM     17  C   UNL     1       3.337   3.949  18.004  0.00  0.00    +0.000 C 
ATOM     18  C   UNL     1       1.810   4.027  18.005  0.00  0.00    +0.000 C 
ATOM     19  C   UNL     1       1.229   3.209  19.145  0.00  0.00    +0.000 C 
ATOM     20  N   UNL     1       1.779   3.666  20.501  0.00  0.00    +0.000 N 
ATOM     21  C   UNL     1       1.289   2.674  21.571  0.00  0.00    +0.000 C 
ATOM     22  C   UNL     1       1.233   5.043  20.885  0.00  0.00    +0.000 C 
ATOM     23  C   UNL     1       3.314   3.658  20.495  0.00  0.00    +0.000 C 
ATOM     24  C   UNL     1       3.885   4.469  19.332  0.00  0.00    +0.000 C 
ENDBRANCH  16  17
ENDBRANCH  14  16
ENDBRANCH   2  14
TORSDOF 5
ENDMDL
MODEL 2
REMARK VINA RESULT:      -7.7      3.239      6.003
REMARK  Name = 
REMARK  8 active torsions:
REMARK  status: ('A' for Active; 'I' for Inactive)
REMARK    1  A    between atoms: C_1  and  C_2
REMARK    2  A    between atoms: C_2  and  C_3
REMARK    3  A    between atoms: C_2  and  C_14
REMARK    4  A    between atoms: C_2  and  C_20
REMARK    5  A    between atoms: C_3  and  O_5
REMARK    6  A    between atoms: O_5  and  C_6
REMARK    7  A    between atoms: N_9  and  C_10
REMARK    8  A    between atoms: N_9  and  C_11
REMARK                            x       y       z     vdW  Elec       q    Type
REMARK                         _______ _______ _______ _____ _____    ______ ____
ROOT
ATOM      1  C   UNL     1       3.460   3.915  16.732  0.00  0.00    +0.000 C 
ATOM      2  C   UNL     1       3.818   4.686  18.028  0.00  0.00    +0.000 C 
ENDROOT
BRANCH   2   3
ATOM      3  C   UNL     1       2.792   4.111  19.090  0.00  0.00    +0.000 A 
ATOM      4  C   UNL     1       2.925   4.300  20.485  0.00  0.00    +0.000 A 
ATOM      5  C   UNL     1       2.036   3.742  21.413  0.00  0.00    +0.000 A 
ATOM      6  C   UNL     1       1.002   2.951  20.993  0.00  0.00    +0.000 A 
ATOM      7  C   UNL     1       0.855   2.679  19.638  0.00  0.00    +0.000 A 
ATOM      8  C   UNL     1       1.752   3.245  18.703  0.00  0.00    +0.000 A 
ENDBRANCH   2   3
BRANCH   2   9
ATOM      9  C   UNL     1       5.362   4.483  18.404  0.00  0.00    +0.000 C 
ATOM     10  C   UNL     1       6.343   4.427  17.217  0.00  0.00    +0.000 C 
ATOM     11  C   UNL     1       7.730   4.744  17.756  0.00  0.00    +0.000 C 
ATOM     12  C   UNL     1       7.496   5.602  18.983  0.00  0.00    +0.000 C 
ATOM     13  C   UNL     1       5.988   5.617  19.239  0.00  0.00    +0.000 C 
ENDBRANCH   2   9
BRANCH   2  14
ATOM     14  C   UNL     1       3.604   6.221  17.811  0.00  0.00    +0.000 C 
ATOM     15  O   UNL     1       4.476   6.985  17.398  0.00  0.00    +0.000 OA
BRANCH  14  16
ATOM     16  O   UNL     1       2.323   6.670  18.050  0.00  0.00    +0.000 OA
BRANCH  16  17
ATOM     17  C   UNL     1       2.276   7.962  18.702  0.00  0.00    +0.000 C 
ATOM     18  C   UNL     1       1.529   7.844  20.030  0.00  0.00    +0.000 C 
ATOM     19  C   UNL     1       1.509   9.178  20.757  0.00  0.00    +0.000 C 
ATOM     20  N   UNL     1       0.877  10.277  19.895  0.00  0.00    +0.000 N 
ATOM     21  C   UNL     1       1.066  11.619  20.626  0.00  0.00    +0.000 C 
ATOM     22  C   UNL     1      -0.629  10.061  19.738  0.00  0.00    +0.000 C 
ATOM     23  C   UNL     1       1.573  10.363  18.529  0.00  0.00    +0.000 C 
ATOM     24  C   UNL     1       1.603   9.011  17.818  0.00  0.00    +0.000 C 
ENDBRANCH  16  17
ENDBRANCH  14  16
ENDBRANCH   2  14
TORSDOF 5
ENDMDL
MODEL 3
REMARK VINA RESULT:      -7.6      0.663      1.293
REMARK  Name = 
REMARK  8 active torsions:
REMARK  status: ('A' for Active; 'I' for Inactive)
REMARK    1  A    between atoms: C_1  and  C_2
REMARK    2  A    between atoms: C_2  and  C_3
REMARK    3  A    between atoms: C_2  and  C_14
REMARK    4  A    between atoms: C_2  and  C_20
REMARK    5  A    between atoms: C_3  and  O_5
REMARK    6  A    between atoms: O_5  and  C_6
REMARK    7  A    between atoms: N_9  and  C_10
REMARK    8  A    between atoms: N_9  and  C_11
REMARK                            x       y       z     vdW  Elec       q    Type
REMARK                         _______ _______ _______ _____ _____    ______ ____
ROOT
ATOM      1  C   UNL     1       5.115   6.805  15.441  0.00  0.00    +0.000 C 
ATOM      2  C   UNL     1       5.880   5.497  15.767  0.00  0.00    +0.000 C 
ENDROOT
BRANCH   2   3
ATOM      3  C   UNL     1       6.268   4.934  14.337  0.00  0.00    +0.000 A 
ATOM      4  C   UNL     1       5.537   3.923  13.673  0.00  0.00    +0.000 A 
ATOM      5  C   UNL     1       5.922   3.401  12.431  0.00  0.00    +0.000 A 
ATOM      6  C   UNL     1       7.064   3.841  11.819  0.00  0.00    +0.000 A 
ATOM      7  C   UNL     1       7.857   4.791  12.452  0.00  0.00    +0.000 A 
ATOM      8  C   UNL     1       7.465   5.318  13.704  0.00  0.00    +0.000 A 
ENDBRANCH   2   3
BRANCH   2   9
ATOM      9  C   UNL     1       7.122   5.791  16.736  0.00  0.00    +0.000 C 
ATOM     10  C   UNL     1       7.234   7.230  17.272  0.00  0.00    +0.000 C 
ATOM     11  C   UNL     1       8.109   7.189  18.515  0.00  0.00    +0.000 C 
ATOM     12  C   UNL     1       7.943   5.790  19.075  0.00  0.00    +0.000 C 
ATOM     13  C   UNL     1       7.126   4.994  18.055  0.00  0.00    +0.000 C 
ENDBRANCH   2   9
BRANCH   2  14
ATOM     14  C   UNL     1       4.939   4.505  16.527  0.00  0.00    +0.000 C 
ATOM     15  O   UNL     1       5.134   3.292  16.600  0.00  0.00    +0.000 OA
BRANCH  14  16
ATOM     16  O   UNL     1       3.884   5.095  17.190  0.00  0.00    +0.000 OA
BRANCH  16  17
ATOM     17  C   UNL     1       3.613   4.506  18.484  0.00  0.00    +0.000 C 
ATOM     18  C   UNL     1       3.080   3.085  18.305  0.00  0.00    +0.000 C 
ATOM     19  C   UNL     1       2.834   2.428  19.651  0.00  0.00    +0.000 C 
ATOM     20  N   UNL     1       1.864   3.248  20.508  0.00  0.00    +0.000 N 
ATOM     21  C   UNL     1       1.818   2.616  21.911  0.00  0.00    +0.000 C 
ATOM     22  C   UNL     1       0.443   3.190  19.945  0.00  0.00    +0.000 C 
ATOM     23  C   UNL     1       2.351   4.698  20.642  0.00  0.00    +0.000 C 
ATOM     24  C   UNL     1       2.611   5.341  19.281  0.00  0.00    +0.000 C 
ENDBRANCH  16  17
ENDBRANCH  14  16
ENDBRANCH   2  14
TORSDOF 5
ENDMDL
MODEL 4
REMARK VINA RESULT:      -7.5      3.572      5.606
REMARK  Name = 
REMARK  8 active torsions:
REMARK  status: ('A' for Active; 'I' for Inactive)
REMARK    1  A    between atoms: C_1  and  C_2
REMARK    2  A    between atoms: C_2  and  C_3
REMARK    3  A    between atoms: C_2  and  C_14
REMARK    4  A    between atoms: C_2  and  C_20
REMARK    5  A    between atoms: C_3  and  O_5
REMARK    6  A    between atoms: O_5  and  C_6
REMARK    7  A    between atoms: N_9  and  C_10
REMARK    8  A    between atoms: N_9  and  C_11
REMARK                            x       y       z     vdW  Elec       q    Type
REMARK                         _______ _______ _______ _____ _____    ______ ____
ROOT
ATOM      1  C   UNL     1       4.400   5.424  19.659  0.00  0.00    +0.000 C 
ATOM      2  C   UNL     1       3.724   5.428  18.264  0.00  0.00    +0.000 C 
ENDROOT
BRANCH   2   3
ATOM      3  C   UNL     1       4.876   4.931  17.298  0.00  0.00    +0.000 A 
ATOM      4  C   UNL     1       6.241   4.900  17.663  0.00  0.00    +0.000 A 
ATOM      5  C   UNL     1       7.254   4.504  16.779  0.00  0.00    +0.000 A 
ATOM      6  C   UNL     1       6.951   4.156  15.491  0.00  0.00    +0.000 A 
ATOM      7  C   UNL     1       5.633   4.224  15.055  0.00  0.00    +0.000 A 
ATOM      8  C   UNL     1       4.613   4.622  15.950  0.00  0.00    +0.000 A 
ENDBRANCH   2   3
BRANCH   2   9
ATOM      9  C   UNL     1       2.405   4.518  18.268  0.00  0.00    +0.000 C 
ATOM     10  C   UNL     1       2.619   3.020  17.977  0.00  0.00    +0.000 C 
ATOM     11  C   UNL     1       1.408   2.273  18.512  0.00  0.00    +0.000 C 
ATOM     12  C   UNL     1       0.872   3.135  19.639  0.00  0.00    +0.000 C 
ATOM     13  C   UNL     1       1.664   4.443  19.617  0.00  0.00    +0.000 C 
ENDBRANCH   2   9
BRANCH   2  14
ATOM     14  C   UNL     1       3.269   6.880  17.898  0.00  0.00    +0.000 C 
ATOM     15  O   UNL     1       3.933   7.657  17.212  0.00  0.00    +0.000 OA
BRANCH  14  16
ATOM     16  O   UNL     1       2.010   7.226  18.342  0.00  0.00    +0.000 OA
BRANCH  16  17
ATOM     17  C   UNL     1       1.960   8.525  18.978  0.00  0.00    +0.000 C 
ATOM     18  C   UNL     1       1.189   8.427  20.294  0.00  0.00    +0.000 C 
ATOM     19  C   UNL     1       1.163   9.769  21.005  0.00  0.00    +0.000 C 
ATOM     20  N   UNL     1       0.554  10.862  20.121  0.00  0.00    +0.000 N 
ATOM     21  C   UNL     1       0.737  12.211  20.838  0.00  0.00    +0.000 C 
ATOM     22  C   UNL     1      -0.951  10.653  19.939  0.00  0.00    +0.000 C 
ATOM     23  C   UNL     1       1.273  10.928  18.766  0.00  0.00    +0.000 C 
ATOM     24  C   UNL     1       1.308   9.568  18.070  0.00  0.00    +0.000 C 
ENDBRANCH  16  17
ENDBRANCH  14  16
ENDBRANCH   2  14
TORSDOF 5
ENDMDL
MODEL 5
REMARK VINA RESULT:      -7.3      1.441      2.045
REMARK  Name = 
REMARK  8 active torsions:
REMARK  status: ('A' for Active; 'I' for Inactive)
REMARK    1  A    between atoms: C_1  and  C_2
REMARK    2  A    between atoms: C_2  and  C_3
REMARK    3  A    between atoms: C_2  and  C_14
REMARK    4  A    between atoms: C_2  and  C_20
REMARK    5  A    between atoms: C_3  and  O_5
REMARK    6  A    between atoms: O_5  and  C_6
REMARK    7  A    between atoms: N_9  and  C_10
REMARK    8  A    between atoms: N_9  and  C_11
REMARK                            x       y       z     vdW  Elec       q    Type
REMARK                         _______ _______ _______ _____ _____    ______ ____
ROOT
ATOM      1  C   UNL     1       4.937   6.823  17.103  0.00  0.00    +0.000 C 
ATOM      2  C   UNL     1       6.310   6.104  17.146  0.00  0.00    +0.000 C 
ENDROOT
BRANCH   2   3
ATOM      3  C   UNL     1       6.342   5.298  15.782  0.00  0.00    +0.000 A 
ATOM      4  C   UNL     1       7.374   5.426  14.825  0.00  0.00    +0.000 A 
ATOM      5  C   UNL     1       7.362   4.744  13.601  0.00  0.00    +0.000 A 
ATOM      6  C   UNL     1       6.309   3.934  13.270  0.00  0.00    +0.000 A 
ATOM      7  C   UNL     1       5.236   3.815  14.145  0.00  0.00    +0.000 A 
ATOM      8  C   UNL     1       5.252   4.503  15.380  0.00  0.00    +0.000 A 
ENDBRANCH   2   3
BRANCH   2   9
ATOM      9  C   UNL     1       7.500   7.160  17.334  0.00  0.00    +0.000 C 
ATOM     10  C   UNL     1       7.101   8.646  17.259  0.00  0.00    +0.000 C 
ATOM     11  C   UNL     1       8.197   9.448  17.944  0.00  0.00    +0.000 C 
ATOM     12  C   UNL     1       8.817   8.499  18.951  0.00  0.00    +0.000 C 
ATOM     13  C   UNL     1       8.200   7.121  18.706  0.00  0.00    +0.000 C 
ENDBRANCH   2   9
BRANCH   2  14
ATOM     14  C   UNL     1       6.366   5.136  18.374  0.00  0.00    +0.000 C 
ATOM     15  O   UNL     1       7.287   4.347  18.586  0.00  0.00    +0.000 OA
BRANCH  14  16
ATOM     16  O   UNL     1       5.329   5.272  19.271  0.00  0.00    +0.000 OA
BRANCH  16  17
ATOM     17  C   UNL     1       4.175   4.462  18.946  0.00  0.00    +0.000 C 
ATOM     18  C   UNL     1       2.908   5.127  19.483  0.00  0.00    +0.000 C 
ATOM     19  C   UNL     1       1.676   4.320  19.112  0.00  0.00    +0.000 C 
ATOM     20  N   UNL     1       1.771   2.881  19.629  0.00  0.00    +0.000 N 
ATOM     21  C   UNL     1       0.582   2.090  19.054  0.00  0.00    +0.000 C 
ATOM     22  C   UNL     1       1.647   2.829  21.153  0.00  0.00    +0.000 C 
ATOM     23  C   UNL     1       3.073   2.219  19.154  0.00  0.00    +0.000 C 
ATOM     24  C   UNL     1       4.302   3.050  19.518  0.00  0.00    +0.000 C 
ENDBRANCH  16  17
ENDBRANCH  14  16
ENDBRANCH   2  14
TORSDOF 5
ENDMDL
MODEL 6
REMARK VINA RESULT:      -7.2      0.709      1.645
REMARK  Name = 
REMARK  8 active torsions:
REMARK  status: ('A' for Active; 'I' for Inactive)
REMARK    1  A    between atoms: C_1  and  C_2
REMARK    2  A    between atoms: C_2  and  C_3
REMARK    3  A    between atoms: C_2  and  C_14
REMARK    4  A    between atoms: C_2  and  C_20
REMARK    5  A    between atoms: C_3  and  O_5
REMARK    6  A    between atoms: O_5  and  C_6
REMARK    7  A    between atoms: N_9  and  C_10
REMARK    8  A    between atoms: N_9  and  C_11
REMARK                            x       y       z     vdW  Elec       q    Type
REMARK                         _______ _______ _______ _____ _____    ______ ____
ROOT
ATOM      1  C   UNL     1       5.121   6.929  15.540  0.00  0.00    +0.000 C 
ATOM      2  C   UNL     1       5.749   5.559  15.905  0.00  0.00    +0.000 C 
ENDROOT
BRANCH   2   3
ATOM      3  C   UNL     1       6.090   4.926  14.494  0.00  0.00    +0.000 A 
ATOM      4  C   UNL     1       5.284   3.951  13.862  0.00  0.00    +0.000 A 
ATOM      5  C   UNL     1       5.626   3.364  12.636  0.00  0.00    +0.000 A 
ATOM      6  C   UNL     1       6.796   3.700  12.010  0.00  0.00    +0.000 A 
ATOM      7  C   UNL     1       7.658   4.608  12.612  0.00  0.00    +0.000 A 
ATOM      8  C   UNL     1       7.309   5.200  13.848  0.00  0.00    +0.000 A 
ENDBRANCH   2   3
BRANCH   2   9
ATOM      9  C   UNL     1       7.006   5.751  16.880  0.00  0.00    +0.000 C 
ATOM     10  C   UNL     1       7.269   7.188  17.367  0.00  0.00    +0.000 C 
ATOM     11  C   UNL     1       8.123   7.097  18.622  0.00  0.00    +0.000 C 
ATOM     12  C   UNL     1       7.800   5.745  19.228  0.00  0.00    +0.000 C 
ATOM     13  C   UNL     1       6.911   5.007  18.226  0.00  0.00    +0.000 C 
ENDBRANCH   2   9
BRANCH   2  14
ATOM     14  C   UNL     1       4.707   4.685  16.679  0.00  0.00    +0.000 C 
ATOM     15  O   UNL     1       4.935   3.549  17.094  0.00  0.00    +0.000 OA
BRANCH  14  16
ATOM     16  O   UNL     1       3.503   5.305  16.938  0.00  0.00    +0.000 OA
BRANCH  16  17
ATOM     17  C   UNL     1       2.795   4.742  18.067  0.00  0.00    +0.000 C 
ATOM     18  C   UNL     1       3.532   5.081  19.362  0.00  0.00    +0.000 C 
ATOM     19  C   UNL     1       2.782   4.542  20.567  0.00  0.00    +0.000 C 
ATOM     20  N   UNL     1       2.570   3.027  20.465  0.00  0.00    +0.000 N 
ATOM     21  C   UNL     1       1.648   2.598  21.621  0.00  0.00    +0.000 C 
ATOM     22  C   UNL     1       3.888   2.270  20.640  0.00  0.00    +0.000 C 
ATOM     23  C   UNL     1       1.890   2.662  19.138  0.00  0.00    +0.000 C 
ATOM     24  C   UNL     1       2.646   3.227  17.935  0.00  0.00    +0.000 C 
ENDBRANCH  16  17
ENDBRANCH  14  16
ENDBRANCH   2  14
TORSDOF 5
ENDMDL
MODEL 7
REMARK VINA RESULT:      -7.2      3.428      5.509
REMARK  Name = 
REMARK  8 active torsions:
REMARK  status: ('A' for Active; 'I' for Inactive)
REMARK    1  A    between atoms: C_1  and  C_2
REMARK    2  A    between atoms: C_2  and  C_3
REMARK    3  A    between atoms: C_2  and  C_14
REMARK    4  A    between atoms: C_2  and  C_20
REMARK    5  A    between atoms: C_3  and  O_5
REMARK    6  A    between atoms: O_5  and  C_6
REMARK    7  A    between atoms: N_9  and  C_10
REMARK    8  A    between atoms: N_9  and  C_11
REMARK                            x       y       z     vdW  Elec       q    Type
REMARK                         _______ _______ _______ _____ _____    ______ ____
ROOT
ATOM      1  C   UNL     1       4.786   5.526  19.544  0.00  0.00    +0.000 C 
ATOM      2  C   UNL     1       3.750   5.091  18.476  0.00  0.00    +0.000 C 
ENDROOT
BRANCH   2   3
ATOM      3  C   UNL     1       4.616   4.970  17.155  0.00  0.00    +0.000 A 
ATOM      4  C   UNL     1       4.871   6.058  16.288  0.00  0.00    +0.000 A 
ATOM      5  C   UNL     1       5.597   5.923  15.097  0.00  0.00    +0.000 A 
ATOM      6  C   UNL     1       6.067   4.699  14.707  0.00  0.00    +0.000 A 
ATOM      7  C   UNL     1       5.796   3.581  15.487  0.00  0.00    +0.000 A 
ATOM      8  C   UNL     1       5.065   3.720  16.690  0.00  0.00    +0.000 A 
ENDBRANCH   2   3
BRANCH   2   9
ATOM      9  C   UNL     1       3.006   3.743  18.920  0.00  0.00    +0.000 C 
ATOM     10  C   UNL     1       2.210   3.815  20.237  0.00  0.00    +0.000 C 
ATOM     11  C   UNL     1       1.202   2.676  20.225  0.00  0.00    +0.000 C 
ATOM     12  C   UNL     1       0.930   2.398  18.760  0.00  0.00    +0.000 C 
ATOM     13  C   UNL     1       1.913   3.248  17.953  0.00  0.00    +0.000 C 
ENDBRANCH   2   9
BRANCH   2  14
ATOM     14  C   UNL     1       2.645   6.189  18.328  0.00  0.00    +0.000 C 
ATOM     15  O   UNL     1       1.629   6.055  17.646  0.00  0.00    +0.000 OA
BRANCH  14  16
ATOM     16  O   UNL     1       2.846   7.324  19.084  0.00  0.00    +0.000 OA
BRANCH  16  17
ATOM     17  C   UNL     1       1.657   8.135  19.235  0.00  0.00    +0.000 C 
ATOM     18  C   UNL     1       1.797   9.417  18.416  0.00  0.00    +0.000 C 
ATOM     19  C   UNL     1       0.541  10.264  18.519  0.00  0.00    +0.000 C 
ATOM     20  N   UNL     1       0.213  10.606  19.976  0.00  0.00    +0.000 N 
ATOM     21  C   UNL     1      -1.162  11.298  20.003  0.00  0.00    +0.000 C 
ATOM     22  C   UNL     1       1.224  11.598  20.554  0.00  0.00    +0.000 C 
ATOM     23  C   UNL     1       0.135   9.332  20.829  0.00  0.00    +0.000 C 
ATOM     24  C   UNL     1       1.397   8.481  20.701  0.00  0.00    +0.000 C 
ENDBRANCH  16  17
ENDBRANCH  14  16
ENDBRANCH   2  14
TORSDOF 5
ENDMDL
MODEL 8
REMARK VINA RESULT:      -7.2      3.528      6.191
REMARK  Name = 
REMARK  8 active torsions:
REMARK  status: ('A' for Active; 'I' for Inactive)
REMARK    1  A    between atoms: C_1  and  C_2
REMARK    2  A    between atoms: C_2  and  C_3
REMARK    3  A    between atoms: C_2  and  C_14
REMARK    4  A    between atoms: C_2  and  C_20
REMARK    5  A    between atoms: C_3  and  O_5
REMARK    6  A    between atoms: O_5  and  C_6
REMARK    7  A    between atoms: N_9  and  C_10
REMARK    8  A    between atoms: N_9  and  C_11
REMARK                            x       y       z     vdW  Elec       q    Type
REMARK                         _______ _______ _______ _____ _____    ______ ____
ROOT
ATOM      1  C   UNL     1       3.855   4.296  17.086  0.00  0.00    +0.000 C 
ATOM      2  C   UNL     1       3.742   5.239  18.311  0.00  0.00    +0.000 C 
ENDROOT
BRANCH   2   3
ATOM      3  C   UNL     1       3.326   4.261  19.487  0.00  0.00    +0.000 A 
ATOM      4  C   UNL     1       2.435   4.623  20.523  0.00  0.00    +0.000 A 
ATOM      5  C   UNL     1       2.118   3.764  21.584  0.00  0.00    +0.000 A 
ATOM      6  C   UNL     1       2.697   2.527  21.670  0.00  0.00    +0.000 A 
ATOM      7  C   UNL     1       3.627   2.139  20.714  0.00  0.00    +0.000 A 
ATOM      8  C   UNL     1       3.945   3.007  19.644  0.00  0.00    +0.000 A 
ENDBRANCH   2   3
BRANCH   2   9
ATOM      9  C   UNL     1       5.113   6.033  18.546  0.00  0.00    +0.000 C 
ATOM     10  C   UNL     1       6.237   5.246  19.245  0.00  0.00    +0.000 C 
ATOM     11  C   UNL     1       7.551   5.943  18.925  0.00  0.00    +0.000 C 
ATOM     12  C   UNL     1       7.322   6.639  17.598  0.00  0.00    +0.000 C 
ATOM     13  C   UNL     1       5.837   6.486  17.263  0.00  0.00    +0.000 C 
ENDBRANCH   2   9
BRANCH   2  14
ATOM     14  C   UNL     1       2.635   6.314  18.054  0.00  0.00    +0.000 C 
ATOM     15  O   UNL     1       1.578   6.086  17.466  0.00  0.00    +0.000 OA
BRANCH  14  16
ATOM     16  O   UNL     1       2.887   7.553  18.604  0.00  0.00    +0.000 OA
BRANCH  16  17
ATOM     17  C   UNL     1       1.689   8.304  18.909  0.00  0.00    +0.000 C 
ATOM     18  C   UNL     1       1.732   9.658  18.201  0.00  0.00    +0.000 C 
ATOM     19  C   UNL     1       0.462  10.447  18.467  0.00  0.00    +0.000 C 
ATOM     20  N   UNL     1       0.229  10.647  19.969  0.00  0.00    +0.000 N 
ATOM     21  C   UNL     1      -1.160  11.284  20.153  0.00  0.00    +0.000 C 
ATOM     22  C   UNL     1       1.250  11.620  20.562  0.00  0.00    +0.000 C 
ATOM     23  C   UNL     1       0.250   9.301  20.706  0.00  0.00    +0.000 C 
ATOM     24  C   UNL     1       1.525   8.510  20.415  0.00  0.00    +0.000 C 
ENDBRANCH  16  17
ENDBRANCH  14  16
ENDBRANCH   2  14
TORSDOF 5
ENDMDL
MODEL 9
REMARK VINA RESULT:      -7.1      3.933      6.300
REMARK  Name = 
REMARK  8 active torsions:
REMARK  status: ('A' for Active; 'I' for Inactive)
REMARK    1  A    between atoms: C_1  and  C_2
REMARK    2  A    between atoms: C_2  and  C_3
REMARK    3  A    between atoms: C_2  and  C_14
REMARK    4  A    between atoms: C_2  and  C_20
REMARK    5  A    between atoms: C_3  and  O_5
REMARK    6  A    between atoms: O_5  and  C_6
REMARK    7  A    between atoms: N_9  and  C_10
REMARK    8  A    between atoms: N_9  and  C_11
REMARK                            x       y       z     vdW  Elec       q    Type
REMARK                         _______ _______ _______ _____ _____    ______ ____
ROOT
ATOM      1  C   UNL     1       3.108   5.662  20.306  0.00  0.00    +0.000 C 
ATOM      2  C   UNL     1       3.126   5.760  18.759  0.00  0.00    +0.000 C 
ENDROOT
BRANCH   2   3
ATOM      3  C   UNL     1       4.669   5.876  18.418  0.00  0.00    +0.000 A 
ATOM      4  C   UNL     1       5.692   5.373  19.254  0.00  0.00    +0.000 A 
ATOM      5  C   UNL     1       7.054   5.528  18.962  0.00  0.00    +0.000 A 
ATOM      6  C   UNL     1       7.449   6.215  17.846  0.00  0.00    +0.000 A 
ATOM      7  C   UNL     1       6.489   6.784  17.018  0.00  0.00    +0.000 A 
ATOM      8  C   UNL     1       5.116   6.625  17.314  0.00  0.00    +0.000 A 
ENDBRANCH   2   3
BRANCH   2   9
ATOM      9  C   UNL     1       2.381   4.504  18.101  0.00  0.00    +0.000 C 
ATOM     10  C   UNL     1       3.277   3.308  17.729  0.00  0.00    +0.000 C 
ATOM     11  C   UNL     1       2.381   2.084  17.616  0.00  0.00    +0.000 C 
ATOM     12  C   UNL     1       1.201   2.366  18.525  0.00  0.00    +0.000 C 
ATOM     13  C   UNL     1       1.341   3.812  19.003  0.00  0.00    +0.000 C 
ENDBRANCH   2   9
BRANCH   2  14
ATOM     14  C   UNL     1       2.349   7.038  18.298  0.00  0.00    +0.000 C 
ATOM     15  O   UNL     1       1.594   7.071  17.327  0.00  0.00    +0.000 OA
BRANCH  14  16
ATOM     16  O   UNL     1       2.509   8.142  19.109  0.00  0.00    +0.000 OA
BRANCH  16  17
ATOM     17  C   UNL     1       1.297   8.914  19.279  0.00  0.00    +0.000 C 
ATOM     18  C   UNL     1       1.441  10.264  18.577  0.00  0.00    +0.000 C 
ATOM     19  C   UNL     1       0.163  11.074  18.699  0.00  0.00    +0.000 C 
ATOM     20  N   UNL     1      -0.230  11.285  20.165  0.00  0.00    +0.000 N 
ATOM     21  C   UNL     1      -1.621  11.945  20.194  0.00  0.00    +0.000 C 
ATOM     22  C   UNL     1       0.735  12.243  20.866  0.00  0.00    +0.000 C 
ATOM     23  C   UNL     1      -0.314   9.941  20.904  0.00  0.00    +0.000 C 
ATOM     24  C   UNL     1       0.972   9.129  20.757  0.00  0.00    +0.000 C 
ENDBRANCH  16  17
ENDBRANCH  14  16
ENDBRANCH   2  14
TORSDOF 5
ENDMDL
