MODEL 1
REMARK VINA RESULT:      -7.8      0.000      0.000
REMARK  Name = 
REMARK  4 active torsions:
REMARK  status: ('A' for Active; 'I' for Inactive)
REMARK    1  A    between atoms: C_2  and  C_17
REMARK    2  A    between atoms: N_3  and  N_4
REMARK    3  A    between atoms: C_5  and  C_6
REMARK    4  A    between atoms: C_9  and  N_10
REMARK                            x       y       z     vdW  Elec       q    Type
REMARK                         _______ _______ _______ _____ _____    ______ ____
ROOT
ATOM      1  N   UNL     1       7.679   8.403  17.874  0.00  0.00    +0.000 NA
ATOM      2  C   UNL     1       7.721   7.118  18.049  0.00  0.00    +0.000 C 
ENDROOT
BRANCH   2   3
ATOM      3  C   UNL     1       6.595   6.300  17.668  0.00  0.00    +0.000 A 
ATOM      4  C   UNL     1       5.812   6.383  16.539  0.00  0.00    +0.000 A 
ATOM      5  C   UNL     1       4.783   5.395  16.522  0.00  0.00    +0.000 A 
ATOM      6  C   UNL     1       4.775   4.597  17.652  0.00  0.00    +0.000 A 
ATOM      7  S   UNL     1       6.071   5.050  18.701  0.00  0.00    +0.000 S 
BRANCH   6   8
ATOM      8  N   UNL     1       3.934   3.561  17.944  0.00  0.00    +0.000 N 
ATOM      9  C   UNL     1       2.613   3.422  17.316  0.00  0.00    +0.000 C 
ATOM     10  C   UNL     1       1.487   3.657  18.332  0.00  0.00    +0.000 C 
ATOM     11  O   UNL     1       1.636   2.818  19.489  0.00  0.00    +0.000 OA
ATOM     12  C   UNL     1       2.892   3.085  20.133  0.00  0.00    +0.000 C 
ATOM     13  C   UNL     1       4.081   2.804  19.200  0.00  0.00    +0.000 C 
ENDBRANCH   6   8
ENDBRANCH   2   3
BRANCH   1  16
ATOM     14  O   UNL     1       7.929  11.128  17.518  0.00  0.00    +0.000 OA
ATOM     15  C   UNL     1       8.789  10.489  18.124  0.00  0.00    +0.000 C 
ATOM     16  N   UNL     1       8.765   9.113  18.299  0.00  0.00    +0.000 N 
ATOM     17  H   UNL     1       9.489   8.648  18.839  0.00  0.00    +0.000 HD
BRANCH  15  18
ATOM     18  C   UNL     1       9.964  11.227  18.675  0.00  0.00    +0.000 A 
ATOM     19  C   UNL     1      10.916  11.665  17.735  0.00  0.00    +0.000 A 
ATOM     20  C   UNL     1      12.039  12.393  18.130  0.00  0.00    +0.000 A 
ATOM     21  C   UNL     1      12.223  12.704  19.472  0.00  0.00    +0.000 A 
ATOM     22  C   UNL     1      11.287  12.283  20.417  0.00  0.00    +0.000 A 
ATOM     23  C   UNL     1      10.160  11.545  20.027  0.00  0.00    +0.000 A 
ATOM     24 CL   UNL     1       9.057  11.111  21.287  0.00  0.00    +0.000 Cl
ENDBRANCH  15  18
ENDBRANCH   1  16
TORSDOF 4
ENDMDL
MODEL 2
REMARK VINA RESULT:      -7.6      1.714      2.061
REMARK  Name = 
REMARK  4 active torsions:
REMARK  status: ('A' for Active; 'I' for Inactive)
REMARK    1  A    between atoms: C_2  and  C_17
REMARK    2  A    between atoms: N_3  and  N_4
REMARK    3  A    between atoms: C_5  and  C_6
REMARK    4  A    between atoms: C_9  and  N_10
REMARK                            x       y       z     vdW  Elec       q    Type
REMARK                         _______ _______ _______ _____ _____    ______ ____
ROOT
ATOM      1  N   UNL     1       8.452   9.049  18.449  0.00  0.00    +0.000 NA
ATOM      2  C   UNL     1       7.808   8.315  17.595  0.00  0.00    +0.000 C 
ENDROOT
BRANCH   2   3
ATOM      3  C   UNL     1       7.293   7.028  17.991  0.00  0.00    +0.000 A 
ATOM      4  C   UNL     1       7.856   6.096  18.834  0.00  0.00    +0.000 A 
ATOM      5  C   UNL     1       7.040   4.934  18.976  0.00  0.00    +0.000 A 
ATOM      6  C   UNL     1       5.885   4.982  18.215  0.00  0.00    +0.000 A 
ATOM      7  S   UNL     1       5.802   6.485  17.368  0.00  0.00    +0.000 S 
BRANCH   6   8
ATOM      8  N   UNL     1       4.895   4.046  18.130  0.00  0.00    +0.000 N 
ATOM      9  C   UNL     1       3.845   4.107  17.103  0.00  0.00    +0.000 C 
ATOM     10  C   UNL     1       2.478   4.428  17.723  0.00  0.00    +0.000 C 
ATOM     11  O   UNL     1       2.154   3.517  18.787  0.00  0.00    +0.000 OA
ATOM     12  C   UNL     1       3.151   3.592  19.820  0.00  0.00    +0.000 C 
ATOM     13  C   UNL     1       4.545   3.213  19.293  0.00  0.00    +0.000 C 
ENDBRANCH   6   8
ENDBRANCH   2   3
BRANCH   1  16
ATOM     14  O   UNL     1       9.650  10.921  20.084  0.00  0.00    +0.000 OA
ATOM     15  C   UNL     1       9.578  11.099  18.868  0.00  0.00    +0.000 C 
ATOM     16  N   UNL     1       8.946  10.235  17.986  0.00  0.00    +0.000 N 
ATOM     17  H   UNL     1       8.951  10.421  16.988  0.00  0.00    +0.000 HD
BRANCH  15  18
ATOM     18  C   UNL     1      10.168  12.346  18.298  0.00  0.00    +0.000 A 
ATOM     19  C   UNL     1      11.309  12.179  17.491  0.00  0.00    +0.000 A 
ATOM     20  C   UNL     1      11.927  13.270  16.878  0.00  0.00    +0.000 A 
ATOM     21  C   UNL     1      11.407  14.547  17.055  0.00  0.00    +0.000 A 
ATOM     22  C   UNL     1      10.274  14.731  17.847  0.00  0.00    +0.000 A 
ATOM     23  C   UNL     1       9.652  13.638  18.471  0.00  0.00    +0.000 A 
ATOM     24 CL   UNL     1       8.235  13.993  19.398  0.00  0.00    +0.000 Cl
ENDBRANCH  15  18
ENDBRANCH   1  16
TORSDOF 4
ENDMDL
MODEL 3
REMARK VINA RESULT:      -7.3      3.557     10.116
REMARK  Name = 
REMARK  4 active torsions:
REMARK  status: ('A' for Active; 'I' for Inactive)
REMARK    1  A    between atoms: C_2  and  C_17
REMARK    2  A    between atoms: N_3  and  N_4
REMARK    3  A    between atoms: C_5  and  C_6
REMARK    4  A    between atoms: C_9  and  N_10
REMARK                            x       y       z     vdW  Elec       q    Type
REMARK                         _______ _______ _______ _____ _____    ______ ____
ROOT
ATOM      1  N   UNL     1       8.492   8.628  18.383  0.00  0.00    +0.000 NA
ATOM      2  C   UNL     1       8.520   9.874  18.023  0.00  0.00    +0.000 C 
ENDROOT
BRANCH   2   3
ATOM      3  C   UNL     1       9.291  10.829  18.782  0.00  0.00    +0.000 A 
ATOM      4  C   UNL     1       9.510  10.874  20.140  0.00  0.00    +0.000 A 
ATOM      5  C   UNL     1      10.327  11.981  20.518  0.00  0.00    +0.000 A 
ATOM      6  C   UNL     1      10.690  12.781  19.450  0.00  0.00    +0.000 A 
ATOM      7  S   UNL     1      10.052  12.127  17.983  0.00  0.00    +0.000 S 
BRANCH   6   8
ATOM      8  N   UNL     1      11.467  13.904  19.465  0.00  0.00    +0.000 N 
ATOM      9  C   UNL     1      11.180  15.044  20.347  0.00  0.00    +0.000 C 
ATOM     10  C   UNL     1      10.717  16.267  19.542  0.00  0.00    +0.000 C 
ATOM     11  O   UNL     1      11.652  16.598  18.502  0.00  0.00    +0.000 OA
ATOM     12  C   UNL     1      11.798  15.489  17.600  0.00  0.00    +0.000 C 
ATOM     13  C   UNL     1      12.329  14.238  18.319  0.00  0.00    +0.000 C 
ENDBRANCH   6   8
ENDBRANCH   2   3
BRANCH   1  16
ATOM     14  O   UNL     1       7.995   6.005  19.082  0.00  0.00    +0.000 OA
ATOM     15  C   UNL     1       7.467   6.505  18.089  0.00  0.00    +0.000 C 
ATOM     16  N   UNL     1       7.707   7.795  17.639  0.00  0.00    +0.000 N 
ATOM     17  H   UNL     1       7.212   8.160  16.831  0.00  0.00    +0.000 HD
BRANCH  15  18
ATOM     18  C   UNL     1       6.540   5.660  17.279  0.00  0.00    +0.000 A 
ATOM     19  C   UNL     1       6.974   5.333  15.980  0.00  0.00    +0.000 A 
ATOM     20  C   UNL     1       6.205   4.522  15.144  0.00  0.00    +0.000 A 
ATOM     21  C   UNL     1       4.992   4.016  15.598  0.00  0.00    +0.000 A 
ATOM     22  C   UNL     1       4.549   4.325  16.884  0.00  0.00    +0.000 A 
ATOM     23  C   UNL     1       5.315   5.145  17.727  0.00  0.00    +0.000 A 
ATOM     24 CL   UNL     1       4.673   5.426  19.309  0.00  0.00    +0.000 Cl
ENDBRANCH  15  18
ENDBRANCH   1  16
TORSDOF 4
ENDMDL
MODEL 4
REMARK VINA RESULT:      -7.3      1.681      2.110
REMARK  Name = 
REMARK  4 active torsions:
REMARK  status: ('A' for Active; 'I' for Inactive)
REMARK    1  A    between atoms: C_2  and  C_17
REMARK    2  A    between atoms: N_3  and  N_4
REMARK    3  A    between atoms: C_5  and  C_6
REMARK    4  A    between atoms: C_9  and  N_10
REMARK                            x       y       z     vdW  Elec       q    Type
REMARK                         _______ _______ _______ _____ _____    ______ ____
ROOT
ATOM      1  N   UNL     1       8.260   8.448  18.296  0.00  0.00    +0.000 NA
ATOM      2  C   UNL     1       7.470   7.894  17.430  0.00  0.00    +0.000 C 
ENDROOT
BRANCH   2   3
ATOM      3  C   UNL     1       6.823   6.642  17.739  0.00  0.00    +0.000 A 
ATOM      4  C   UNL     1       7.364   5.376  17.768  0.00  0.00    +0.000 A 
ATOM      5  C   UNL     1       6.399   4.385  18.114  0.00  0.00    +0.000 A 
ATOM      6  C   UNL     1       5.131   4.902  18.311  0.00  0.00    +0.000 A 
ATOM      7  S   UNL     1       5.160   6.618  18.109  0.00  0.00    +0.000 S 
BRANCH   6   8
ATOM      8  N   UNL     1       3.993   4.232  18.658  0.00  0.00    +0.000 N 
ATOM      9  C   UNL     1       3.804   2.804  18.365  0.00  0.00    +0.000 C 
ATOM     10  C   UNL     1       2.722   2.595  17.296  0.00  0.00    +0.000 C 
ATOM     11  O   UNL     1       1.493   3.251  17.653  0.00  0.00    +0.000 OA
ATOM     12  C   UNL     1       1.715   4.663  17.805  0.00  0.00    +0.000 C 
ATOM     13  C   UNL     1       2.739   4.961  18.913  0.00  0.00    +0.000 C 
ENDBRANCH   6   8
ENDBRANCH   2   3
BRANCH   1  16
ATOM     14  O   UNL     1       9.120  10.360  20.091  0.00  0.00    +0.000 OA
ATOM     15  C   UNL     1       9.315  10.495  18.883  0.00  0.00    +0.000 C 
ATOM     16  N   UNL     1       8.868   9.610  17.913  0.00  0.00    +0.000 N 
ATOM     17  H   UNL     1       9.091   9.760  16.934  0.00  0.00    +0.000 HD
BRANCH  15  18
ATOM     18  C   UNL     1      10.040  11.713  18.414  0.00  0.00    +0.000 A 
ATOM     19  C   UNL     1      11.424  11.746  18.670  0.00  0.00    +0.000 A 
ATOM     20  C   UNL     1      12.211  12.819  18.248  0.00  0.00    +0.000 A 
ATOM     21  C   UNL     1      11.628  13.873  17.555  0.00  0.00    +0.000 A 
ATOM     22  C   UNL     1      10.259  13.854  17.287  0.00  0.00    +0.000 A 
ATOM     23  C   UNL     1       9.461  12.781  17.714  0.00  0.00    +0.000 A 
ATOM     24 CL   UNL     1       7.786  12.860  17.292  0.00  0.00    +0.000 Cl
ENDBRANCH  15  18
ENDBRANCH   1  16
TORSDOF 4
ENDMDL
MODEL 5
REMARK VINA RESULT:      -7.3      1.353      1.737
REMARK  Name = 
REMARK  4 active torsions:
REMARK  status: ('A' for Active; 'I' for Inactive)
REMARK    1  A    between atoms: C_2  and  C_17
REMARK    2  A    between atoms: N_3  and  N_4
REMARK    3  A    between atoms: C_5  and  C_6
REMARK    4  A    between atoms: C_9  and  N_10
REMARK                            x       y       z     vdW  Elec       q    Type
REMARK                         _______ _______ _______ _____ _____    ______ ____
ROOT
ATOM      1  N   UNL     1       7.978   7.711  18.163  0.00  0.00    +0.000 NA
ATOM      2  C   UNL     1       7.821   6.556  18.733  0.00  0.00    +0.000 C 
ENDROOT
BRANCH   2   3
ATOM      3  C   UNL     1       6.959   5.566  18.134  0.00  0.00    +0.000 A 
ATOM      4  C   UNL     1       7.063   4.967  16.899  0.00  0.00    +0.000 A 
ATOM      5  C   UNL     1       6.008   4.037  16.660  0.00  0.00    +0.000 A 
ATOM      6  C   UNL     1       5.099   3.964  17.701  0.00  0.00    +0.000 A 
ATOM      7  S   UNL     1       5.586   5.017  18.981  0.00  0.00    +0.000 S 
BRANCH   6   8
ATOM      8  N   UNL     1       3.989   3.174  17.795  0.00  0.00    +0.000 N 
ATOM      9  C   UNL     1       2.745   3.481  17.074  0.00  0.00    +0.000 C 
ATOM     10  C   UNL     1       1.630   3.897  18.043  0.00  0.00    +0.000 C 
ATOM     11  O   UNL     1       1.438   2.919  19.079  0.00  0.00    +0.000 OA
ATOM     12  C   UNL     1       2.652   2.751  19.829  0.00  0.00    +0.000 C 
ATOM     13  C   UNL     1       3.808   2.264  18.939  0.00  0.00    +0.000 C 
ENDBRANCH   6   8
ENDBRANCH   2   3
BRANCH   1  16
ATOM     14  O   UNL     1       8.023  10.402  17.554  0.00  0.00    +0.000 OA
ATOM     15  C   UNL     1       8.700   9.953  18.478  0.00  0.00    +0.000 C 
ATOM     16  N   UNL     1       8.776   8.609  18.813  0.00  0.00    +0.000 N 
ATOM     17  H   UNL     1       9.327   8.306  19.610  0.00  0.00    +0.000 HD
BRANCH  15  18
ATOM     18  C   UNL     1       9.536  10.903  19.270  0.00  0.00    +0.000 A 
ATOM     19  C   UNL     1       9.166  11.078  20.618  0.00  0.00    +0.000 A 
ATOM     20  C   UNL     1       9.894  11.917  21.463  0.00  0.00    +0.000 A 
ATOM     21  C   UNL     1      11.011  12.586  20.977  0.00  0.00    +0.000 A 
ATOM     22  C   UNL     1      11.395  12.420  19.647  0.00  0.00    +0.000 A 
ATOM     23  C   UNL     1      10.664  11.584  18.790  0.00  0.00    +0.000 A 
ATOM     24 CL   UNL     1      11.262  11.435  17.174  0.00  0.00    +0.000 Cl
ENDBRANCH  15  18
ENDBRANCH   1  16
TORSDOF 4
ENDMDL
MODEL 6
REMARK VINA RESULT:      -7.2      1.091      1.108
REMARK  Name = 
REMARK  4 active torsions:
REMARK  status: ('A' for Active; 'I' for Inactive)
REMARK    1  A    between atoms: C_2  and  C_17
REMARK    2  A    between atoms: N_3  and  N_4
REMARK    3  A    between atoms: C_5  and  C_6
REMARK    4  A    between atoms: C_9  and  N_10
REMARK                            x       y       z     vdW  Elec       q    Type
REMARK                         _______ _______ _______ _____ _____    ______ ____
ROOT
ATOM      1  N   UNL     1       7.904   8.909  17.858  0.00  0.00    +0.000 NA
ATOM      2  C   UNL     1       7.940   7.658  18.197  0.00  0.00    +0.000 C 
ENDROOT
BRANCH   2   3
ATOM      3  C   UNL     1       6.885   6.765  17.782  0.00  0.00    +0.000 A 
ATOM      4  C   UNL     1       6.140   6.792  16.625  0.00  0.00    +0.000 A 
ATOM      5  C   UNL     1       5.179   5.738  16.578  0.00  0.00    +0.000 A 
ATOM      6  C   UNL     1       5.183   4.946  17.712  0.00  0.00    +0.000 A 
ATOM      7  S   UNL     1       6.407   5.488  18.803  0.00  0.00    +0.000 S 
BRANCH   6   8
ATOM      8  N   UNL     1       4.402   3.859  17.981  0.00  0.00    +0.000 N 
ATOM      9  C   UNL     1       3.189   3.553  17.208  0.00  0.00    +0.000 C 
ATOM     10  C   UNL     1       1.925   3.751  18.056  0.00  0.00    +0.000 C 
ATOM     11  O   UNL     1       1.993   3.011  19.286  0.00  0.00    +0.000 OA
ATOM     12  C   UNL     1       3.128   3.438  20.056  0.00  0.00    +0.000 C 
ATOM     13  C   UNL     1       4.448   3.207  19.301  0.00  0.00    +0.000 C 
ENDBRANCH   6   8
ENDBRANCH   2   3
BRANCH   1  16
ATOM     14  O   UNL     1       7.986  11.640  17.469  0.00  0.00    +0.000 OA
ATOM     15  C   UNL     1       8.855  11.070  18.129  0.00  0.00    +0.000 C 
ATOM     16  N   UNL     1       8.916   9.698  18.325  0.00  0.00    +0.000 N 
ATOM     17  H   UNL     1       9.641   9.292  18.910  0.00  0.00    +0.000 HD
BRANCH  15  18
ATOM     18  C   UNL     1       9.946  11.895  18.726  0.00  0.00    +0.000 A 
ATOM     19  C   UNL     1      11.230  11.317  18.727  0.00  0.00    +0.000 A 
ATOM     20  C   UNL     1      12.333  12.008  19.230  0.00  0.00    +0.000 A 
ATOM     21  C   UNL     1      12.172  13.295  19.731  0.00  0.00    +0.000 A 
ATOM     22  C   UNL     1      10.908  13.886  19.733  0.00  0.00    +0.000 A 
ATOM     23  C   UNL     1       9.794  13.193  19.235  0.00  0.00    +0.000 A 
ATOM     24 CL   UNL     1       8.290  14.046  19.261  0.00  0.00    +0.000 Cl
ENDBRANCH  15  18
ENDBRANCH   1  16
TORSDOF 4
ENDMDL
MODEL 7
REMARK VINA RESULT:      -7.0      3.642     10.148
REMARK  Name = 
REMARK  4 active torsions:
REMARK  status: ('A' for Active; 'I' for Inactive)
REMARK    1  A    between atoms: C_2  and  C_17
REMARK    2  A    between atoms: N_3  and  N_4
REMARK    3  A    between atoms: C_5  and  C_6
REMARK    4  A    between atoms: C_9  and  N_10
REMARK                            x       y       z     vdW  Elec       q    Type
REMARK                         _______ _______ _______ _____ _____    ______ ____
ROOT
ATOM      1  N   UNL     1       8.237   8.950  18.281  0.00  0.00    +0.000 NA
ATOM      2  C   UNL     1       8.563  10.035  17.650  0.00  0.00    +0.000 C 
ENDROOT
BRANCH   2   3
ATOM      3  C   UNL     1       9.219  11.111  18.354  0.00  0.00    +0.000 A 
ATOM      4  C   UNL     1      10.076  11.041  19.429  0.00  0.00    +0.000 A 
ATOM      5  C   UNL     1      10.516  12.331  19.852  0.00  0.00    +0.000 A 
ATOM      6  C   UNL     1       9.964  13.364  19.116  0.00  0.00    +0.000 A 
ATOM      7  S   UNL     1       8.941  12.724  17.880  0.00  0.00    +0.000 S 
BRANCH   6   8
ATOM      8  N   UNL     1      10.181  14.705  19.255  0.00  0.00    +0.000 N 
ATOM      9  C   UNL     1      10.018  15.646  18.138  0.00  0.00    +0.000 C 
ATOM     10  C   UNL     1      11.370  16.220  17.692  0.00  0.00    +0.000 C 
ATOM     11  O   UNL     1      12.088  16.796  18.796  0.00  0.00    +0.000 OA
ATOM     12  C   UNL     1      12.327  15.800  19.803  0.00  0.00    +0.000 C 
ATOM     13  C   UNL     1      11.013  15.223  20.355  0.00  0.00    +0.000 C 
ENDBRANCH   6   8
ENDBRANCH   2   3
BRANCH   1  16
ATOM     14  O   UNL     1       8.114   6.301  19.045  0.00  0.00    +0.000 OA
ATOM     15  C   UNL     1       7.526   6.696  18.038  0.00  0.00    +0.000 C 
ATOM     16  N   UNL     1       7.582   7.995  17.557  0.00  0.00    +0.000 N 
ATOM     17  H   UNL     1       7.046   8.267  16.738  0.00  0.00    +0.000 HD
BRANCH  15  18
ATOM     18  C   UNL     1       6.733   5.708  17.248  0.00  0.00    +0.000 A 
ATOM     19  C   UNL     1       7.223   5.405  15.964  0.00  0.00    +0.000 A 
ATOM     20  C   UNL     1       6.582   4.472  15.147  0.00  0.00    +0.000 A 
ATOM     21  C   UNL     1       5.444   3.819  15.607  0.00  0.00    +0.000 A 
ATOM     22  C   UNL     1       4.947   4.103  16.879  0.00  0.00    +0.000 A 
ATOM     23  C   UNL     1       5.583   5.045  17.702  0.00  0.00    +0.000 A 
ATOM     24 CL   UNL     1       4.890   5.283  19.269  0.00  0.00    +0.000 Cl
ENDBRANCH  15  18
ENDBRANCH   1  16
TORSDOF 4
ENDMDL
MODEL 8
REMARK VINA RESULT:      -7.0      7.600      9.609
REMARK  Name = 
REMARK  4 active torsions:
REMARK  status: ('A' for Active; 'I' for Inactive)
REMARK    1  A    between atoms: C_2  and  C_17
REMARK    2  A    between atoms: N_3  and  N_4
REMARK    3  A    between atoms: C_5  and  C_6
REMARK    4  A    between atoms: C_9  and  N_10
REMARK                            x       y       z     vdW  Elec       q    Type
REMARK                         _______ _______ _______ _____ _____    ______ ____
ROOT
ATOM      1  N   UNL     1       1.562   8.374  19.839  0.00  0.00    +0.000 NA
ATOM      2  C   UNL     1       1.205   8.265  21.081  0.00  0.00    +0.000 C 
ENDROOT
BRANCH   2   3
ATOM      3  C   UNL     1       0.374   9.278  21.685  0.00  0.00    +0.000 A 
ATOM      4  C   UNL     1      -0.060   9.372  22.988  0.00  0.00    +0.000 A 
ATOM      5  C   UNL     1      -0.876  10.522  23.203  0.00  0.00    +0.000 A 
ATOM      6  C   UNL     1      -1.080  11.269  22.056  0.00  0.00    +0.000 A 
ATOM      7  S   UNL     1      -0.220  10.562  20.735  0.00  0.00    +0.000 S 
BRANCH   6   8
ATOM      8  N   UNL     1      -1.798  12.422  21.920  0.00  0.00    +0.000 N 
ATOM      9  C   UNL     1      -2.617  12.971  23.011  0.00  0.00    +0.000 C 
ATOM     10  C   UNL     1      -4.114  12.868  22.687  0.00  0.00    +0.000 C 
ATOM     11  O   UNL     1      -4.421  13.464  21.416  0.00  0.00    +0.000 OA
ATOM     12  C   UNL     1      -3.685  12.807  20.372  0.00  0.00    +0.000 C 
ATOM     13  C   UNL     1      -2.167  12.926  20.586  0.00  0.00    +0.000 C 
ENDBRANCH   6   8
ENDBRANCH   2   3
BRANCH   1  16
ATOM     14  O   UNL     1       2.532   8.372  17.255  0.00  0.00    +0.000 OA
ATOM     15  C   UNL     1       2.866   7.499  18.055  0.00  0.00    +0.000 C 
ATOM     16  N   UNL     1       2.383   7.397  19.352  0.00  0.00    +0.000 N 
ATOM     17  H   UNL     1       2.725   6.672  19.975  0.00  0.00    +0.000 HD
BRANCH  15  18
ATOM     18  C   UNL     1       3.821   6.447  17.598  0.00  0.00    +0.000 A 
ATOM     19  C   UNL     1       5.129   6.880  17.310  0.00  0.00    +0.000 A 
ATOM     20  C   UNL     1       6.116   5.979  16.905  0.00  0.00    +0.000 A 
ATOM     21  C   UNL     1       5.812   4.628  16.791  0.00  0.00    +0.000 A 
ATOM     22  C   UNL     1       4.522   4.180  17.077  0.00  0.00    +0.000 A 
ATOM     23  C   UNL     1       3.525   5.081  17.478  0.00  0.00    +0.000 A 
ATOM     24 CL   UNL     1       1.977   4.397  17.837  0.00  0.00    +0.000 Cl
ENDBRANCH  15  18
ENDBRANCH   1  16
TORSDOF 4
ENDMDL
MODEL 9
REMARK VINA RESULT:      -6.9      7.112      9.103
REMARK  Name = 
REMARK  4 active torsions:
REMARK  status: ('A' for Active; 'I' for Inactive)
REMARK    1  A    between atoms: C_2  and  C_17
REMARK    2  A    between atoms: N_3  and  N_4
REMARK    3  A    between atoms: C_5  and  C_6
REMARK    4  A    between atoms: C_9  and  N_10
REMARK                            x       y       z     vdW  Elec       q    Type
REMARK                         _______ _______ _______ _____ _____    ______ ____
ROOT
ATOM      1  N   UNL     1       2.173   8.385  18.462  0.00  0.00    +0.000 NA
ATOM      2  C   UNL     1       1.581   9.352  17.833  0.00  0.00    +0.000 C 
ENDROOT
BRANCH   2   3
ATOM      3  C   UNL     1       0.511  10.081  18.470  0.00  0.00    +0.000 A 
ATOM      4  C   UNL     1      -0.802  10.204  18.076  0.00  0.00    +0.000 A 
ATOM      5  C   UNL     1      -1.559  11.018  18.969  0.00  0.00    +0.000 A 
ATOM      6  C   UNL     1      -0.807  11.531  20.011  0.00  0.00    +0.000 A 
ATOM      7  S   UNL     1       0.820  10.961  19.896  0.00  0.00    +0.000 S 
BRANCH   6   8
ATOM      8  N   UNL     1      -1.223  12.332  21.035  0.00  0.00    +0.000 N 
ATOM      9  C   UNL     1      -0.867  12.064  22.436  0.00  0.00    +0.000 C 
ATOM     10  C   UNL     1      -2.096  11.634  23.249  0.00  0.00    +0.000 C 
ATOM     11  O   UNL     1      -3.168  12.584  23.127  0.00  0.00    +0.000 OA
ATOM     12  C   UNL     1      -3.557  12.713  21.750  0.00  0.00    +0.000 C 
ATOM     13  C   UNL     1      -2.394  13.211  20.875  0.00  0.00    +0.000 C 
ENDBRANCH   6   8
ENDBRANCH   2   3
BRANCH   1  16
ATOM     14  O   UNL     1       3.308   6.038  19.366  0.00  0.00    +0.000 OA
ATOM     15  C   UNL     1       3.628   6.515  18.278  0.00  0.00    +0.000 C 
ATOM     16  N   UNL     1       3.147   7.716  17.777  0.00  0.00    +0.000 N 
ATOM     17  H   UNL     1       3.424   8.039  16.855  0.00  0.00    +0.000 HD
BRANCH  15  18
ATOM     18  C   UNL     1       4.635   5.785  17.452  0.00  0.00    +0.000 A 
ATOM     19  C   UNL     1       5.877   6.425  17.280  0.00  0.00    +0.000 A 
ATOM     20  C   UNL     1       6.906   5.823  16.554  0.00  0.00    +0.000 A 
ATOM     21  C   UNL     1       6.712   4.564  15.997  0.00  0.00    +0.000 A 
ATOM     22  C   UNL     1       5.490   3.912  16.162  0.00  0.00    +0.000 A 
ATOM     23  C   UNL     1       4.450   4.516  16.885  0.00  0.00    +0.000 A 
ATOM     24 CL   UNL     1       2.996   3.592  17.047  0.00  0.00    +0.000 Cl
ENDBRANCH  15  18
ENDBRANCH   1  16
TORSDOF 4
ENDMDL
