MODEL 1
REMARK VINA RESULT:      -8.0      0.000      0.000
REMARK  Name = 
REMARK  4 active torsions:
REMARK  status: ('A' for Active; 'I' for Inactive)
REMARK    1  A    between atoms: C_1  and  C_2
REMARK    2  A    between atoms: C_2  and  C_3
REMARK    3  A    between atoms: N_5  and  C_6
REMARK    4  A    between atoms: C_6  and  C_7
REMARK                            x       y       z     vdW  Elec       q    Type
REMARK                         _______ _______ _______ _____ _____    ______ ____
ROOT
ATOM      1  C   UNL     1       5.254   3.764  17.821  0.00  0.00    +0.000 C 
ATOM      2  O   UNL     1       5.383   4.001  19.025  0.00  0.00    +0.000 OA
ATOM      3  N   UNL     1       4.200   3.016  17.346  0.00  0.00    +0.000 N 
ATOM      4  H   UNL     1       4.370   2.542  16.461  0.00  0.00    +0.000 HD
ENDROOT
BRANCH   1   6
ATOM      5  C   UNL     1       6.211   3.613  15.503  0.00  0.00    +0.000 C 
ATOM      6  C   UNL     1       6.128   4.542  16.742  0.00  0.00    +0.000 C 
ATOM      7  C   UNL     1       7.572   4.691  17.293  0.00  0.00    +0.000 C 
ATOM      8  C   UNL     1       7.787   5.775  18.354  0.00  0.00    +0.000 C 
ATOM      9  C   UNL     1       7.766   7.193  17.778  0.00  0.00    +0.000 C 
ATOM     10  C   UNL     1       6.387   7.797  17.538  0.00  0.00    +0.000 C 
ATOM     11  C   UNL     1       5.309   6.833  17.124  0.00  0.00    +0.000 C 
ATOM     12  O   UNL     1       4.167   6.904  17.578  0.00  0.00    +0.000 OA
ATOM     13  N   UNL     1       5.641   5.847  16.235  0.00  0.00    +0.000 N 
ATOM     14  H   UNL     1       6.277   6.194  15.526  0.00  0.00    +0.000 HD
ENDBRANCH   1   6
BRANCH   3  15
ATOM     15  C   UNL     1       3.243   2.343  18.213  0.00  0.00    +0.000 C 
BRANCH  15  16
ATOM     16  C   UNL     1       1.809   2.898  18.040  0.00  0.00    +0.000 C 
ATOM     17  C   UNL     1       0.798   2.377  19.074  0.00  0.00    +0.000 C 
ATOM     18  C   UNL     1       1.050   2.915  20.481  0.00  0.00    +0.000 C 
ATOM     19  C   UNL     1       1.098   4.439  20.509  0.00  0.00    +0.000 C 
ATOM     20  C   UNL     1       2.029   5.026  19.451  0.00  0.00    +0.000 C 
ATOM     21  C   UNL     1       1.792   4.437  18.061  0.00  0.00    +0.000 C 
ENDBRANCH  15  16
ENDBRANCH   3  15
TORSDOF 3
ENDMDL
MODEL 2
REMARK VINA RESULT:      -7.9      1.317      2.347
REMARK  Name = 
REMARK  4 active torsions:
REMARK  status: ('A' for Active; 'I' for Inactive)
REMARK    1  A    between atoms: C_1  and  C_2
REMARK    2  A    between atoms: C_2  and  C_3
REMARK    3  A    between atoms: N_5  and  C_6
REMARK    4  A    between atoms: C_6  and  C_7
REMARK                            x       y       z     vdW  Elec       q    Type
REMARK                         _______ _______ _______ _____ _____    ______ ____
ROOT
ATOM      1  C   UNL     1       5.585   4.057  18.530  0.00  0.00    +0.000 C 
ATOM      2  O   UNL     1       5.592   3.911  19.756  0.00  0.00    +0.000 OA
ATOM      3  N   UNL     1       4.623   3.464  17.743  0.00  0.00    +0.000 N 
ATOM      4  H   UNL     1       4.899   3.294  16.777  0.00  0.00    +0.000 HD
ENDROOT
BRANCH   1   6
ATOM      5  C   UNL     1       7.668   5.429  18.824  0.00  0.00    +0.000 C 
ATOM      6  C   UNL     1       6.503   5.158  17.838  0.00  0.00    +0.000 C 
ATOM      7  C   UNL     1       5.690   6.476  17.725  0.00  0.00    +0.000 C 
ATOM      8  C   UNL     1       4.646   6.538  16.605  0.00  0.00    +0.000 C 
ATOM      9  C   UNL     1       5.266   6.698  15.214  0.00  0.00    +0.000 C 
ATOM     10  C   UNL     1       5.788   5.421  14.564  0.00  0.00    +0.000 C 
ATOM     11  C   UNL     1       6.368   4.395  15.501  0.00  0.00    +0.000 C 
ATOM     12  O   UNL     1       6.144   3.193  15.362  0.00  0.00    +0.000 OA
ATOM     13  N   UNL     1       7.140   4.841  16.537  0.00  0.00    +0.000 N 
ATOM     14  H   UNL     1       7.725   5.617  16.250  0.00  0.00    +0.000 HD
ENDBRANCH   1   6
BRANCH   3  15
ATOM     15  C   UNL     1       3.635   2.526  18.258  0.00  0.00    +0.000 C 
BRANCH  15  16
ATOM     16  C   UNL     1       2.188   2.975  17.947  0.00  0.00    +0.000 C 
ATOM     17  C   UNL     1       1.115   2.314  18.828  0.00  0.00    +0.000 C 
ATOM     18  C   UNL     1       1.160   2.785  20.280  0.00  0.00    +0.000 C 
ATOM     19  C   UNL     1       1.075   4.304  20.390  0.00  0.00    +0.000 C 
ATOM     20  C   UNL     1       2.065   5.025  19.479  0.00  0.00    +0.000 C 
ATOM     21  C   UNL     1       2.037   4.504  18.043  0.00  0.00    +0.000 C 
ENDBRANCH  15  16
ENDBRANCH   3  15
TORSDOF 3
ENDMDL
MODEL 3
REMARK VINA RESULT:      -7.8      1.522      2.998
REMARK  Name = 
REMARK  4 active torsions:
REMARK  status: ('A' for Active; 'I' for Inactive)
REMARK    1  A    between atoms: C_1  and  C_2
REMARK    2  A    between atoms: C_2  and  C_3
REMARK    3  A    between atoms: N_5  and  C_6
REMARK    4  A    between atoms: C_6  and  C_7
REMARK                            x       y       z     vdW  Elec       q    Type
REMARK                         _______ _______ _______ _____ _____    ______ ____
ROOT
ATOM      1  C   UNL     1       5.387   4.703  18.898  0.00  0.00    +0.000 C 
ATOM      2  O   UNL     1       5.627   3.623  19.444  0.00  0.00    +0.000 OA
ATOM      3  N   UNL     1       4.298   5.464  19.261  0.00  0.00    +0.000 N 
ATOM      4  H   UNL     1       3.948   6.092  18.540  0.00  0.00    +0.000 HD
ENDROOT
BRANCH   1   6
ATOM      5  C   UNL     1       7.693   5.698  18.866  0.00  0.00    +0.000 C 
ATOM      6  C   UNL     1       6.469   5.398  17.961  0.00  0.00    +0.000 C 
ATOM      7  C   UNL     1       5.908   6.767  17.492  0.00  0.00    +0.000 C 
ATOM      8  C   UNL     1       4.861   6.727  16.374  0.00  0.00    +0.000 C 
ATOM      9  C   UNL     1       5.459   6.404  15.002  0.00  0.00    +0.000 C 
ATOM     10  C   UNL     1       5.721   4.929  14.718  0.00  0.00    +0.000 C 
ATOM     11  C   UNL     1       6.130   4.093  15.901  0.00  0.00    +0.000 C 
ATOM     12  O   UNL     1       5.687   2.958  16.075  0.00  0.00    +0.000 OA
ATOM     13  N   UNL     1       7.000   4.643  16.801  0.00  0.00    +0.000 N 
ATOM     14  H   UNL     1       7.709   5.197  16.333  0.00  0.00    +0.000 HD
ENDBRANCH   1   6
BRANCH   3  15
ATOM     15  C   UNL     1       3.284   5.009  20.203  0.00  0.00    +0.000 C 
BRANCH  15  16
ATOM     16  C   UNL     1       1.864   5.034  19.589  0.00  0.00    +0.000 C 
ATOM     17  C   UNL     1       1.807   4.632  18.106  0.00  0.00    +0.000 C 
ATOM     18  C   UNL     1       2.095   3.150  17.877  0.00  0.00    +0.000 C 
ATOM     19  C   UNL     1       1.178   2.255  18.705  0.00  0.00    +0.000 C 
ATOM     20  C   UNL     1       1.129   2.651  20.178  0.00  0.00    +0.000 C 
ATOM     21  C   UNL     1       0.889   4.146  20.382  0.00  0.00    +0.000 C 
ENDBRANCH  15  16
ENDBRANCH   3  15
TORSDOF 3
ENDMDL
MODEL 4
REMARK VINA RESULT:      -7.6      1.187      1.851
REMARK  Name = 
REMARK  4 active torsions:
REMARK  status: ('A' for Active; 'I' for Inactive)
REMARK    1  A    between atoms: C_1  and  C_2
REMARK    2  A    between atoms: C_2  and  C_3
REMARK    3  A    between atoms: N_5  and  C_6
REMARK    4  A    between atoms: C_6  and  C_7
REMARK                            x       y       z     vdW  Elec       q    Type
REMARK                         _______ _______ _______ _____ _____    ______ ____
ROOT
ATOM      1  C   UNL     1       4.838   3.998  17.239  0.00  0.00    +0.000 C 
ATOM      2  O   UNL     1       3.732   3.865  16.707  0.00  0.00    +0.000 OA
ATOM      3  N   UNL     1       5.137   3.383  18.435  0.00  0.00    +0.000 N 
ATOM      4  H   UNL     1       5.864   3.837  18.985  0.00  0.00    +0.000 HD
ENDROOT
BRANCH   1   6
ATOM      5  C   UNL     1       6.248   3.764  15.173  0.00  0.00    +0.000 C 
ATOM      6  C   UNL     1       6.053   4.641  16.437  0.00  0.00    +0.000 C 
ATOM      7  C   UNL     1       7.340   4.494  17.293  0.00  0.00    +0.000 C 
ATOM      8  C   UNL     1       7.498   5.474  18.460  0.00  0.00    +0.000 C 
ATOM      9  C   UNL     1       7.854   6.893  18.009  0.00  0.00    +0.000 C 
ATOM     10  C   UNL     1       6.691   7.755  17.531  0.00  0.00    +0.000 C 
ATOM     11  C   UNL     1       5.581   7.027  16.820  0.00  0.00    +0.000 C 
ATOM     12  O   UNL     1       4.397   7.293  17.026  0.00  0.00    +0.000 OA
ATOM     13  N   UNL     1       5.926   6.034  15.946  0.00  0.00    +0.000 N 
ATOM     14  H   UNL     1       6.756   6.283  15.419  0.00  0.00    +0.000 HD
ENDBRANCH   1   6
BRANCH   3  15
ATOM     15  C   UNL     1       4.156   2.652  19.224  0.00  0.00    +0.000 C 
BRANCH  15  16
ATOM     16  C   UNL     1       3.716   3.439  20.482  0.00  0.00    +0.000 C 
ATOM     17  C   UNL     1       3.172   4.847  20.190  0.00  0.00    +0.000 C 
ATOM     18  C   UNL     1       1.820   4.832  19.482  0.00  0.00    +0.000 C 
ATOM     19  C   UNL     1       0.784   4.012  20.246  0.00  0.00    +0.000 C 
ATOM     20  C   UNL     1       1.290   2.625  20.635  0.00  0.00    +0.000 C 
ATOM     21  C   UNL     1       2.667   2.661  21.297  0.00  0.00    +0.000 C 
ENDBRANCH  15  16
ENDBRANCH   3  15
TORSDOF 3
ENDMDL
MODEL 5
REMARK VINA RESULT:      -7.4      1.636      3.038
REMARK  Name = 
REMARK  4 active torsions:
REMARK  status: ('A' for Active; 'I' for Inactive)
REMARK    1  A    between atoms: C_1  and  C_2
REMARK    2  A    between atoms: C_2  and  C_3
REMARK    3  A    between atoms: N_5  and  C_6
REMARK    4  A    between atoms: C_6  and  C_7
REMARK                            x       y       z     vdW  Elec       q    Type
REMARK                         _______ _______ _______ _____ _____    ______ ____
ROOT
ATOM      1  C   UNL     1       6.296   5.207  18.891  0.00  0.00    +0.000 C 
ATOM      2  O   UNL     1       6.785   5.182  20.023  0.00  0.00    +0.000 OA
ATOM      3  N   UNL     1       5.091   4.598  18.616  0.00  0.00    +0.000 N 
ATOM      4  H   UNL     1       4.959   4.317  17.646  0.00  0.00    +0.000 HD
ENDROOT
BRANCH   1   6
ATOM      5  C   UNL     1       8.081   6.911  18.426  0.00  0.00    +0.000 C 
ATOM      6  C   UNL     1       6.882   6.177  17.773  0.00  0.00    +0.000 C 
ATOM      7  C   UNL     1       5.814   7.255  17.447  0.00  0.00    +0.000 C 
ATOM      8  C   UNL     1       4.650   6.812  16.555  0.00  0.00    +0.000 C 
ATOM      9  C   UNL     1       5.050   6.640  15.087  0.00  0.00    +0.000 C 
ATOM     10  C   UNL     1       5.734   5.325  14.731  0.00  0.00    +0.000 C 
ATOM     11  C   UNL     1       6.618   4.733  15.796  0.00  0.00    +0.000 C 
ATOM     12  O   UNL     1       6.625   3.526  16.033  0.00  0.00    +0.000 OA
ATOM     13  N   UNL     1       7.406   5.586  16.518  0.00  0.00    +0.000 N 
ATOM     14  H   UNL     1       7.783   6.321  15.931  0.00  0.00    +0.000 HD
ENDBRANCH   1   6
BRANCH   3  15
ATOM     15  C   UNL     1       4.373   3.777  19.581  0.00  0.00    +0.000 C 
BRANCH  15  16
ATOM     16  C   UNL     1       3.060   4.446  20.053  0.00  0.00    +0.000 C 
ATOM     17  C   UNL     1       2.141   4.914  18.913  0.00  0.00    +0.000 C 
ATOM     18  C   UNL     1       1.508   3.759  18.142  0.00  0.00    +0.000 C 
ATOM     19  C   UNL     1       0.763   2.798  19.063  0.00  0.00    +0.000 C 
ATOM     20  C   UNL     1       1.596   2.353  20.262  0.00  0.00    +0.000 C 
ATOM     21  C   UNL     1       2.260   3.522  20.989  0.00  0.00    +0.000 C 
ENDBRANCH  15  16
ENDBRANCH   3  15
TORSDOF 3
ENDMDL
MODEL 6
REMARK VINA RESULT:      -7.4      1.618      5.684
REMARK  Name = 
REMARK  4 active torsions:
REMARK  status: ('A' for Active; 'I' for Inactive)
REMARK    1  A    between atoms: C_1  and  C_2
REMARK    2  A    between atoms: C_2  and  C_3
REMARK    3  A    between atoms: N_5  and  C_6
REMARK    4  A    between atoms: C_6  and  C_7
REMARK                            x       y       z     vdW  Elec       q    Type
REMARK                         _______ _______ _______ _____ _____    ______ ____
ROOT
ATOM      1  C   UNL     1       4.324   4.741  19.499  0.00  0.00    +0.000 C 
ATOM      2  O   UNL     1       4.627   3.553  19.635  0.00  0.00    +0.000 OA
ATOM      3  N   UNL     1       5.270   5.691  19.184  0.00  0.00    +0.000 N 
ATOM      4  H   UNL     1       5.044   6.640  19.477  0.00  0.00    +0.000 HD
ENDROOT
BRANCH   1   6
ATOM      5  C   UNL     1       2.806   6.728  19.253  0.00  0.00    +0.000 C 
ATOM      6  C   UNL     1       2.798   5.184  19.396  0.00  0.00    +0.000 C 
ATOM      7  C   UNL     1       2.100   4.857  20.744  0.00  0.00    +0.000 C 
ATOM      8  C   UNL     1       1.732   3.389  20.982  0.00  0.00    +0.000 C 
ATOM      9  C   UNL     1       0.535   2.926  20.149  0.00  0.00    +0.000 C 
ATOM     10  C   UNL     1       0.834   2.546  18.703  0.00  0.00    +0.000 C 
ATOM     11  C   UNL     1       1.925   3.333  18.027  0.00  0.00    +0.000 C 
ATOM     12  O   UNL     1       2.756   2.792  17.298  0.00  0.00    +0.000 OA
ATOM     13  N   UNL     1       1.983   4.678  18.266  0.00  0.00    +0.000 N 
ATOM     14  H   UNL     1       1.054   5.081  18.313  0.00  0.00    +0.000 HD
ENDBRANCH   1   6
BRANCH   3  15
ATOM     15  C   UNL     1       6.697   5.407  19.119  0.00  0.00    +0.000 C 
BRANCH  15  16
ATOM     16  C   UNL     1       7.311   5.814  17.759  0.00  0.00    +0.000 C 
ATOM     17  C   UNL     1       7.435   4.662  16.748  0.00  0.00    +0.000 C 
ATOM     18  C   UNL     1       6.086   4.181  16.220  0.00  0.00    +0.000 C 
ATOM     19  C   UNL     1       5.266   5.322  15.625  0.00  0.00    +0.000 C 
ATOM     20  C   UNL     1       5.169   6.533  16.551  0.00  0.00    +0.000 C 
ATOM     21  C   UNL     1       6.525   6.965  17.106  0.00  0.00    +0.000 C 
ENDBRANCH  15  16
ENDBRANCH   3  15
TORSDOF 3
ENDMDL
MODEL 7
REMARK VINA RESULT:      -7.3      1.612      5.785
REMARK  Name = 
REMARK  4 active torsions:
REMARK  status: ('A' for Active; 'I' for Inactive)
REMARK    1  A    between atoms: C_1  and  C_2
REMARK    2  A    between atoms: C_2  and  C_3
REMARK    3  A    between atoms: N_5  and  C_6
REMARK    4  A    between atoms: C_6  and  C_7
REMARK                            x       y       z     vdW  Elec       q    Type
REMARK                         _______ _______ _______ _____ _____    ______ ____
ROOT
ATOM      1  C   UNL     1       4.104   4.914  18.962  0.00  0.00    +0.000 C 
ATOM      2  O   UNL     1       3.759   6.043  19.322  0.00  0.00    +0.000 OA
ATOM      3  N   UNL     1       5.424   4.524  18.988  0.00  0.00    +0.000 N 
ATOM      4  H   UNL     1       5.671   3.784  18.334  0.00  0.00    +0.000 HD
ENDROOT
BRANCH   1   6
ATOM      5  C   UNL     1       2.921   3.582  17.191  0.00  0.00    +0.000 C 
ATOM      6  C   UNL     1       3.022   3.771  18.727  0.00  0.00    +0.000 C 
ATOM      7  C   UNL     1       1.642   4.292  19.210  0.00  0.00    +0.000 C 
ATOM      8  C   UNL     1       1.409   4.300  20.724  0.00  0.00    +0.000 C 
ATOM      9  C   UNL     1       1.182   2.902  21.305  0.00  0.00    +0.000 C 
ATOM     10  C   UNL     1       2.436   2.077  21.571  0.00  0.00    +0.000 C 
ATOM     11  C   UNL     1       3.577   2.285  20.611  0.00  0.00    +0.000 C 
ATOM     12  O   UNL     1       4.743   2.355  20.997  0.00  0.00    +0.000 OA
ATOM     13  N   UNL     1       3.277   2.420  19.284  0.00  0.00    +0.000 N 
ATOM     14  H   UNL     1       2.526   1.796  19.013  0.00  0.00    +0.000 HD
ENDBRANCH   1   6
BRANCH   3  15
ATOM     15  C   UNL     1       6.518   5.432  19.306  0.00  0.00    +0.000 C 
BRANCH  15  16
ATOM     16  C   UNL     1       7.462   5.654  18.100  0.00  0.00    +0.000 C 
ATOM     17  C   UNL     1       7.506   4.482  17.105  0.00  0.00    +0.000 C 
ATOM     18  C   UNL     1       6.210   4.318  16.316  0.00  0.00    +0.000 C 
ATOM     19  C   UNL     1       5.810   5.606  15.601  0.00  0.00    +0.000 C 
ATOM     20  C   UNL     1       5.821   6.826  16.518  0.00  0.00    +0.000 C 
ATOM     21  C   UNL     1       7.107   6.942  17.335  0.00  0.00    +0.000 C 
ENDBRANCH  15  16
ENDBRANCH   3  15
TORSDOF 3
ENDMDL
MODEL 8
REMARK VINA RESULT:      -7.3      1.442      5.782
REMARK  Name = 
REMARK  4 active torsions:
REMARK  status: ('A' for Active; 'I' for Inactive)
REMARK    1  A    between atoms: C_1  and  C_2
REMARK    2  A    between atoms: C_2  and  C_3
REMARK    3  A    between atoms: N_5  and  C_6
REMARK    4  A    between atoms: C_6  and  C_7
REMARK                            x       y       z     vdW  Elec       q    Type
REMARK                         _______ _______ _______ _____ _____    ______ ____
ROOT
ATOM      1  C   UNL     1       2.796   5.568  18.677  0.00  0.00    +0.000 C 
ATOM      2  O   UNL     1       2.545   6.396  19.556  0.00  0.00    +0.000 OA
ATOM      3  N   UNL     1       3.820   5.765  17.778  0.00  0.00    +0.000 N 
ATOM      4  H   UNL     1       3.714   5.282  16.888  0.00  0.00    +0.000 HD
ENDROOT
BRANCH   1   6
ATOM      5  C   UNL     1       1.343   3.967  17.399  0.00  0.00    +0.000 C 
ATOM      6  C   UNL     1       2.144   4.117  18.718  0.00  0.00    +0.000 C 
ATOM      7  C   UNL     1       1.115   4.072  19.880  0.00  0.00    +0.000 C 
ATOM      8  C   UNL     1       1.690   3.932  21.293  0.00  0.00    +0.000 C 
ATOM      9  C   UNL     1       2.219   2.526  21.590  0.00  0.00    +0.000 C 
ATOM     10  C   UNL     1       3.615   2.213  21.065  0.00  0.00    +0.000 C 
ATOM     11  C   UNL     1       3.991   2.866  19.761  0.00  0.00    +0.000 C 
ATOM     12  O   UNL     1       5.109   3.345  19.577  0.00  0.00    +0.000 OA
ATOM     13  N   UNL     1       3.037   2.935  18.784  0.00  0.00    +0.000 N 
ATOM     14  H   UNL     1       2.479   2.089  18.757  0.00  0.00    +0.000 HD
ENDBRANCH   1   6
BRANCH   3  15
ATOM     15  C   UNL     1       4.591   6.998  17.703  0.00  0.00    +0.000 C 
BRANCH  15  16
ATOM     16  C   UNL     1       5.714   6.920  16.641  0.00  0.00    +0.000 C 
ATOM     17  C   UNL     1       7.137   7.041  17.212  0.00  0.00    +0.000 C 
ATOM     18  C   UNL     1       7.556   5.824  18.033  0.00  0.00    +0.000 C 
ATOM     19  C   UNL     1       7.409   4.525  17.247  0.00  0.00    +0.000 C 
ATOM     20  C   UNL     1       6.040   4.379  16.587  0.00  0.00    +0.000 C 
ATOM     21  C   UNL     1       5.619   5.627  15.812  0.00  0.00    +0.000 C 
ENDBRANCH  15  16
ENDBRANCH   3  15
TORSDOF 3
ENDMDL
MODEL 9
REMARK VINA RESULT:      -7.3      1.435      2.882
REMARK  Name = 
REMARK  4 active torsions:
REMARK  status: ('A' for Active; 'I' for Inactive)
REMARK    1  A    between atoms: C_1  and  C_2
REMARK    2  A    between atoms: C_2  and  C_3
REMARK    3  A    between atoms: N_5  and  C_6
REMARK    4  A    between atoms: C_6  and  C_7
REMARK                            x       y       z     vdW  Elec       q    Type
REMARK                         _______ _______ _______ _____ _____    ______ ____
ROOT
ATOM      1  C   UNL     1       3.653   5.753  18.189  0.00  0.00    +0.000 C 
ATOM      2  O   UNL     1       3.374   6.239  19.288  0.00  0.00    +0.000 OA
ATOM      3  N   UNL     1       2.817   4.851  17.569  0.00  0.00    +0.000 N 
ATOM      4  H   UNL     1       3.271   4.220  16.912  0.00  0.00    +0.000 HD
ENDROOT
BRANCH   1   6
ATOM      5  C   UNL     1       4.379   7.774  16.885  0.00  0.00    +0.000 C 
ATOM      6  C   UNL     1       4.837   6.355  17.312  0.00  0.00    +0.000 C 
ATOM      7  C   UNL     1       4.967   5.512  16.015  0.00  0.00    +0.000 C 
ATOM      8  C   UNL     1       5.663   4.154  16.152  0.00  0.00    +0.000 C 
ATOM      9  C   UNL     1       7.178   4.271  16.332  0.00  0.00    +0.000 C 
ATOM     10  C   UNL     1       7.662   4.585  17.743  0.00  0.00    +0.000 C 
ATOM     11  C   UNL     1       6.766   5.473  18.564  0.00  0.00    +0.000 C 
ATOM     12  O   UNL     1       6.551   5.252  19.755  0.00  0.00    +0.000 OA
ATOM     13  N   UNL     1       6.170   6.532  17.937  0.00  0.00    +0.000 N 
ATOM     14  H   UNL     1       6.800   6.965  17.272  0.00  0.00    +0.000 HD
ENDBRANCH   1   6
BRANCH   3  15
ATOM     15  C   UNL     1       1.625   4.303  18.202  0.00  0.00    +0.000 C 
BRANCH  15  16
ATOM     16  C   UNL     1       1.769   2.793  18.507  0.00  0.00    +0.000 C 
ATOM     17  C   UNL     1       3.197   2.352  18.867  0.00  0.00    +0.000 C 
ATOM     18  C   UNL     1       3.660   2.874  20.225  0.00  0.00    +0.000 C 
ATOM     19  C   UNL     1       2.692   2.497  21.342  0.00  0.00    +0.000 C 
ATOM     20  C   UNL     1       1.241   2.838  21.014  0.00  0.00    +0.000 C 
ATOM     21  C   UNL     1       0.815   2.350  19.630  0.00  0.00    +0.000 C 
ENDBRANCH  15  16
ENDBRANCH   3  15
TORSDOF 3
ENDMDL
