MODEL 1
REMARK VINA RESULT:      -7.2      0.000      0.000
REMARK  Name = 
REMARK  15 active torsions:
REMARK  status: ('A' for Active; 'I' for Inactive)
REMARK    1  A    between atoms: C_1  and  C_2
REMARK    2  A    between atoms: C_2  and  O_3
REMARK    3  A    between atoms: O_3  and  C_4
REMARK    4  A    between atoms: C_6  and  C_7
REMARK    5  A    between atoms: C_7  and  C_8
REMARK    6  A    between atoms: N_10  and  C_11
REMARK    7  A    between atoms: C_11  and  C_12
REMARK    8  A    between atoms: C_11  and  C_17
REMARK    9  A    between atoms: C_12  and  C_13
REMARK   10  A    between atoms: C_13  and  C_14
REMARK   11  A    between atoms: C_13  and  C_15
REMARK   12  A    between atoms: C_13  and  O_16
REMARK   13  A    between atoms: C_22  and  N_23
REMARK   14  A    between atoms: C_31  and  C_32
REMARK   15  A    between atoms: C_32  and  O_34
REMARK                            x       y       z     vdW  Elec       q    Type
REMARK                         _______ _______ _______ _____ _____    ______ ____
ROOT
ATOM      1  C   UNL     1      -0.360  11.565  18.663  0.00  0.00    +0.000 C 
ENDROOT
BRANCH   1   2
ATOM      2  C   UNL     1      -1.884  11.511  18.559  0.00  0.00    +0.000 A 
ATOM      3  C   UNL     1      -2.441  10.961  17.372  0.00  0.00    +0.000 A 
ATOM      4  C   UNL     1      -3.808  10.955  17.118  0.00  0.00    +0.000 A 
ATOM      5  C   UNL     1      -4.664  11.490  18.053  0.00  0.00    +0.000 A 
ATOM      6  C   UNL     1      -4.146  12.037  19.229  0.00  0.00    +0.000 A 
ATOM      7  C   UNL     1      -2.759  12.103  19.516  0.00  0.00    +0.000 A 
BRANCH   7   8
ATOM      8  N   UNL     1      -2.340  12.814  20.639  0.00  0.00    +0.000 N 
ATOM      9  C   UNL     1      -2.547  14.269  20.728  0.00  0.00    +0.000 C 
ATOM     10  C   UNL     1      -1.253  14.912  21.227  0.00  0.00    +0.000 C 
ATOM     11  C   UNL     1      -0.749  14.273  22.524  0.00  0.00    +0.000 C 
ATOM     12  C   UNL     1      -0.729  12.744  22.443  0.00  0.00    +0.000 C 
ATOM     13  C   UNL     1      -2.084  12.216  21.956  0.00  0.00    +0.000 C 
ENDBRANCH   7   8
ENDBRANCH   1   2
BRANCH   1  16
ATOM     14  C   UNL     1       1.112   9.537  18.433  0.00  0.00    +0.000 C 
ATOM     15  O   UNL     1       1.267   9.402  19.643  0.00  0.00    +0.000 OA
ATOM     16  N   UNL     1       0.332  10.531  17.878  0.00  0.00    +0.000 N 
ATOM     17  H   UNL     1       0.197  10.512  16.879  0.00  0.00    +0.000 HD
BRANCH  14  18
ATOM     18  C   UNL     1       1.821   8.655  17.411  0.00  0.00    +0.000 C 
BRANCH  18  21
ATOM     19  C   UNL     1       2.474   5.100  18.710  0.00  0.00    +0.000 A 
ATOM     20  C   UNL     1       1.838   6.306  18.359  0.00  0.00    +0.000 A 
ATOM     21  C   UNL     1       2.565   7.442  17.941  0.00  0.00    +0.000 A 
ATOM     22  C   UNL     1       3.958   7.353  17.895  0.00  0.00    +0.000 A 
ATOM     23  C   UNL     1       4.601   6.150  18.206  0.00  0.00    +0.000 A 
ATOM     24  C   UNL     1       3.862   5.009  18.562  0.00  0.00    +0.000 A 
BRANCH  24  25
ATOM     25  C   UNL     1       4.635   3.747  18.663  0.00  0.00    +0.000 C 
ATOM     26  O   UNL     1       5.586   3.610  19.414  0.00  0.00    +0.000 OA
BRANCH  25  27
ATOM     27  O   UNL     1       4.231   2.800  17.791  0.00  0.00    +0.000 OA
ATOM     28  H   UNL     1       4.953   2.411  17.258  0.00  0.00    +0.000 HD
ENDBRANCH  25  27
ENDBRANCH  24  25
BRANCH  19  29
ATOM     29  O   UNL     1       1.619   4.090  19.071  0.00  0.00    +0.000 OA
BRANCH  29  31
ATOM     30  C   UNL     1       2.064   3.685  21.418  0.00  0.00    +0.000 C 
ATOM     31  C   UNL     1       1.047   4.137  20.387  0.00  0.00    +0.000 C 
ENDBRANCH  29  31
ENDBRANCH  19  29
ENDBRANCH  18  21
ENDBRANCH  14  18
ENDBRANCH   1  16
BRANCH   1  32
ATOM     32  C   UNL     1       0.220  12.989  18.496  0.00  0.00    +0.000 C 
BRANCH  32  33
ATOM     33  C   UNL     1       1.726  13.242  18.706  0.00  0.00    +0.000 C 
ATOM     34  C   UNL     1       2.008  14.742  18.526  0.00  0.00    +0.000 C 
ATOM     35  C   UNL     1       2.214  12.786  20.077  0.00  0.00    +0.000 C 
BRANCH  33  36
ATOM     36  O   UNL     1       2.511  12.563  17.727  0.00  0.00    +0.000 OA
ATOM     37  H   UNL     1       3.411  12.936  17.745  0.00  0.00    +0.000 HD
ENDBRANCH  33  36
ENDBRANCH  32  33
ENDBRANCH   1  32
TORSDOF 12
ENDMDL
MODEL 2
REMARK VINA RESULT:      -7.2      1.956      4.318
REMARK  Name = 
REMARK  15 active torsions:
REMARK  status: ('A' for Active; 'I' for Inactive)
REMARK    1  A    between atoms: C_1  and  C_2
REMARK    2  A    between atoms: C_2  and  O_3
REMARK    3  A    between atoms: O_3  and  C_4
REMARK    4  A    between atoms: C_6  and  C_7
REMARK    5  A    between atoms: C_7  and  C_8
REMARK    6  A    between atoms: N_10  and  C_11
REMARK    7  A    between atoms: C_11  and  C_12
REMARK    8  A    between atoms: C_11  and  C_17
REMARK    9  A    between atoms: C_12  and  C_13
REMARK   10  A    between atoms: C_13  and  C_14
REMARK   11  A    between atoms: C_13  and  C_15
REMARK   12  A    between atoms: C_13  and  O_16
REMARK   13  A    between atoms: C_22  and  N_23
REMARK   14  A    between atoms: C_31  and  C_32
REMARK   15  A    between atoms: C_32  and  O_34
REMARK                            x       y       z     vdW  Elec       q    Type
REMARK                         _______ _______ _______ _____ _____    ______ ____
ROOT
ATOM      1  C   UNL     1       0.787  10.326  19.727  0.00  0.00    +0.000 C 
ENDROOT
BRANCH   1   2
ATOM      2  C   UNL     1       0.671  11.794  19.317  0.00  0.00    +0.000 A 
ATOM      3  C   UNL     1       1.725  12.667  19.703  0.00  0.00    +0.000 A 
ATOM      4  C   UNL     1       1.681  14.039  19.480  0.00  0.00    +0.000 A 
ATOM      5  C   UNL     1       0.583  14.580  18.850  0.00  0.00    +0.000 A 
ATOM      6  C   UNL     1      -0.467  13.746  18.459  0.00  0.00    +0.000 A 
ATOM      7  C   UNL     1      -0.488  12.349  18.699  0.00  0.00    +0.000 A 
BRANCH   7   8
ATOM      8  N   UNL     1      -1.652  11.638  18.416  0.00  0.00    +0.000 N 
ATOM      9  C   UNL     1      -1.637  10.523  17.454  0.00  0.00    +0.000 C 
ATOM     10  C   UNL     1      -2.842  10.672  16.524  0.00  0.00    +0.000 C 
ATOM     11  C   UNL     1      -4.157  10.814  17.293  0.00  0.00    +0.000 C 
ATOM     12  C   UNL     1      -4.062  11.859  18.409  0.00  0.00    +0.000 C 
ATOM     13  C   UNL     1      -2.833  11.593  19.289  0.00  0.00    +0.000 C 
ENDBRANCH   7   8
ENDBRANCH   1   2
BRANCH   1  16
ATOM     14  C   UNL     1       2.002   8.229  19.052  0.00  0.00    +0.000 C 
ATOM     15  O   UNL     1       1.823   7.672  20.131  0.00  0.00    +0.000 OA
ATOM     16  N   UNL     1       1.521   9.491  18.765  0.00  0.00    +0.000 N 
ATOM     17  H   UNL     1       1.646   9.832  17.825  0.00  0.00    +0.000 HD
BRANCH  14  18
ATOM     18  C   UNL     1       2.833   7.607  17.934  0.00  0.00    +0.000 C 
BRANCH  18  21
ATOM     19  C   UNL     1       4.896   4.443  18.625  0.00  0.00    +0.000 A 
ATOM     20  C   UNL     1       4.530   5.771  18.332  0.00  0.00    +0.000 A 
ATOM     21  C   UNL     1       3.192   6.139  18.073  0.00  0.00    +0.000 A 
ATOM     22  C   UNL     1       2.217   5.140  18.096  0.00  0.00    +0.000 A 
ATOM     23  C   UNL     1       2.560   3.823  18.421  0.00  0.00    +0.000 A 
ATOM     24  C   UNL     1       3.886   3.481  18.737  0.00  0.00    +0.000 A 
BRANCH  24  25
ATOM     25  C   UNL     1       4.089   2.110  19.266  0.00  0.00    +0.000 C 
ATOM     26  O   UNL     1       4.743   1.876  20.268  0.00  0.00    +0.000 OA
BRANCH  25  27
ATOM     27  O   UNL     1       3.546   1.150  18.489  0.00  0.00    +0.000 OA
ATOM     28  H   UNL     1       3.670   1.293  17.530  0.00  0.00    +0.000 HD
ENDBRANCH  25  27
ENDBRANCH  24  25
BRANCH  19  29
ATOM     29  O   UNL     1       6.233   4.262  18.874  0.00  0.00    +0.000 OA
BRANCH  29  31
ATOM     30  C   UNL     1       7.385   4.525  16.759  0.00  0.00    +0.000 C 
ATOM     31  C   UNL     1       7.164   5.083  18.153  0.00  0.00    +0.000 C 
ENDBRANCH  29  31
ENDBRANCH  19  29
ENDBRANCH  18  21
ENDBRANCH  14  18
ENDBRANCH   1  16
BRANCH   1  32
ATOM     32  C   UNL     1       1.214  10.129  21.201  0.00  0.00    +0.000 C 
BRANCH  32  33
ATOM     33  C   UNL     1       0.154   9.861  22.286  0.00  0.00    +0.000 C 
ATOM     34  C   UNL     1      -0.729  11.109  22.438  0.00  0.00    +0.000 C 
ATOM     35  C   UNL     1      -0.717   8.648  21.972  0.00  0.00    +0.000 C 
BRANCH  33  36
ATOM     36  O   UNL     1       0.756   9.634  23.560  0.00  0.00    +0.000 OA
ATOM     37  H   UNL     1       1.722   9.608  23.440  0.00  0.00    +0.000 HD
ENDBRANCH  33  36
ENDBRANCH  32  33
ENDBRANCH   1  32
TORSDOF 12
ENDMDL
MODEL 3
REMARK VINA RESULT:      -7.1      3.465      9.267
REMARK  Name = 
REMARK  15 active torsions:
REMARK  status: ('A' for Active; 'I' for Inactive)
REMARK    1  A    between atoms: C_1  and  C_2
REMARK    2  A    between atoms: C_2  and  O_3
REMARK    3  A    between atoms: O_3  and  C_4
REMARK    4  A    between atoms: C_6  and  C_7
REMARK    5  A    between atoms: C_7  and  C_8
REMARK    6  A    between atoms: N_10  and  C_11
REMARK    7  A    between atoms: C_11  and  C_12
REMARK    8  A    between atoms: C_11  and  C_17
REMARK    9  A    between atoms: C_12  and  C_13
REMARK   10  A    between atoms: C_13  and  C_14
REMARK   11  A    between atoms: C_13  and  C_15
REMARK   12  A    between atoms: C_13  and  O_16
REMARK   13  A    between atoms: C_22  and  N_23
REMARK   14  A    between atoms: C_31  and  C_32
REMARK   15  A    between atoms: C_32  and  O_34
REMARK                            x       y       z     vdW  Elec       q    Type
REMARK                         _______ _______ _______ _____ _____    ______ ____
ROOT
ATOM      1  C   UNL     1       5.166   6.097  18.088  0.00  0.00    +0.000 C 
ENDROOT
BRANCH   1   2
ATOM      2  C   UNL     1       5.328   5.241  16.831  0.00  0.00    +0.000 A 
ATOM      3  C   UNL     1       6.080   5.791  15.757  0.00  0.00    +0.000 A 
ATOM      4  C   UNL     1       6.209   5.152  14.528  0.00  0.00    +0.000 A 
ATOM      5  C   UNL     1       5.596   3.934  14.340  0.00  0.00    +0.000 A 
ATOM      6  C   UNL     1       4.851   3.369  15.378  0.00  0.00    +0.000 A 
ATOM      7  C   UNL     1       4.658   3.999  16.634  0.00  0.00    +0.000 A 
BRANCH   7   8
ATOM      8  N   UNL     1       3.766   3.428  17.539  0.00  0.00    +0.000 N 
ATOM      9  C   UNL     1       2.346   3.255  17.189  0.00  0.00    +0.000 C 
ATOM     10  C   UNL     1       1.496   3.724  18.370  0.00  0.00    +0.000 C 
ATOM     11  C   UNL     1       1.900   3.049  19.682  0.00  0.00    +0.000 C 
ATOM     12  C   UNL     1       3.414   3.093  19.910  0.00  0.00    +0.000 C 
ATOM     13  C   UNL     1       4.157   2.577  18.671  0.00  0.00    +0.000 C 
ENDBRANCH   7   8
ENDBRANCH   1   2
BRANCH   1  16
ATOM     14  C   UNL     1       3.023   7.393  17.853  0.00  0.00    +0.000 C 
ATOM     15  O   UNL     1       3.450   8.110  16.953  0.00  0.00    +0.000 OA
ATOM     16  N   UNL     1       3.768   6.390  18.438  0.00  0.00    +0.000 N 
ATOM     17  H   UNL     1       3.304   5.799  19.110  0.00  0.00    +0.000 HD
BRANCH  14  18
ATOM     18  C   UNL     1       1.638   7.581  18.464  0.00  0.00    +0.000 C 
BRANCH  18  21
ATOM     19  C   UNL     1       0.904  10.369  21.001  0.00  0.00    +0.000 A 
ATOM     20  C   UNL     1       1.061   9.103  20.404  0.00  0.00    +0.000 A 
ATOM     21  C   UNL     1       1.306   8.953  19.021  0.00  0.00    +0.000 A 
ATOM     22  C   UNL     1       1.375  10.105  18.235  0.00  0.00    +0.000 A 
ATOM     23  C   UNL     1       1.256  11.370  18.820  0.00  0.00    +0.000 A 
ATOM     24  C   UNL     1       1.074  11.508  20.208  0.00  0.00    +0.000 A 
BRANCH  24  25
ATOM     25  C   UNL     1       1.173  12.891  20.736  0.00  0.00    +0.000 C 
ATOM     26  O   UNL     1       2.106  13.273  21.421  0.00  0.00    +0.000 OA
BRANCH  25  27
ATOM     27  O   UNL     1       0.097  13.652  20.448  0.00  0.00    +0.000 OA
ATOM     28  H   UNL     1      -0.712  13.406  20.939  0.00  0.00    +0.000 HD
ENDBRANCH  25  27
ENDBRANCH  24  25
BRANCH  19  29
ATOM     29  O   UNL     1       0.695  10.336  22.357  0.00  0.00    +0.000 OA
BRANCH  29  31
ATOM     30  C   UNL     1      -1.371  11.382  23.069  0.00  0.00    +0.000 C 
ATOM     31  C   UNL     1      -0.638  10.077  22.821  0.00  0.00    +0.000 C 
ENDBRANCH  29  31
ENDBRANCH  19  29
ENDBRANCH  18  21
ENDBRANCH  14  18
ENDBRANCH   1  16
BRANCH   1  32
ATOM     32  C   UNL     1       6.036   5.620  19.275  0.00  0.00    +0.000 C 
BRANCH  32  33
ATOM     33  C   UNL     1       7.573   5.699  19.191  0.00  0.00    +0.000 C 
ATOM     34  C   UNL     1       8.081   4.549  18.307  0.00  0.00    +0.000 C 
ATOM     35  C   UNL     1       8.065   7.032  18.637  0.00  0.00    +0.000 C 
BRANCH  33  36
ATOM     36  O   UNL     1       8.176   5.521  20.471  0.00  0.00    +0.000 OA
ATOM     37  H   UNL     1       7.505   5.156  21.077  0.00  0.00    +0.000 HD
ENDBRANCH  33  36
ENDBRANCH  32  33
ENDBRANCH   1  32
TORSDOF 12
ENDMDL
MODEL 4
REMARK VINA RESULT:      -7.0      1.675      3.940
REMARK  Name = 
REMARK  15 active torsions:
REMARK  status: ('A' for Active; 'I' for Inactive)
REMARK    1  A    between atoms: C_1  and  C_2
REMARK    2  A    between atoms: C_2  and  O_3
REMARK    3  A    between atoms: O_3  and  C_4
REMARK    4  A    between atoms: C_6  and  C_7
REMARK    5  A    between atoms: C_7  and  C_8
REMARK    6  A    between atoms: N_10  and  C_11
REMARK    7  A    between atoms: C_11  and  C_12
REMARK    8  A    between atoms: C_11  and  C_17
REMARK    9  A    between atoms: C_12  and  C_13
REMARK   10  A    between atoms: C_13  and  C_14
REMARK   11  A    between atoms: C_13  and  C_15
REMARK   12  A    between atoms: C_13  and  O_16
REMARK   13  A    between atoms: C_22  and  N_23
REMARK   14  A    between atoms: C_31  and  C_32
REMARK   15  A    between atoms: C_32  and  O_34
REMARK                            x       y       z     vdW  Elec       q    Type
REMARK                         _______ _______ _______ _____ _____    ______ ____
ROOT
ATOM      1  C   UNL     1       0.103  10.710  18.949  0.00  0.00    +0.000 C 
ENDROOT
BRANCH   1   2
ATOM      2  C   UNL     1       0.867  12.033  19.005  0.00  0.00    +0.000 A 
ATOM      3  C   UNL     1       2.025  12.155  18.188  0.00  0.00    +0.000 A 
ATOM      4  C   UNL     1       2.858  13.268  18.232  0.00  0.00    +0.000 A 
ATOM      5  C   UNL     1       2.551  14.301  19.089  0.00  0.00    +0.000 A 
ATOM      6  C   UNL     1       1.419  14.208  19.903  0.00  0.00    +0.000 A 
ATOM      7  C   UNL     1       0.561  13.079  19.923  0.00  0.00    +0.000 A 
BRANCH   7   8
ATOM      8  N   UNL     1      -0.443  13.019  20.887  0.00  0.00    +0.000 N 
ATOM      9  C   UNL     1      -0.201  12.370  22.187  0.00  0.00    +0.000 C 
ATOM     10  C   UNL     1      -1.394  11.468  22.505  0.00  0.00    +0.000 C 
ATOM     11  C   UNL     1      -2.727  12.214  22.420  0.00  0.00    +0.000 C 
ATOM     12  C   UNL     1      -2.851  13.026  21.128  0.00  0.00    +0.000 C 
ATOM     13  C   UNL     1      -1.612  13.908  20.929  0.00  0.00    +0.000 C 
ENDBRANCH   7   8
ENDBRANCH   1   2
BRANCH   1  16
ATOM     14  C   UNL     1       1.444   8.644  19.465  0.00  0.00    +0.000 C 
ATOM     15  O   UNL     1       1.854   8.516  18.315  0.00  0.00    +0.000 OA
ATOM     16  N   UNL     1       0.620   9.679  19.861  0.00  0.00    +0.000 N 
ATOM     17  H   UNL     1       0.403   9.749  20.843  0.00  0.00    +0.000 HD
BRANCH  14  18
ATOM     18  C   UNL     1       1.753   7.635  20.565  0.00  0.00    +0.000 C 
BRANCH  18  21
ATOM     19  C   UNL     1       4.028   4.868  19.180  0.00  0.00    +0.000 A 
ATOM     20  C   UNL     1       3.466   6.126  19.466  0.00  0.00    +0.000 A 
ATOM     21  C   UNL     1       2.227   6.260  20.130  0.00  0.00    +0.000 A 
ATOM     22  C   UNL     1       1.544   5.096  20.491  0.00  0.00    +0.000 A 
ATOM     23  C   UNL     1       2.108   3.839  20.246  0.00  0.00    +0.000 A 
ATOM     24  C   UNL     1       3.371   3.722  19.639  0.00  0.00    +0.000 A 
BRANCH  24  25
ATOM     25  C   UNL     1       3.952   2.357  19.623  0.00  0.00    +0.000 C 
ATOM     26  O   UNL     1       4.899   2.032  20.318  0.00  0.00    +0.000 OA
BRANCH  25  27
ATOM     27  O   UNL     1       3.381   1.543  18.711  0.00  0.00    +0.000 OA
ATOM     28  H   UNL     1       2.448   1.756  18.512  0.00  0.00    +0.000 HD
ENDBRANCH  25  27
ENDBRANCH  24  25
BRANCH  19  29
ATOM     29  O   UNL     1       5.247   4.918  18.551  0.00  0.00    +0.000 OA
BRANCH  29  31
ATOM     30  C   UNL     1       4.876   4.093  16.303  0.00  0.00    +0.000 C 
ATOM     31  C   UNL     1       5.267   5.281  17.162  0.00  0.00    +0.000 C 
ENDBRANCH  29  31
ENDBRANCH  19  29
ENDBRANCH  18  21
ENDBRANCH  14  18
ENDBRANCH   1  16
BRANCH   1  32
ATOM     32  C   UNL     1      -1.434  10.883  18.987  0.00  0.00    +0.000 C 
BRANCH  32  33
ATOM     33  C   UNL     1      -2.217  11.138  17.684  0.00  0.00    +0.000 C 
ATOM     34  C   UNL     1      -2.059   9.919  16.763  0.00  0.00    +0.000 C 
ATOM     35  C   UNL     1      -3.698  11.409  17.931  0.00  0.00    +0.000 C 
BRANCH  33  36
ATOM     36  O   UNL     1      -1.693  12.256  16.969  0.00  0.00    +0.000 OA
ATOM     37  H   UNL     1      -1.500  12.965  17.610  0.00  0.00    +0.000 HD
ENDBRANCH  33  36
ENDBRANCH  32  33
ENDBRANCH   1  32
TORSDOF 12
ENDMDL
MODEL 5
REMARK VINA RESULT:      -6.9      1.552      1.818
REMARK  Name = 
REMARK  15 active torsions:
REMARK  status: ('A' for Active; 'I' for Inactive)
REMARK    1  A    between atoms: C_1  and  C_2
REMARK    2  A    between atoms: C_2  and  O_3
REMARK    3  A    between atoms: O_3  and  C_4
REMARK    4  A    between atoms: C_6  and  C_7
REMARK    5  A    between atoms: C_7  and  C_8
REMARK    6  A    between atoms: N_10  and  C_11
REMARK    7  A    between atoms: C_11  and  C_12
REMARK    8  A    between atoms: C_11  and  C_17
REMARK    9  A    between atoms: C_12  and  C_13
REMARK   10  A    between atoms: C_13  and  C_14
REMARK   11  A    between atoms: C_13  and  C_15
REMARK   12  A    between atoms: C_13  and  O_16
REMARK   13  A    between atoms: C_22  and  N_23
REMARK   14  A    between atoms: C_31  and  C_32
REMARK   15  A    between atoms: C_32  and  O_34
REMARK                            x       y       z     vdW  Elec       q    Type
REMARK                         _______ _______ _______ _____ _____    ______ ____
ROOT
ATOM      1  C   UNL     1      -0.692  11.282  19.687  0.00  0.00    +0.000 C 
ENDROOT
BRANCH   1   2
ATOM      2  C   UNL     1      -2.138  11.524  19.253  0.00  0.00    +0.000 A 
ATOM      3  C   UNL     1      -2.525  11.048  17.971  0.00  0.00    +0.000 A 
ATOM      4  C   UNL     1      -3.780  11.299  17.426  0.00  0.00    +0.000 A 
ATOM      5  C   UNL     1      -4.693  12.026  18.156  0.00  0.00    +0.000 A 
ATOM      6  C   UNL     1      -4.340  12.506  19.420  0.00  0.00    +0.000 A 
ATOM      7  C   UNL     1      -3.061  12.311  20.001  0.00  0.00    +0.000 A 
BRANCH   7   8
ATOM      8  N   UNL     1      -2.760  12.968  21.192  0.00  0.00    +0.000 N 
ATOM      9  C   UNL     1      -3.029  14.408  21.345  0.00  0.00    +0.000 C 
ATOM     10  C   UNL     1      -1.803  15.063  21.982  0.00  0.00    +0.000 C 
ATOM     11  C   UNL     1      -1.379  14.367  23.278  0.00  0.00    +0.000 C 
ATOM     12  C   UNL     1      -1.295  12.847  23.114  0.00  0.00    +0.000 C 
ATOM     13  C   UNL     1      -2.586  12.303  22.490  0.00  0.00    +0.000 C 
ENDBRANCH   7   8
ENDBRANCH   1   2
BRANCH   1  16
ATOM     14  C   UNL     1       0.511   9.595  21.114  0.00  0.00    +0.000 C 
ATOM     15  O   UNL     1       1.179  10.439  21.705  0.00  0.00    +0.000 OA
ATOM     16  N   UNL     1      -0.424   9.913  20.150  0.00  0.00    +0.000 N 
ATOM     17  H   UNL     1      -0.983   9.160  19.781  0.00  0.00    +0.000 HD
BRANCH  14  18
ATOM     18  C   UNL     1       0.691   8.099  21.342  0.00  0.00    +0.000 C 
BRANCH  18  21
ATOM     19  C   UNL     1       2.668   5.231  19.725  0.00  0.00    +0.000 A 
ATOM     20  C   UNL     1       1.918   5.998  20.636  0.00  0.00    +0.000 A 
ATOM     21  C   UNL     1       1.646   7.366  20.418  0.00  0.00    +0.000 A 
ATOM     22  C   UNL     1       2.160   7.964  19.264  0.00  0.00    +0.000 A 
ATOM     23  C   UNL     1       2.876   7.205  18.332  0.00  0.00    +0.000 A 
ATOM     24  C   UNL     1       3.087   5.830  18.532  0.00  0.00    +0.000 A 
BRANCH  24  25
ATOM     25  C   UNL     1       3.672   5.094  17.385  0.00  0.00    +0.000 C 
ATOM     26  O   UNL     1       4.534   5.567  16.665  0.00  0.00    +0.000 OA
BRANCH  25  27
ATOM     27  O   UNL     1       3.101   3.890  17.174  0.00  0.00    +0.000 OA
ATOM     28  H   UNL     1       2.983   3.355  17.984  0.00  0.00    +0.000 HD
ENDBRANCH  25  27
ENDBRANCH  24  25
BRANCH  19  29
ATOM     29  O   UNL     1       2.819   3.914  20.079  0.00  0.00    +0.000 OA
BRANCH  29  31
ATOM     30  C   UNL     1       1.634   2.584  21.723  0.00  0.00    +0.000 C 
ATOM     31  C   UNL     1       1.629   3.144  20.312  0.00  0.00    +0.000 C 
ENDBRANCH  29  31
ENDBRANCH  19  29
ENDBRANCH  18  21
ENDBRANCH  14  18
ENDBRANCH   1  16
BRANCH   1  32
ATOM     32  C   UNL     1       0.352  11.833  18.686  0.00  0.00    +0.000 C 
BRANCH  32  33
ATOM     33  C   UNL     1       1.178  13.086  19.039  0.00  0.00    +0.000 C 
ATOM     34  C   UNL     1       2.366  13.187  18.069  0.00  0.00    +0.000 C 
ATOM     35  C   UNL     1       0.355  14.369  18.982  0.00  0.00    +0.000 C 
BRANCH  33  36
ATOM     36  O   UNL     1       1.733  12.994  20.350  0.00  0.00    +0.000 OA
ATOM     37  H   UNL     1       1.430  13.764  20.864  0.00  0.00    +0.000 HD
ENDBRANCH  33  36
ENDBRANCH  32  33
ENDBRANCH   1  32
TORSDOF 12
ENDMDL
MODEL 6
REMARK VINA RESULT:      -6.9      1.809      4.123
REMARK  Name = 
REMARK  15 active torsions:
REMARK  status: ('A' for Active; 'I' for Inactive)
REMARK    1  A    between atoms: C_1  and  C_2
REMARK    2  A    between atoms: C_2  and  O_3
REMARK    3  A    between atoms: O_3  and  C_4
REMARK    4  A    between atoms: C_6  and  C_7
REMARK    5  A    between atoms: C_7  and  C_8
REMARK    6  A    between atoms: N_10  and  C_11
REMARK    7  A    between atoms: C_11  and  C_12
REMARK    8  A    between atoms: C_11  and  C_17
REMARK    9  A    between atoms: C_12  and  C_13
REMARK   10  A    between atoms: C_13  and  C_14
REMARK   11  A    between atoms: C_13  and  C_15
REMARK   12  A    between atoms: C_13  and  O_16
REMARK   13  A    between atoms: C_22  and  N_23
REMARK   14  A    between atoms: C_31  and  C_32
REMARK   15  A    between atoms: C_32  and  O_34
REMARK                            x       y       z     vdW  Elec       q    Type
REMARK                         _______ _______ _______ _____ _____    ______ ____
ROOT
ATOM      1  C   UNL     1       0.888  10.812  19.747  0.00  0.00    +0.000 C 
ENDROOT
BRANCH   1   2
ATOM      2  C   UNL     1       0.783  12.273  19.308  0.00  0.00    +0.000 A 
ATOM      3  C   UNL     1       1.966  13.060  19.363  0.00  0.00    +0.000 A 
ATOM      4  C   UNL     1       1.972  14.423  19.089  0.00  0.00    +0.000 A 
ATOM      5  C   UNL     1       0.793  15.041  18.739  0.00  0.00    +0.000 A 
ATOM      6  C   UNL     1      -0.385  14.293  18.677  0.00  0.00    +0.000 A 
ATOM      7  C   UNL     1      -0.450  12.910  18.985  0.00  0.00    +0.000 A 
BRANCH   7   8
ATOM      8  N   UNL     1      -1.699  12.297  19.050  0.00  0.00    +0.000 N 
ATOM      9  C   UNL     1      -2.097  11.291  18.050  0.00  0.00    +0.000 C 
ATOM     10  C   UNL     1      -3.521  11.602  17.591  0.00  0.00    +0.000 C 
ATOM     11  C   UNL     1      -4.495  11.733  18.764  0.00  0.00    +0.000 C 
ATOM     12  C   UNL     1      -3.951  12.647  19.866  0.00  0.00    +0.000 C 
ATOM     13  C   UNL     1      -2.530  12.223  20.260  0.00  0.00    +0.000 C 
ENDBRANCH   7   8
ENDBRANCH   1   2
BRANCH   1  16
ATOM     14  C   UNL     1       1.752   9.167  18.051  0.00  0.00    +0.000 C 
ATOM     15  O   UNL     1       0.645   8.947  17.568  0.00  0.00    +0.000 OA
ATOM     16  N   UNL     1       1.963  10.062  19.081  0.00  0.00    +0.000 N 
ATOM     17  H   UNL     1       2.917  10.237  19.354  0.00  0.00    +0.000 HD
BRANCH  14  18
ATOM     18  C   UNL     1       3.006   8.424  17.602  0.00  0.00    +0.000 C 
BRANCH  18  21
ATOM     19  C   UNL     1       4.627   5.052  18.466  0.00  0.00    +0.000 A 
ATOM     20  C   UNL     1       4.401   6.337  17.938  0.00  0.00    +0.000 A 
ATOM     21  C   UNL     1       3.145   6.975  18.034  0.00  0.00    +0.000 A 
ATOM     22  C   UNL     1       2.103   6.289  18.662  0.00  0.00    +0.000 A 
ATOM     23  C   UNL     1       2.324   5.027  19.224  0.00  0.00    +0.000 A 
ATOM     24  C   UNL     1       3.595   4.428  19.175  0.00  0.00    +0.000 A 
BRANCH  24  25
ATOM     25  C   UNL     1       3.757   3.194  19.982  0.00  0.00    +0.000 C 
ATOM     26  O   UNL     1       2.992   2.884  20.879  0.00  0.00    +0.000 OA
BRANCH  25  27
ATOM     27  O   UNL     1       4.871   2.497  19.677  0.00  0.00    +0.000 OA
ATOM     28  H   UNL     1       5.488   2.968  19.082  0.00  0.00    +0.000 HD
ENDBRANCH  25  27
ENDBRANCH  24  25
BRANCH  19  29
ATOM     29  O   UNL     1       5.909   4.588  18.306  0.00  0.00    +0.000 OA
BRANCH  29  31
ATOM     30  C   UNL     1       7.850   5.833  19.051  0.00  0.00    +0.000 C 
ATOM     31  C   UNL     1       6.913   5.529  17.896  0.00  0.00    +0.000 C 
ENDBRANCH  29  31
ENDBRANCH  19  29
ENDBRANCH  18  21
ENDBRANCH  14  18
ENDBRANCH   1  16
BRANCH   1  32
ATOM     32  C   UNL     1       0.834  10.624  21.281  0.00  0.00    +0.000 C 
BRANCH  32  33
ATOM     33  C   UNL     1       0.605   9.223  21.882  0.00  0.00    +0.000 C 
ATOM     34  C   UNL     1       0.221   9.375  23.363  0.00  0.00    +0.000 C 
ATOM     35  C   UNL     1      -0.476   8.436  21.148  0.00  0.00    +0.000 C 
BRANCH  33  36
ATOM     36  O   UNL     1       1.797   8.440  21.852  0.00  0.00    +0.000 OA
ATOM     37  H   UNL     1       1.574   7.533  22.129  0.00  0.00    +0.000 HD
ENDBRANCH  33  36
ENDBRANCH  32  33
ENDBRANCH   1  32
TORSDOF 12
ENDMDL
MODEL 7
REMARK VINA RESULT:      -6.9      1.955      4.041
REMARK  Name = 
REMARK  15 active torsions:
REMARK  status: ('A' for Active; 'I' for Inactive)
REMARK    1  A    between atoms: C_1  and  C_2
REMARK    2  A    between atoms: C_2  and  O_3
REMARK    3  A    between atoms: O_3  and  C_4
REMARK    4  A    between atoms: C_6  and  C_7
REMARK    5  A    between atoms: C_7  and  C_8
REMARK    6  A    between atoms: N_10  and  C_11
REMARK    7  A    between atoms: C_11  and  C_12
REMARK    8  A    between atoms: C_11  and  C_17
REMARK    9  A    between atoms: C_12  and  C_13
REMARK   10  A    between atoms: C_13  and  C_14
REMARK   11  A    between atoms: C_13  and  C_15
REMARK   12  A    between atoms: C_13  and  O_16
REMARK   13  A    between atoms: C_22  and  N_23
REMARK   14  A    between atoms: C_31  and  C_32
REMARK   15  A    between atoms: C_32  and  O_34
REMARK                            x       y       z     vdW  Elec       q    Type
REMARK                         _______ _______ _______ _____ _____    ______ ____
ROOT
ATOM      1  C   UNL     1      -0.295  10.668  20.543  0.00  0.00    +0.000 C 
ENDROOT
BRANCH   1   2
ATOM      2  C   UNL     1      -0.625  11.729  21.593  0.00  0.00    +0.000 A 
ATOM      3  C   UNL     1      -1.680  11.444  22.503  0.00  0.00    +0.000 A 
ATOM      4  C   UNL     1      -2.139  12.371  23.432  0.00  0.00    +0.000 A 
ATOM      5  C   UNL     1      -1.546  13.613  23.487  0.00  0.00    +0.000 A 
ATOM      6  C   UNL     1      -0.507  13.921  22.606  0.00  0.00    +0.000 A 
ATOM      7  C   UNL     1      -0.031  13.024  21.615  0.00  0.00    +0.000 A 
BRANCH   7   8
ATOM      8  N   UNL     1       0.895  13.487  20.683  0.00  0.00    +0.000 N 
ATOM      9  C   UNL     1       0.917  14.905  20.284  0.00  0.00    +0.000 C 
ATOM     10  C   UNL     1       1.031  14.976  18.761  0.00  0.00    +0.000 C 
ATOM     11  C   UNL     1       2.211  14.161  18.227  0.00  0.00    +0.000 C 
ATOM     12  C   UNL     1       2.250  12.749  18.819  0.00  0.00    +0.000 C 
ATOM     13  C   UNL     1       2.153  12.806  20.348  0.00  0.00    +0.000 C 
ENDBRANCH   7   8
ENDBRANCH   1   2
BRANCH   1  16
ATOM     14  C   UNL     1       1.241   8.682  20.384  0.00  0.00    +0.000 C 
ATOM     15  O   UNL     1       1.614   8.948  19.246  0.00  0.00    +0.000 OA
ATOM     16  N   UNL     1       0.346   9.463  21.088  0.00  0.00    +0.000 N 
ATOM     17  H   UNL     1       0.165   9.210  22.047  0.00  0.00    +0.000 HD
BRANCH  14  18
ATOM     18  C   UNL     1       1.681   7.420  21.118  0.00  0.00    +0.000 C 
BRANCH  18  21
ATOM     19  C   UNL     1       3.594   5.063  18.765  0.00  0.00    +0.000 A 
ATOM     20  C   UNL     1       3.156   6.212  19.450  0.00  0.00    +0.000 A 
ATOM     21  C   UNL     1       2.007   6.203  20.270  0.00  0.00    +0.000 A 
ATOM     22  C   UNL     1       1.286   5.012  20.381  0.00  0.00    +0.000 A 
ATOM     23  C   UNL     1       1.729   3.853  19.735  0.00  0.00    +0.000 A 
ATOM     24  C   UNL     1       2.909   3.861  18.970  0.00  0.00    +0.000 A 
BRANCH  24  25
ATOM     25  C   UNL     1       3.387   2.533  18.511  0.00  0.00    +0.000 C 
ATOM     26  O   UNL     1       2.721   1.797  17.805  0.00  0.00    +0.000 OA
BRANCH  25  27
ATOM     27  O   UNL     1       4.592   2.195  19.015  0.00  0.00    +0.000 OA
ATOM     28  H   UNL     1       5.314   2.810  18.775  0.00  0.00    +0.000 HD
ENDBRANCH  25  27
ENDBRANCH  24  25
BRANCH  19  29
ATOM     29  O   UNL     1       4.739   5.239  18.030  0.00  0.00    +0.000 OA
BRANCH  29  31
ATOM     30  C   UNL     1       7.116   4.772  17.955  0.00  0.00    +0.000 C 
ATOM     31  C   UNL     1       5.976   5.387  18.746  0.00  0.00    +0.000 C 
ENDBRANCH  29  31
ENDBRANCH  19  29
ENDBRANCH  18  21
ENDBRANCH  14  18
ENDBRANCH   1  16
BRANCH   1  32
ATOM     32  C   UNL     1      -1.461  10.384  19.566  0.00  0.00    +0.000 C 
BRANCH  32  33
ATOM     33  C   UNL     1      -1.338  10.773  18.079  0.00  0.00    +0.000 C 
ATOM     34  C   UNL     1      -2.484  10.114  17.297  0.00  0.00    +0.000 C 
ATOM     35  C   UNL     1      -1.364  12.282  17.860  0.00  0.00    +0.000 C 
BRANCH  33  36
ATOM     36  O   UNL     1      -0.125  10.281  17.510  0.00  0.00    +0.000 OA
ATOM     37  H   UNL     1       0.556  10.972  17.599  0.00  0.00    +0.000 HD
ENDBRANCH  33  36
ENDBRANCH  32  33
ENDBRANCH   1  32
TORSDOF 12
ENDMDL
MODEL 8
REMARK VINA RESULT:      -6.9      1.809      4.061
REMARK  Name = 
REMARK  15 active torsions:
REMARK  status: ('A' for Active; 'I' for Inactive)
REMARK    1  A    between atoms: C_1  and  C_2
REMARK    2  A    between atoms: C_2  and  O_3
REMARK    3  A    between atoms: O_3  and  C_4
REMARK    4  A    between atoms: C_6  and  C_7
REMARK    5  A    between atoms: C_7  and  C_8
REMARK    6  A    between atoms: N_10  and  C_11
REMARK    7  A    between atoms: C_11  and  C_12
REMARK    8  A    between atoms: C_11  and  C_17
REMARK    9  A    between atoms: C_12  and  C_13
REMARK   10  A    between atoms: C_13  and  C_14
REMARK   11  A    between atoms: C_13  and  C_15
REMARK   12  A    between atoms: C_13  and  O_16
REMARK   13  A    between atoms: C_22  and  N_23
REMARK   14  A    between atoms: C_31  and  C_32
REMARK   15  A    between atoms: C_32  and  O_34
REMARK                            x       y       z     vdW  Elec       q    Type
REMARK                         _______ _______ _______ _____ _____    ______ ____
ROOT
ATOM      1  C   UNL     1       0.864  11.069  20.020  0.00  0.00    +0.000 C 
ENDROOT
BRANCH   1   2
ATOM      2  C   UNL     1       0.718  12.495  19.488  0.00  0.00    +0.000 A 
ATOM      3  C   UNL     1       1.866  13.332  19.537  0.00  0.00    +0.000 A 
ATOM      4  C   UNL     1       1.830  14.676  19.179  0.00  0.00    +0.000 A 
ATOM      5  C   UNL     1       0.641  15.221  18.749  0.00  0.00    +0.000 A 
ATOM      6  C   UNL     1      -0.503  14.422  18.690  0.00  0.00    +0.000 A 
ATOM      7  C   UNL     1      -0.526  13.059  19.081  0.00  0.00    +0.000 A 
BRANCH   7   8
ATOM      8  N   UNL     1      -1.751  12.399  19.138  0.00  0.00    +0.000 N 
ATOM      9  C   UNL     1      -2.071  11.322  18.186  0.00  0.00    +0.000 C 
ATOM     10  C   UNL     1      -3.489  11.547  17.660  0.00  0.00    +0.000 C 
ATOM     11  C   UNL     1      -4.510  11.705  18.789  0.00  0.00    +0.000 C 
ATOM     12  C   UNL     1      -4.043  12.702  19.853  0.00  0.00    +0.000 C 
ATOM     13  C   UNL     1      -2.623  12.361  20.320  0.00  0.00    +0.000 C 
ENDBRANCH   7   8
ENDBRANCH   1   2
BRANCH   1  16
ATOM     14  C   UNL     1       1.513   9.378  18.274  0.00  0.00    +0.000 C 
ATOM     15  O   UNL     1       0.367   9.233  17.860  0.00  0.00    +0.000 OA
ATOM     16  N   UNL     1       1.844  10.253  19.289  0.00  0.00    +0.000 N 
ATOM     17  H   UNL     1       2.822  10.365  19.504  0.00  0.00    +0.000 HD
BRANCH  14  18
ATOM     18  C   UNL     1       2.685   8.557  17.749  0.00  0.00    +0.000 C 
BRANCH  18  21
ATOM     19  C   UNL     1       3.764   4.874  17.906  0.00  0.00    +0.000 A 
ATOM     20  C   UNL     1       3.498   6.177  17.444  0.00  0.00    +0.000 A 
ATOM     21  C   UNL     1       2.793   7.119  18.224  0.00  0.00    +0.000 A 
ATOM     22  C   UNL     1       2.338   6.723  19.484  0.00  0.00    +0.000 A 
ATOM     23  C   UNL     1       2.627   5.444  19.971  0.00  0.00    +0.000 A 
ATOM     24  C   UNL     1       3.383   4.536  19.208  0.00  0.00    +0.000 A 
BRANCH  24  25
ATOM     25  C   UNL     1       3.800   3.297  19.910  0.00  0.00    +0.000 C 
ATOM     26  O   UNL     1       3.124   2.764  20.773  0.00  0.00    +0.000 OA
BRANCH  25  27
ATOM     27  O   UNL     1       5.029   2.868  19.553  0.00  0.00    +0.000 OA
ATOM     28  H   UNL     1       5.322   2.060  20.019  0.00  0.00    +0.000 HD
ENDBRANCH  25  27
ENDBRANCH  24  25
BRANCH  19  29
ATOM     29  O   UNL     1       4.480   4.095  17.032  0.00  0.00    +0.000 OA
BRANCH  29  31
ATOM     30  C   UNL     1       6.697   4.381  16.099  0.00  0.00    +0.000 C 
ATOM     31  C   UNL     1       5.231   4.761  16.005  0.00  0.00    +0.000 C 
ENDBRANCH  29  31
ENDBRANCH  19  29
ENDBRANCH  18  21
ENDBRANCH  14  18
ENDBRANCH   1  16
BRANCH   1  32
ATOM     32  C   UNL     1       0.992  10.996  21.560  0.00  0.00    +0.000 C 
BRANCH  32  33
ATOM     33  C   UNL     1       0.128  10.005  22.364  0.00  0.00    +0.000 C 
ATOM     34  C   UNL     1      -1.110  10.745  22.897  0.00  0.00    +0.000 C 
ATOM     35  C   UNL     1      -0.308   8.799  21.538  0.00  0.00    +0.000 C 
BRANCH  33  36
ATOM     36  O   UNL     1       0.826   9.510  23.506  0.00  0.00    +0.000 OA
ATOM     37  H   UNL     1       0.186   9.047  24.078  0.00  0.00    +0.000 HD
ENDBRANCH  33  36
ENDBRANCH  32  33
ENDBRANCH   1  32
TORSDOF 12
ENDMDL
MODEL 9
REMARK VINA RESULT:      -6.8      1.863      3.896
REMARK  Name = 
REMARK  15 active torsions:
REMARK  status: ('A' for Active; 'I' for Inactive)
REMARK    1  A    between atoms: C_1  and  C_2
REMARK    2  A    between atoms: C_2  and  O_3
REMARK    3  A    between atoms: O_3  and  C_4
REMARK    4  A    between atoms: C_6  and  C_7
REMARK    5  A    between atoms: C_7  and  C_8
REMARK    6  A    between atoms: N_10  and  C_11
REMARK    7  A    between atoms: C_11  and  C_12
REMARK    8  A    between atoms: C_11  and  C_17
REMARK    9  A    between atoms: C_12  and  C_13
REMARK   10  A    between atoms: C_13  and  C_14
REMARK   11  A    between atoms: C_13  and  C_15
REMARK   12  A    between atoms: C_13  and  O_16
REMARK   13  A    between atoms: C_22  and  N_23
REMARK   14  A    between atoms: C_31  and  C_32
REMARK   15  A    between atoms: C_32  and  O_34
REMARK                            x       y       z     vdW  Elec       q    Type
REMARK                         _______ _______ _______ _____ _____    ______ ____
ROOT
ATOM      1  C   UNL     1       0.374  10.993  18.620  0.00  0.00    +0.000 C 
ENDROOT
BRANCH   1   2
ATOM      2  C   UNL     1       1.232  12.198  19.004  0.00  0.00    +0.000 A 
ATOM      3  C   UNL     1       2.170  12.667  18.043  0.00  0.00    +0.000 A 
ATOM      4  C   UNL     1       3.075  13.687  18.315  0.00  0.00    +0.000 A 
ATOM      5  C   UNL     1       3.062  14.280  19.557  0.00  0.00    +0.000 A 
ATOM      6  C   UNL     1       2.151  13.840  20.521  0.00  0.00    +0.000 A 
ATOM      7  C   UNL     1       1.236  12.779  20.306  0.00  0.00    +0.000 A 
BRANCH   7   8
ATOM      8  N   UNL     1       0.486  12.312  21.383  0.00  0.00    +0.000 N 
ATOM      9  C   UNL     1       0.847  11.057  22.064  0.00  0.00    +0.000 C 
ATOM     10  C   UNL     1      -0.425  10.235  22.269  0.00  0.00    +0.000 C 
ATOM     11  C   UNL     1      -1.525  11.032  22.974  0.00  0.00    +0.000 C 
ATOM     12  C   UNL     1      -1.734  12.410  22.340  0.00  0.00    +0.000 C 
ATOM     13  C   UNL     1      -0.396  13.148  22.209  0.00  0.00    +0.000 C 
ENDBRANCH   7   8
ENDBRANCH   1   2
BRANCH   1  16
ATOM     14  C   UNL     1       1.730   8.891  18.345  0.00  0.00    +0.000 C 
ATOM     15  O   UNL     1       2.133   9.191  17.225  0.00  0.00    +0.000 OA
ATOM     16  N   UNL     1       0.903   9.705  19.093  0.00  0.00    +0.000 N 
ATOM     17  H   UNL     1       0.693   9.412  20.034  0.00  0.00    +0.000 HD
BRANCH  14  18
ATOM     18  C   UNL     1       2.053   7.553  19.001  0.00  0.00    +0.000 C 
BRANCH  18  21
ATOM     19  C   UNL     1       3.605   4.411  17.432  0.00  0.00    +0.000 A 
ATOM     20  C   UNL     1       2.802   5.267  18.209  0.00  0.00    +0.000 A 
ATOM     21  C   UNL     1       3.049   6.655  18.291  0.00  0.00    +0.000 A 
ATOM     22  C   UNL     1       4.138   7.173  17.587  0.00  0.00    +0.000 A 
ATOM     23  C   UNL     1       4.923   6.340  16.783  0.00  0.00    +0.000 A 
ATOM     24  C   UNL     1       4.629   4.971  16.661  0.00  0.00    +0.000 A 
BRANCH  24  25
ATOM     25  C   UNL     1       5.395   4.237  15.624  0.00  0.00    +0.000 C 
ATOM     26  O   UNL     1       5.506   4.635  14.477  0.00  0.00    +0.000 OA
BRANCH  25  27
ATOM     27  O   UNL     1       5.887   3.058  16.056  0.00  0.00    +0.000 OA
ATOM     28  H   UNL     1       5.389   2.664  16.800  0.00  0.00    +0.000 HD
ENDBRANCH  25  27
ENDBRANCH  24  25
BRANCH  19  29
ATOM     29  O   UNL     1       3.212   3.096  17.444  0.00  0.00    +0.000 OA
BRANCH  29  31
ATOM     30  C   UNL     1       4.299   2.453  19.512  0.00  0.00    +0.000 C 
ATOM     31  C   UNL     1       3.004   2.473  18.721  0.00  0.00    +0.000 C 
ENDBRANCH  29  31
ENDBRANCH  19  29
ENDBRANCH  18  21
ENDBRANCH  14  18
ENDBRANCH   1  16
BRANCH   1  32
ATOM     32  C   UNL     1      -1.135  11.200  18.888  0.00  0.00    +0.000 C 
BRANCH  32  33
ATOM     33  C   UNL     1      -2.136  11.209  17.716  0.00  0.00    +0.000 C 
ATOM     34  C   UNL     1      -2.082   9.847  17.006  0.00  0.00    +0.000 C 
ATOM     35  C   UNL     1      -3.565  11.501  18.163  0.00  0.00    +0.000 C 
BRANCH  33  36
ATOM     36  O   UNL     1      -1.787  12.188  16.739  0.00  0.00    +0.000 OA
ATOM     37  H   UNL     1      -2.287  13.002  16.930  0.00  0.00    +0.000 HD
ENDBRANCH  33  36
ENDBRANCH  32  33
ENDBRANCH   1  32
TORSDOF 12
ENDMDL
