MODEL 1
REMARK VINA RESULT:      -6.9      0.000      0.000
REMARK  Name = 
REMARK  6 active torsions:
REMARK  status: ('A' for Active; 'I' for Inactive)
REMARK    1  A    between atoms: C_1  and  O_2
REMARK    2  A    between atoms: O_2  and  C_3
REMARK    3  A    between atoms: C_5  and  C_6
REMARK    4  A    between atoms: C_8  and  N_9
REMARK    5  A    between atoms: C_10  and  C_11
REMARK    6  A    between atoms: C_18  and  O_19
REMARK                            x       y       z     vdW  Elec       q    Type
REMARK                         _______ _______ _______ _____ _____    ______ ____
ROOT
ATOM      1  N   UNL     1       2.369   6.838  19.283  0.00  0.00    +0.000 NA
ATOM      2  C   UNL     1       2.291   8.063  18.873  0.00  0.00    +0.000 C 
ENDROOT
BRANCH   2   3
ATOM      3  C   UNL     1       1.240   8.977  19.373  0.00  0.00    +0.000 A 
ATOM      4  C   UNL     1       0.547   9.800  18.479  0.00  0.00    +0.000 A 
ATOM      5  C   UNL     1      -0.437  10.665  18.955  0.00  0.00    +0.000 A 
ATOM      6 CL   UNL     1      -1.291  11.678  17.857  0.00  0.00    +0.000 Cl
ATOM      7  C   UNL     1      -0.739  10.722  20.314  0.00  0.00    +0.000 A 
ATOM      8  C   UNL     1      -0.047   9.899  21.204  0.00  0.00    +0.000 A 
ATOM      9 BR   UNL     1      -0.470   9.992  23.051  0.00  0.00    +0.000 Br
ATOM     10  C   UNL     1       0.940   9.024  20.740  0.00  0.00    +0.000 A 
BRANCH  10  11
ATOM     11  O   UNL     1       1.620   8.210  21.608  0.00  0.00    +0.000 OA
ATOM     12  H   UNL     1       0.966   7.730  22.150  0.00  0.00    +0.000 HD
ENDBRANCH  10  11
ENDBRANCH   2   3
BRANCH   1  18
ATOM     13  C   UNL     1       4.835   4.367  18.882  0.00  0.00    +0.000 A 
ATOM     14  N   UNL     1       5.348   4.628  17.680  0.00  0.00    +0.000 NA
ATOM     15  C   UNL     1       4.798   5.666  17.054  0.00  0.00    +0.000 A 
ATOM     16  C   UNL     1       5.318   6.014  15.696  0.00  0.00    +0.000 C 
ATOM     17  N   UNL     1       3.811   6.409  17.546  0.00  0.00    +0.000 NA
ATOM     18  C   UNL     1       3.384   6.041  18.748  0.00  0.00    +0.000 A 
ATOM     19  N   UNL     1       3.859   5.037  19.474  0.00  0.00    +0.000 NA
BRANCH  13  21
ATOM     20  C   UNL     1       4.344   2.298  19.855  0.00  0.00    +0.000 C 
ATOM     21  O   UNL     1       5.322   3.303  19.611  0.00  0.00    +0.000 OA
ENDBRANCH  13  21
ENDBRANCH   1  18
TORSDOF 4
ENDMDL
MODEL 2
REMARK VINA RESULT:      -6.6      3.886      7.342
REMARK  Name = 
REMARK  6 active torsions:
REMARK  status: ('A' for Active; 'I' for Inactive)
REMARK    1  A    between atoms: C_1  and  O_2
REMARK    2  A    between atoms: O_2  and  C_3
REMARK    3  A    between atoms: C_5  and  C_6
REMARK    4  A    between atoms: C_8  and  N_9
REMARK    5  A    between atoms: C_10  and  C_11
REMARK    6  A    between atoms: C_18  and  O_19
REMARK                            x       y       z     vdW  Elec       q    Type
REMARK                         _______ _______ _______ _____ _____    ______ ____
ROOT
ATOM      1  N   UNL     1       2.192   7.337  19.766  0.00  0.00    +0.000 NA
ATOM      2  C   UNL     1       2.515   7.249  18.517  0.00  0.00    +0.000 C 
ENDROOT
BRANCH   2   3
ATOM      3  C   UNL     1       3.309   6.110  18.004  0.00  0.00    +0.000 A 
ATOM      4  C   UNL     1       4.474   6.347  17.266  0.00  0.00    +0.000 A 
ATOM      5  C   UNL     1       5.215   5.271  16.779  0.00  0.00    +0.000 A 
ATOM      6 CL   UNL     1       6.648   5.560  15.872  0.00  0.00    +0.000 Cl
ATOM      7  C   UNL     1       4.807   3.960  17.016  0.00  0.00    +0.000 A 
ATOM      8  C   UNL     1       3.646   3.726  17.753  0.00  0.00    +0.000 A 
ATOM      9 BR   UNL     1       3.106   1.935  18.064  0.00  0.00    +0.000 Br
ATOM     10  C   UNL     1       2.895   4.796  18.251  0.00  0.00    +0.000 A 
BRANCH  10  11
ATOM     11  O   UNL     1       1.755   4.573  18.979  0.00  0.00    +0.000 OA
ATOM     12  H   UNL     1       1.008   4.989  18.511  0.00  0.00    +0.000 HD
ENDBRANCH  10  11
ENDBRANCH   2   3
BRANCH   1  18
ATOM     13  C   UNL     1       0.550  10.444  19.788  0.00  0.00    +0.000 A 
ATOM     14  N   UNL     1       0.100  10.552  21.037  0.00  0.00    +0.000 NA
ATOM     15  C   UNL     1       0.389   9.518  21.824  0.00  0.00    +0.000 A 
ATOM     16  C   UNL     1      -0.091   9.565  23.240  0.00  0.00    +0.000 C 
ATOM     17  N   UNL     1       1.066   8.441  21.438  0.00  0.00    +0.000 NA
ATOM     18  C   UNL     1       1.453   8.452  20.167  0.00  0.00    +0.000 A 
ATOM     19  N   UNL     1       1.236   9.426  19.293  0.00  0.00    +0.000 NA
BRANCH  13  21
ATOM     20  C   UNL     1      -1.097  11.682  18.684  0.00  0.00    +0.000 C 
ATOM     21  O   UNL     1       0.292  11.453  18.884  0.00  0.00    +0.000 OA
ENDBRANCH  13  21
ENDBRANCH   1  18
TORSDOF 4
ENDMDL
MODEL 3
REMARK VINA RESULT:      -6.6      2.576      3.274
REMARK  Name = 
REMARK  6 active torsions:
REMARK  status: ('A' for Active; 'I' for Inactive)
REMARK    1  A    between atoms: C_1  and  O_2
REMARK    2  A    between atoms: O_2  and  C_3
REMARK    3  A    between atoms: C_5  and  C_6
REMARK    4  A    between atoms: C_8  and  N_9
REMARK    5  A    between atoms: C_10  and  C_11
REMARK    6  A    between atoms: C_18  and  O_19
REMARK                            x       y       z     vdW  Elec       q    Type
REMARK                         _______ _______ _______ _____ _____    ______ ____
ROOT
ATOM      1  N   UNL     1       3.101   7.698  18.193  0.00  0.00    +0.000 NA
ATOM      2  C   UNL     1       2.172   7.471  19.063  0.00  0.00    +0.000 C 
ENDROOT
BRANCH   2   3
ATOM      3  C   UNL     1       1.463   8.580  19.740  0.00  0.00    +0.000 A 
ATOM      4  C   UNL     1       1.181   8.496  21.108  0.00  0.00    +0.000 A 
ATOM      5  C   UNL     1       0.506   9.539  21.741  0.00  0.00    +0.000 A 
ATOM      6 CL   UNL     1       0.160   9.439  23.423  0.00  0.00    +0.000 Cl
ATOM      7  C   UNL     1       0.105  10.665  21.025  0.00  0.00    +0.000 A 
ATOM      8  C   UNL     1       0.388  10.747  19.661  0.00  0.00    +0.000 A 
ATOM      9 BR   UNL     1      -0.168  12.287  18.704  0.00  0.00    +0.000 Br
ATOM     10  C   UNL     1       1.068   9.709  19.015  0.00  0.00    +0.000 A 
BRANCH  10  11
ATOM     11  O   UNL     1       1.352   9.785  17.676  0.00  0.00    +0.000 OA
ATOM     12  H   UNL     1       2.223   9.373  17.526  0.00  0.00    +0.000 HD
ENDBRANCH  10  11
ENDBRANCH   2   3
BRANCH   1  18
ATOM     13  C   UNL     1       5.301   5.676  16.342  0.00  0.00    +0.000 A 
ATOM     14  N   UNL     1       4.808   4.449  16.501  0.00  0.00    +0.000 NA
ATOM     15  C   UNL     1       3.717   4.382  17.261  0.00  0.00    +0.000 A 
ATOM     16  C   UNL     1       3.110   3.035  17.490  0.00  0.00    +0.000 C 
ATOM     17  N   UNL     1       3.135   5.427  17.841  0.00  0.00    +0.000 NA
ATOM     18  C   UNL     1       3.729   6.593  17.612  0.00  0.00    +0.000 A 
ATOM     19  N   UNL     1       4.807   6.788  16.865  0.00  0.00    +0.000 NA
BRANCH  13  21
ATOM     20  C   UNL     1       6.894   4.662  14.963  0.00  0.00    +0.000 C 
ATOM     21  O   UNL     1       6.439   5.858  15.585  0.00  0.00    +0.000 OA
ENDBRANCH  13  21
ENDBRANCH   1  18
TORSDOF 4
ENDMDL
MODEL 4
REMARK VINA RESULT:      -6.6      2.398      2.910
REMARK  Name = 
REMARK  6 active torsions:
REMARK  status: ('A' for Active; 'I' for Inactive)
REMARK    1  A    between atoms: C_1  and  O_2
REMARK    2  A    between atoms: O_2  and  C_3
REMARK    3  A    between atoms: C_5  and  C_6
REMARK    4  A    between atoms: C_8  and  N_9
REMARK    5  A    between atoms: C_10  and  C_11
REMARK    6  A    between atoms: C_18  and  O_19
REMARK                            x       y       z     vdW  Elec       q    Type
REMARK                         _______ _______ _______ _____ _____    ______ ____
ROOT
ATOM      1  N   UNL     1       2.420   6.477  20.024  0.00  0.00    +0.000 NA
ATOM      2  C   UNL     1       2.169   7.539  19.330  0.00  0.00    +0.000 C 
ENDROOT
BRANCH   2   3
ATOM      3  C   UNL     1       1.354   8.645  19.880  0.00  0.00    +0.000 A 
ATOM      4  C   UNL     1       0.989   8.638  21.231  0.00  0.00    +0.000 A 
ATOM      5  C   UNL     1       0.215   9.678  21.744  0.00  0.00    +0.000 A 
ATOM      6 CL   UNL     1      -0.234   9.671  23.405  0.00  0.00    +0.000 Cl
ATOM      7  C   UNL     1      -0.202  10.725  20.926  0.00  0.00    +0.000 A 
ATOM      8  C   UNL     1       0.164  10.731  19.580  0.00  0.00    +0.000 A 
ATOM      9 BR   UNL     1      -0.416  12.164  18.482  0.00  0.00    +0.000 Br
ATOM     10  C   UNL     1       0.943   9.695  19.053  0.00  0.00    +0.000 A 
BRANCH  10  11
ATOM     11  O   UNL     1       1.309   9.698  17.732  0.00  0.00    +0.000 OA
ATOM     12  H   UNL     1       0.645   9.188  17.231  0.00  0.00    +0.000 HD
ENDBRANCH  10  11
ENDBRANCH   2   3
BRANCH   1  18
ATOM     13  C   UNL     1       5.132   4.549  18.895  0.00  0.00    +0.000 A 
ATOM     14  N   UNL     1       4.554   3.573  18.196  0.00  0.00    +0.000 NA
ATOM     15  C   UNL     1       3.225   3.631  18.155  0.00  0.00    +0.000 A 
ATOM     16  C   UNL     1       2.505   2.563  17.394  0.00  0.00    +0.000 C 
ATOM     17  N   UNL     1       2.490   4.565  18.752  0.00  0.00    +0.000 NA
ATOM     18  C   UNL     1       3.186   5.476  19.423  0.00  0.00    +0.000 A 
ATOM     19  N   UNL     1       4.507   5.531  19.525  0.00  0.00    +0.000 NA
BRANCH  13  21
ATOM     20  C   UNL     1       7.165   4.961  17.815  0.00  0.00    +0.000 C 
ATOM     21  O   UNL     1       6.506   4.576  19.015  0.00  0.00    +0.000 OA
ENDBRANCH  13  21
ENDBRANCH   1  18
TORSDOF 4
ENDMDL
MODEL 5
REMARK VINA RESULT:      -6.6      1.499      2.215
REMARK  Name = 
REMARK  6 active torsions:
REMARK  status: ('A' for Active; 'I' for Inactive)
REMARK    1  A    between atoms: C_1  and  O_2
REMARK    2  A    between atoms: O_2  and  C_3
REMARK    3  A    between atoms: C_5  and  C_6
REMARK    4  A    between atoms: C_8  and  N_9
REMARK    5  A    between atoms: C_10  and  C_11
REMARK    6  A    between atoms: C_18  and  O_19
REMARK                            x       y       z     vdW  Elec       q    Type
REMARK                         _______ _______ _______ _____ _____    ______ ____
ROOT
ATOM      1  N   UNL     1       2.432   7.033  18.891  0.00  0.00    +0.000 NA
ATOM      2  C   UNL     1       2.212   8.242  18.487  0.00  0.00    +0.000 C 
ENDROOT
BRANCH   2   3
ATOM      3  C   UNL     1       1.194   9.098  19.137  0.00  0.00    +0.000 A 
ATOM      4  C   UNL     1       0.435   9.987  18.367  0.00  0.00    +0.000 A 
ATOM      5  C   UNL     1      -0.518  10.797  18.984  0.00  0.00    +0.000 A 
ATOM      6 CL   UNL     1      -1.453  11.890  18.039  0.00  0.00    +0.000 Cl
ATOM      7  C   UNL     1      -0.722  10.733  20.361  0.00  0.00    +0.000 A 
ATOM      8  C   UNL     1       0.035   9.846  21.126  0.00  0.00    +0.000 A 
ATOM      9 BR   UNL     1      -0.257   9.776  22.998  0.00  0.00    +0.000 Br
ATOM     10  C   UNL     1       0.992   9.025  20.519  0.00  0.00    +0.000 A 
BRANCH  10  11
ATOM     11  O   UNL     1       1.735   8.148  21.265  0.00  0.00    +0.000 OA
ATOM     12  H   UNL     1       1.293   7.279  21.244  0.00  0.00    +0.000 HD
ENDBRANCH  10  11
ENDBRANCH   2   3
BRANCH   1  18
ATOM     13  C   UNL     1       5.270   6.128  17.026  0.00  0.00    +0.000 A 
ATOM     14  N   UNL     1       5.150   4.808  16.893  0.00  0.00    +0.000 NA
ATOM     15  C   UNL     1       4.071   4.287  17.473  0.00  0.00    +0.000 A 
ATOM     16  C   UNL     1       3.873   2.808  17.372  0.00  0.00    +0.000 C 
ATOM     17  N   UNL     1       3.162   4.986  18.146  0.00  0.00    +0.000 NA
ATOM     18  C   UNL     1       3.402   6.291  18.212  0.00  0.00    +0.000 A 
ATOM     19  N   UNL     1       4.430   6.926  17.667  0.00  0.00    +0.000 NA
BRANCH  13  21
ATOM     20  C   UNL     1       7.290   7.228  17.451  0.00  0.00    +0.000 C 
ATOM     21  O   UNL     1       6.360   6.769  16.477  0.00  0.00    +0.000 OA
ENDBRANCH  13  21
ENDBRANCH   1  18
TORSDOF 4
ENDMDL
MODEL 6
REMARK VINA RESULT:      -6.6      4.164      6.050
REMARK  Name = 
REMARK  6 active torsions:
REMARK  status: ('A' for Active; 'I' for Inactive)
REMARK    1  A    between atoms: C_1  and  O_2
REMARK    2  A    between atoms: O_2  and  C_3
REMARK    3  A    between atoms: C_5  and  C_6
REMARK    4  A    between atoms: C_8  and  N_9
REMARK    5  A    between atoms: C_10  and  C_11
REMARK    6  A    between atoms: C_18  and  O_19
REMARK                            x       y       z     vdW  Elec       q    Type
REMARK                         _______ _______ _______ _____ _____    ______ ____
ROOT
ATOM      1  N   UNL     1       5.353   5.216  15.885  0.00  0.00    +0.000 NA
ATOM      2  C   UNL     1       4.489   4.394  16.385  0.00  0.00    +0.000 C 
ENDROOT
BRANCH   2   3
ATOM      3  C   UNL     1       3.819   4.670  17.676  0.00  0.00    +0.000 A 
ATOM      4  C   UNL     1       3.326   5.951  17.947  0.00  0.00    +0.000 A 
ATOM      5  C   UNL     1       2.703   6.210  19.167  0.00  0.00    +0.000 A 
ATOM      6 CL   UNL     1       2.095   7.784  19.501  0.00  0.00    +0.000 Cl
ATOM      7  C   UNL     1       2.567   5.205  20.124  0.00  0.00    +0.000 A 
ATOM      8  C   UNL     1       3.059   3.928  19.851  0.00  0.00    +0.000 A 
ATOM      9 BR   UNL     1       2.867   2.576  21.167  0.00  0.00    +0.000 Br
ATOM     10  C   UNL     1       3.683   3.655  18.629  0.00  0.00    +0.000 A 
BRANCH  10  11
ATOM     11  O   UNL     1       4.164   2.401  18.355  0.00  0.00    +0.000 OA
ATOM     12  H   UNL     1       3.670   2.045  17.593  0.00  0.00    +0.000 HD
ENDBRANCH  10  11
ENDBRANCH   2   3
BRANCH   1  18
ATOM     13  C   UNL     1       6.047   3.660  12.812  0.00  0.00    +0.000 A 
ATOM     14  N   UNL     1       7.179   4.240  12.415  0.00  0.00    +0.000 NA
ATOM     15  C   UNL     1       7.652   5.164  13.248  0.00  0.00    +0.000 A 
ATOM     16  C   UNL     1       8.917   5.864  12.866  0.00  0.00    +0.000 C 
ATOM     17  N   UNL     1       7.073   5.517  14.392  0.00  0.00    +0.000 NA
ATOM     18  C   UNL     1       5.947   4.871  14.669  0.00  0.00    +0.000 A 
ATOM     19  N   UNL     1       5.385   3.925  13.927  0.00  0.00    +0.000 NA
BRANCH  13  21
ATOM     20  C   UNL     1       4.265   3.146  11.387  0.00  0.00    +0.000 C 
ATOM     21  O   UNL     1       5.461   2.699  12.015  0.00  0.00    +0.000 OA
ENDBRANCH  13  21
ENDBRANCH   1  18
TORSDOF 4
ENDMDL
MODEL 7
REMARK VINA RESULT:      -6.5      3.786      7.051
REMARK  Name = 
REMARK  6 active torsions:
REMARK  status: ('A' for Active; 'I' for Inactive)
REMARK    1  A    between atoms: C_1  and  O_2
REMARK    2  A    between atoms: O_2  and  C_3
REMARK    3  A    between atoms: C_5  and  C_6
REMARK    4  A    between atoms: C_8  and  N_9
REMARK    5  A    between atoms: C_10  and  C_11
REMARK    6  A    between atoms: C_18  and  O_19
REMARK                            x       y       z     vdW  Elec       q    Type
REMARK                         _______ _______ _______ _____ _____    ______ ____
ROOT
ATOM      1  N   UNL     1       2.190   7.291  19.749  0.00  0.00    +0.000 NA
ATOM      2  C   UNL     1       2.535   7.249  18.503  0.00  0.00    +0.000 C 
ENDROOT
BRANCH   2   3
ATOM      3  C   UNL     1       3.273   6.093  17.946  0.00  0.00    +0.000 A 
ATOM      4  C   UNL     1       4.368   6.306  17.101  0.00  0.00    +0.000 A 
ATOM      5  C   UNL     1       5.056   5.214  16.572  0.00  0.00    +0.000 A 
ATOM      6 CL   UNL     1       6.403   5.474  15.533  0.00  0.00    +0.000 Cl
ATOM      7  C   UNL     1       4.665   3.912  16.875  0.00  0.00    +0.000 A 
ATOM      8  C   UNL     1       3.574   3.702  17.719  0.00  0.00    +0.000 A 
ATOM      9 BR   UNL     1       3.056   1.922  18.117  0.00  0.00    +0.000 Br
ATOM     10  C   UNL     1       2.877   4.788  18.259  0.00  0.00    +0.000 A 
BRANCH  10  11
ATOM     11  O   UNL     1       1.807   4.588  19.092  0.00  0.00    +0.000 OA
ATOM     12  H   UNL     1       0.991   4.670  18.564  0.00  0.00    +0.000 HD
ENDBRANCH  10  11
ENDBRANCH   2   3
BRANCH   1  18
ATOM     13  C   UNL     1       0.402   9.563  21.746  0.00  0.00    +0.000 A 
ATOM     14  N   UNL     1       0.170  10.587  20.925  0.00  0.00    +0.000 NA
ATOM     15  C   UNL     1       0.659  10.436  19.696  0.00  0.00    +0.000 A 
ATOM     16  C   UNL     1       0.443  11.548  18.720  0.00  0.00    +0.000 C 
ATOM     17  N   UNL     1       1.336   9.371  19.277  0.00  0.00    +0.000 NA
ATOM     18  C   UNL     1       1.507   8.425  20.194  0.00  0.00    +0.000 A 
ATOM     19  N   UNL     1       1.058   8.454  21.441  0.00  0.00    +0.000 NA
BRANCH  13  21
ATOM     20  C   UNL     1      -1.083  10.579  23.240  0.00  0.00    +0.000 C 
ATOM     21  O   UNL     1      -0.048   9.622  23.048  0.00  0.00    +0.000 OA
ENDBRANCH  13  21
ENDBRANCH   1  18
TORSDOF 4
ENDMDL
MODEL 8
REMARK VINA RESULT:      -6.5      2.481      2.687
REMARK  Name = 
REMARK  6 active torsions:
REMARK  status: ('A' for Active; 'I' for Inactive)
REMARK    1  A    between atoms: C_1  and  O_2
REMARK    2  A    between atoms: O_2  and  C_3
REMARK    3  A    between atoms: C_5  and  C_6
REMARK    4  A    between atoms: C_8  and  N_9
REMARK    5  A    between atoms: C_10  and  C_11
REMARK    6  A    between atoms: C_18  and  O_19
REMARK                            x       y       z     vdW  Elec       q    Type
REMARK                         _______ _______ _______ _____ _____    ______ ____
ROOT
ATOM      1  N   UNL     1       2.688   6.752  19.042  0.00  0.00    +0.000 NA
ATOM      2  C   UNL     1       2.151   7.782  18.474  0.00  0.00    +0.000 C 
ENDROOT
BRANCH   2   3
ATOM      3  C   UNL     1       1.581   8.891  19.271  0.00  0.00    +0.000 A 
ATOM      4  C   UNL     1       1.184   8.668  20.594  0.00  0.00    +0.000 A 
ATOM      5  C   UNL     1       0.640   9.713  21.339  0.00  0.00    +0.000 A 
ATOM      6 CL   UNL     1       0.152   9.441  22.967  0.00  0.00    +0.000 Cl
ATOM      7  C   UNL     1       0.485  10.980  20.780  0.00  0.00    +0.000 A 
ATOM      8  C   UNL     1       0.882  11.201  19.461  0.00  0.00    +0.000 A 
ATOM      9 BR   UNL     1       0.660  12.931  18.718  0.00  0.00    +0.000 Br
ATOM     10  C   UNL     1       1.432  10.162  18.703  0.00  0.00    +0.000 A 
BRANCH  10  11
ATOM     11  O   UNL     1       1.828  10.373  17.408  0.00  0.00    +0.000 OA
ATOM     12  H   UNL     1       1.806  11.333  17.236  0.00  0.00    +0.000 HD
ENDBRANCH  10  11
ENDBRANCH   2   3
BRANCH   1  18
ATOM     13  C   UNL     1       3.252   3.644  17.500  0.00  0.00    +0.000 A 
ATOM     14  N   UNL     1       4.251   3.890  16.654  0.00  0.00    +0.000 NA
ATOM     15  C   UNL     1       4.684   5.148  16.657  0.00  0.00    +0.000 A 
ATOM     16  C   UNL     1       5.801   5.502  15.726  0.00  0.00    +0.000 C 
ATOM     17  N   UNL     1       4.188   6.118  17.421  0.00  0.00    +0.000 NA
ATOM     18  C   UNL     1       3.191   5.744  18.214  0.00  0.00    +0.000 A 
ATOM     19  N   UNL     1       2.682   4.523  18.310  0.00  0.00    +0.000 NA
BRANCH  13  21
ATOM     20  C   UNL     1       1.734   2.236  18.588  0.00  0.00    +0.000 C 
ATOM     21  O   UNL     1       2.715   2.376  17.567  0.00  0.00    +0.000 OA
ENDBRANCH  13  21
ENDBRANCH   1  18
TORSDOF 4
ENDMDL
MODEL 9
REMARK VINA RESULT:      -6.5      1.100      1.100
REMARK  Name = 
REMARK  6 active torsions:
REMARK  status: ('A' for Active; 'I' for Inactive)
REMARK    1  A    between atoms: C_1  and  O_2
REMARK    2  A    between atoms: O_2  and  C_3
REMARK    3  A    between atoms: C_5  and  C_6
REMARK    4  A    between atoms: C_8  and  N_9
REMARK    5  A    between atoms: C_10  and  C_11
REMARK    6  A    between atoms: C_18  and  O_19
REMARK                            x       y       z     vdW  Elec       q    Type
REMARK                         _______ _______ _______ _____ _____    ______ ____
ROOT
ATOM      1  N   UNL     1       2.384   6.761  18.885  0.00  0.00    +0.000 NA
ATOM      2  C   UNL     1       2.335   8.018  18.581  0.00  0.00    +0.000 C 
ENDROOT
BRANCH   2   3
ATOM      3  C   UNL     1       1.328   8.919  19.185  0.00  0.00    +0.000 A 
ATOM      4  C   UNL     1       0.630   9.825  18.379  0.00  0.00    +0.000 A 
ATOM      5  C   UNL     1      -0.313  10.677  18.952  0.00  0.00    +0.000 A 
ATOM      6 CL   UNL     1      -1.172  11.792  17.963  0.00  0.00    +0.000 Cl
ATOM      7  C   UNL     1      -0.568  10.638  20.322  0.00  0.00    +0.000 A 
ATOM      8  C   UNL     1       0.128   9.733  21.123  0.00  0.00    +0.000 A 
ATOM      9 BR   UNL     1      -0.232   9.697  22.984  0.00  0.00    +0.000 Br
ATOM     10  C   UNL     1       1.074   8.870  20.560  0.00  0.00    +0.000 A 
BRANCH  10  11
ATOM     11  O   UNL     1       1.758   7.975  21.342  0.00  0.00    +0.000 OA
ATOM     12  H   UNL     1       2.167   8.466  22.079  0.00  0.00    +0.000 HD
ENDBRANCH  10  11
ENDBRANCH   2   3
BRANCH   1  18
ATOM     13  C   UNL     1       4.133   4.038  17.518  0.00  0.00    +0.000 A 
ATOM     14  N   UNL     1       5.287   4.573  17.123  0.00  0.00    +0.000 NA
ATOM     15  C   UNL     1       5.402   5.879  17.351  0.00  0.00    +0.000 A 
ATOM     16  C   UNL     1       6.669   6.552  16.927  0.00  0.00    +0.000 C 
ATOM     17  N   UNL     1       4.464   6.632  17.919  0.00  0.00    +0.000 NA
ATOM     18  C   UNL     1       3.358   5.981  18.259  0.00  0.00    +0.000 A 
ATOM     19  N   UNL     1       3.132   4.684  18.096  0.00  0.00    +0.000 NA
BRANCH  13  21
ATOM     20  C   UNL     1       2.830   2.185  18.098  0.00  0.00    +0.000 C 
ATOM     21  O   UNL     1       3.903   2.693  17.315  0.00  0.00    +0.000 OA
ENDBRANCH  13  21
ENDBRANCH   1  18
TORSDOF 4
ENDMDL
