MODEL 1
REMARK VINA RESULT:      -8.1      0.000      0.000
REMARK  Name = 
REMARK  8 active torsions:
REMARK  status: ('A' for Active; 'I' for Inactive)
REMARK    1  A    between atoms: C_1  and  N_2
REMARK    2  A    between atoms: N_2  and  C_3
REMARK    3  A    between atoms: N_2  and  S_4
REMARK    4  A    between atoms: S_4  and  O_7
REMARK    5  A    between atoms: O_7  and  C_8
REMARK    6  A    between atoms: C_14  and  C_15
REMARK    7  A    between atoms: N_17  and  C_18
REMARK    8  A    between atoms: C_22  and  C_23
REMARK                            x       y       z     vdW  Elec       q    Type
REMARK                         _______ _______ _______ _____ _____    ______ ____
ROOT
ATOM      1  C   UNL     1       4.104   4.501  17.146  0.00  0.00    +0.000 A 
ATOM      2  C   UNL     1       5.372   4.042  16.728  0.00  0.00    +0.000 A 
ATOM      3  C   UNL     1       6.506   4.857  16.778  0.00  0.00    +0.000 A 
ATOM      4  C   UNL     1       6.397   6.150  17.251  0.00  0.00    +0.000 A 
ATOM      5 CL   UNL     1       7.786   7.159  17.319  0.00  0.00    +0.000 Cl
ATOM      6  C   UNL     1       5.160   6.630  17.661  0.00  0.00    +0.000 A 
ATOM      7  C   UNL     1       3.994   5.826  17.610  0.00  0.00    +0.000 A 
ENDROOT
BRANCH   7   8
ATOM      8  C   UNL     1       2.743   6.536  18.044  0.00  0.00    +0.000 C 
ATOM      9  O   UNL     1       1.707   5.872  18.053  0.00  0.00    +0.000 OA
ATOM     10  N   UNL     1       2.799   7.882  18.370  0.00  0.00    +0.000 N 
ATOM     11  H   UNL     1       3.649   8.383  18.148  0.00  0.00    +0.000 HD
BRANCH  10  12
ATOM     12  C   UNL     1       1.689   8.646  18.822  0.00  0.00    +0.000 A 
ATOM     13  C   UNL     1       0.905   9.435  17.969  0.00  0.00    +0.000 A 
ATOM     14  C   UNL     1      -0.141  10.219  18.458  0.00  0.00    +0.000 A 
ATOM     15  C   UNL     1      -0.428  10.220  19.816  0.00  0.00    +0.000 A 
ATOM     16  C   UNL     1       0.313   9.417  20.693  0.00  0.00    +0.000 A 
ATOM     17  C   UNL     1       1.363   8.620  20.182  0.00  0.00    +0.000 A 
BRANCH  16  18
ATOM     18  C   UNL     1       0.005   9.419  22.169  0.00  0.00    +0.000 C 
ATOM     19  F   UNL     1      -0.507  10.598  22.621  0.00  0.00    +0.000 F 
ATOM     20  F   UNL     1      -0.905   8.464  22.507  0.00  0.00    +0.000 F 
ATOM     21  F   UNL     1       1.105   9.172  22.933  0.00  0.00    +0.000 F 
ENDBRANCH  16  18
ENDBRANCH  10  12
ENDBRANCH   7   8
BRANCH   1  22
ATOM     22  O   UNL     1       2.983   3.690  17.101  0.00  0.00    +0.000 OA
BRANCH  22  23
ATOM     23  S   UNL     1       2.731   2.533  18.238  0.00  0.00    +0.000 S 
ATOM     24  O   UNL     1       3.526   1.374  17.884  0.00  0.00    +0.000 OA
ATOM     25  O   UNL     1       1.306   2.407  18.460  0.00  0.00    +0.000 OA
BRANCH  23  27
ATOM     26  C   UNL     1       2.390   3.447  20.730  0.00  0.00    +0.000 C 
ATOM     27  N   UNL     1       3.394   3.151  19.686  0.00  0.00    +0.000 NA
ATOM     28  C   UNL     1       4.473   2.271  20.210  0.00  0.00    +0.000 C 
ENDBRANCH  23  27
ENDBRANCH  22  23
ENDBRANCH   1  22
TORSDOF 6
ENDMDL
MODEL 2
REMARK VINA RESULT:      -8.1      0.955      1.219
REMARK  Name = 
REMARK  8 active torsions:
REMARK  status: ('A' for Active; 'I' for Inactive)
REMARK    1  A    between atoms: C_1  and  N_2
REMARK    2  A    between atoms: N_2  and  C_3
REMARK    3  A    between atoms: N_2  and  S_4
REMARK    4  A    between atoms: S_4  and  O_7
REMARK    5  A    between atoms: O_7  and  C_8
REMARK    6  A    between atoms: C_14  and  C_15
REMARK    7  A    between atoms: N_17  and  C_18
REMARK    8  A    between atoms: C_22  and  C_23
REMARK                            x       y       z     vdW  Elec       q    Type
REMARK                         _______ _______ _______ _____ _____    ______ ____
ROOT
ATOM      1  C   UNL     1       4.267   4.488  17.751  0.00  0.00    +0.000 A 
ATOM      2  C   UNL     1       5.504   4.047  17.233  0.00  0.00    +0.000 A 
ATOM      3  C   UNL     1       6.568   4.927  17.011  0.00  0.00    +0.000 A 
ATOM      4  C   UNL     1       6.418   6.268  17.305  0.00  0.00    +0.000 A 
ATOM      5 CL   UNL     1       7.720   7.356  17.037  0.00  0.00    +0.000 Cl
ATOM      6  C   UNL     1       5.209   6.730  17.807  0.00  0.00    +0.000 A 
ATOM      7  C   UNL     1       4.112   5.859  18.031  0.00  0.00    +0.000 A 
ENDROOT
BRANCH   7   8
ATOM      8  C   UNL     1       2.874   6.552  18.526  0.00  0.00    +0.000 C 
ATOM      9  O   UNL     1       1.998   5.836  19.010  0.00  0.00    +0.000 OA
ATOM     10  N   UNL     1       2.756   7.926  18.387  0.00  0.00    +0.000 N 
ATOM     11  H   UNL     1       3.438   8.398  17.807  0.00  0.00    +0.000 HD
BRANCH  10  12
ATOM     12  C   UNL     1       1.648   8.688  18.845  0.00  0.00    +0.000 A 
ATOM     13  C   UNL     1       0.846   9.460  17.993  0.00  0.00    +0.000 A 
ATOM     14  C   UNL     1      -0.198  10.244  18.488  0.00  0.00    +0.000 A 
ATOM     15  C   UNL     1      -0.465  10.261  19.850  0.00  0.00    +0.000 A 
ATOM     16  C   UNL     1       0.295   9.476  20.727  0.00  0.00    +0.000 A 
ATOM     17  C   UNL     1       1.343   8.679  20.210  0.00  0.00    +0.000 A 
BRANCH  16  18
ATOM     18  C   UNL     1       0.010   9.495  22.206  0.00  0.00    +0.000 C 
ATOM     19  F   UNL     1      -0.489  10.682  22.653  0.00  0.00    +0.000 F 
ATOM     20  F   UNL     1      -0.900   8.548  22.569  0.00  0.00    +0.000 F 
ATOM     21  F   UNL     1       1.120   9.252  22.957  0.00  0.00    +0.000 F 
ENDBRANCH  16  18
ENDBRANCH  10  12
ENDBRANCH   7   8
BRANCH   1  22
ATOM     22  O   UNL     1       3.217   3.615  17.976  0.00  0.00    +0.000 OA
BRANCH  22  23
ATOM     23  S   UNL     1       3.355   2.389  19.060  0.00  0.00    +0.000 S 
ATOM     24  O   UNL     1       4.193   2.846  20.150  0.00  0.00    +0.000 OA
ATOM     25  O   UNL     1       3.678   1.174  18.342  0.00  0.00    +0.000 OA
BRANCH  23  27
ATOM     26  C   UNL     1       1.569   2.860  20.997  0.00  0.00    +0.000 C 
ATOM     27  N   UNL     1       1.791   2.166  19.711  0.00  0.00    +0.000 NA
ATOM     28  C   UNL     1       0.735   2.510  18.721  0.00  0.00    +0.000 C 
ENDBRANCH  23  27
ENDBRANCH  22  23
ENDBRANCH   1  22
TORSDOF 6
ENDMDL
MODEL 3
REMARK VINA RESULT:      -8.0      2.181      2.654
REMARK  Name = 
REMARK  8 active torsions:
REMARK  status: ('A' for Active; 'I' for Inactive)
REMARK    1  A    between atoms: C_1  and  N_2
REMARK    2  A    between atoms: N_2  and  C_3
REMARK    3  A    between atoms: N_2  and  S_4
REMARK    4  A    between atoms: S_4  and  O_7
REMARK    5  A    between atoms: O_7  and  C_8
REMARK    6  A    between atoms: C_14  and  C_15
REMARK    7  A    between atoms: N_17  and  C_18
REMARK    8  A    between atoms: C_22  and  C_23
REMARK                            x       y       z     vdW  Elec       q    Type
REMARK                         _______ _______ _______ _____ _____    ______ ____
ROOT
ATOM      1  C   UNL     1       3.577   4.980  17.373  0.00  0.00    +0.000 A 
ATOM      2  C   UNL     1       4.711   4.388  16.777  0.00  0.00    +0.000 A 
ATOM      3  C   UNL     1       5.934   5.060  16.684  0.00  0.00    +0.000 A 
ATOM      4  C   UNL     1       6.049   6.340  17.189  0.00  0.00    +0.000 A 
ATOM      5 CL   UNL     1       7.547   7.174  17.081  0.00  0.00    +0.000 Cl
ATOM      6  C   UNL     1       4.947   6.950  17.773  0.00  0.00    +0.000 A 
ATOM      7  C   UNL     1       3.694   6.292  17.870  0.00  0.00    +0.000 A 
ENDROOT
BRANCH   7   8
ATOM      8  C   UNL     1       2.610   7.132  18.484  0.00  0.00    +0.000 C 
ATOM      9  O   UNL     1       2.084   6.691  19.505  0.00  0.00    +0.000 OA
ATOM     10  N   UNL     1       2.232   8.317  17.872  0.00  0.00    +0.000 N 
ATOM     11  H   UNL     1       2.585   8.497  16.941  0.00  0.00    +0.000 HD
BRANCH  10  12
ATOM     12  C   UNL     1       1.244   9.204  18.379  0.00  0.00    +0.000 A 
ATOM     13  C   UNL     1       1.389   9.901  19.586  0.00  0.00    +0.000 A 
ATOM     14  C   UNL     1       0.372  10.717  20.083  0.00  0.00    +0.000 A 
ATOM     15  C   UNL     1      -0.812  10.859  19.371  0.00  0.00    +0.000 A 
ATOM     16  C   UNL     1      -0.978  10.204  18.144  0.00  0.00    +0.000 A 
ATOM     17  C   UNL     1       0.065   9.388  17.648  0.00  0.00    +0.000 A 
BRANCH  16  18
ATOM     18  C   UNL     1      -2.263  10.353  17.371  0.00  0.00    +0.000 C 
ATOM     19  F   UNL     1      -2.164   9.976  16.065  0.00  0.00    +0.000 F 
ATOM     20  F   UNL     1      -3.272   9.604  17.898  0.00  0.00    +0.000 F 
ATOM     21  F   UNL     1      -2.719  11.635  17.356  0.00  0.00    +0.000 F 
ENDBRANCH  16  18
ENDBRANCH  10  12
ENDBRANCH   7   8
BRANCH   1  22
ATOM     22  O   UNL     1       2.369   4.311  17.470  0.00  0.00    +0.000 OA
BRANCH  22  23
ATOM     23  S   UNL     1       2.200   3.012  18.459  0.00  0.00    +0.000 S 
ATOM     24  O   UNL     1       2.819   1.871  17.813  0.00  0.00    +0.000 OA
ATOM     25  O   UNL     1       0.825   2.949  18.906  0.00  0.00    +0.000 OA
BRANCH  23  27
ATOM     26  C   UNL     1       2.367   3.414  21.100  0.00  0.00    +0.000 C 
ATOM     27  N   UNL     1       3.143   3.354  19.843  0.00  0.00    +0.000 NA
ATOM     28  C   UNL     1       4.294   2.420  19.962  0.00  0.00    +0.000 C 
ENDBRANCH  23  27
ENDBRANCH  22  23
ENDBRANCH   1  22
TORSDOF 6
ENDMDL
MODEL 4
REMARK VINA RESULT:      -7.8      1.569      1.885
REMARK  Name = 
REMARK  8 active torsions:
REMARK  status: ('A' for Active; 'I' for Inactive)
REMARK    1  A    between atoms: C_1  and  N_2
REMARK    2  A    between atoms: N_2  and  C_3
REMARK    3  A    between atoms: N_2  and  S_4
REMARK    4  A    between atoms: S_4  and  O_7
REMARK    5  A    between atoms: O_7  and  C_8
REMARK    6  A    between atoms: C_14  and  C_15
REMARK    7  A    between atoms: N_17  and  C_18
REMARK    8  A    between atoms: C_22  and  C_23
REMARK                            x       y       z     vdW  Elec       q    Type
REMARK                         _______ _______ _______ _____ _____    ______ ____
ROOT
ATOM      1  C   UNL     1       4.110   4.444  17.433  0.00  0.00    +0.000 A 
ATOM      2  C   UNL     1       4.698   3.368  16.734  0.00  0.00    +0.000 A 
ATOM      3  C   UNL     1       5.611   3.572  15.695  0.00  0.00    +0.000 A 
ATOM      4  C   UNL     1       5.958   4.859  15.335  0.00  0.00    +0.000 A 
ATOM      5 CL   UNL     1       7.081   5.120  14.061  0.00  0.00    +0.000 Cl
ATOM      6  C   UNL     1       5.389   5.936  16.000  0.00  0.00    +0.000 A 
ATOM      7  C   UNL     1       4.453   5.755  17.050  0.00  0.00    +0.000 A 
ENDROOT
BRANCH   7   8
ATOM      8  C   UNL     1       3.908   7.038  17.610  0.00  0.00    +0.000 C 
ATOM      9  O   UNL     1       4.683   7.994  17.650  0.00  0.00    +0.000 OA
ATOM     10  N   UNL     1       2.605   7.082  18.081  0.00  0.00    +0.000 N 
ATOM     11  H   UNL     1       2.114   6.203  18.182  0.00  0.00    +0.000 HD
BRANCH  10  12
ATOM     12  C   UNL     1       1.977   8.246  18.601  0.00  0.00    +0.000 A 
ATOM     13  C   UNL     1       1.777   9.409  17.845  0.00  0.00    +0.000 A 
ATOM     14  C   UNL     1       1.211  10.554  18.407  0.00  0.00    +0.000 A 
ATOM     15  C   UNL     1       0.823  10.552  19.740  0.00  0.00    +0.000 A 
ATOM     16  C   UNL     1       0.976   9.395  20.515  0.00  0.00    +0.000 A 
ATOM     17  C   UNL     1       1.542   8.239  19.930  0.00  0.00    +0.000 A 
BRANCH  16  18
ATOM     18  C   UNL     1       0.559   9.390  21.964  0.00  0.00    +0.000 C 
ATOM     19  F   UNL     1       1.556   9.034  22.820  0.00  0.00    +0.000 F 
ATOM     20  F   UNL     1       0.130  10.614  22.381  0.00  0.00    +0.000 F 
ATOM     21  F   UNL     1      -0.469   8.532  22.210  0.00  0.00    +0.000 F 
ENDBRANCH  16  18
ENDBRANCH  10  12
ENDBRANCH   7   8
BRANCH   1  22
ATOM     22  O   UNL     1       3.210   4.240  18.466  0.00  0.00    +0.000 OA
BRANCH  22  23
ATOM     23  S   UNL     1       3.416   3.011  19.534  0.00  0.00    +0.000 S 
ATOM     24  O   UNL     1       4.830   2.909  19.836  0.00  0.00    +0.000 OA
ATOM     25  O   UNL     1       2.680   1.858  19.058  0.00  0.00    +0.000 OA
BRANCH  23  27
ATOM     26  C   UNL     1       2.039   4.857  20.896  0.00  0.00    +0.000 C 
ATOM     27  N   UNL     1       2.648   3.513  20.975  0.00  0.00    +0.000 NA
ATOM     28  C   UNL     1       1.665   2.502  21.449  0.00  0.00    +0.000 C 
ENDBRANCH  23  27
ENDBRANCH  22  23
ENDBRANCH   1  22
TORSDOF 6
ENDMDL
MODEL 5
REMARK VINA RESULT:      -7.8      1.444      1.760
REMARK  Name = 
REMARK  8 active torsions:
REMARK  status: ('A' for Active; 'I' for Inactive)
REMARK    1  A    between atoms: C_1  and  N_2
REMARK    2  A    between atoms: N_2  and  C_3
REMARK    3  A    between atoms: N_2  and  S_4
REMARK    4  A    between atoms: S_4  and  O_7
REMARK    5  A    between atoms: O_7  and  C_8
REMARK    6  A    between atoms: C_14  and  C_15
REMARK    7  A    between atoms: N_17  and  C_18
REMARK    8  A    between atoms: C_22  and  C_23
REMARK                            x       y       z     vdW  Elec       q    Type
REMARK                         _______ _______ _______ _____ _____    ______ ____
ROOT
ATOM      1  C   UNL     1       5.063   4.575  18.422  0.00  0.00    +0.000 A 
ATOM      2  C   UNL     1       6.221   3.958  17.900  0.00  0.00    +0.000 A 
ATOM      3  C   UNL     1       6.727   4.284  16.638  0.00  0.00    +0.000 A 
ATOM      4  C   UNL     1       6.087   5.239  15.872  0.00  0.00    +0.000 A 
ATOM      5 CL   UNL     1       6.702   5.649  14.321  0.00  0.00    +0.000 Cl
ATOM      6  C   UNL     1       4.942   5.856  16.358  0.00  0.00    +0.000 A 
ATOM      7  C   UNL     1       4.404   5.535  17.630  0.00  0.00    +0.000 A 
ENDROOT
BRANCH   7   8
ATOM      8  C   UNL     1       3.134   6.267  17.958  0.00  0.00    +0.000 C 
ATOM      9  O   UNL     1       2.087   5.628  17.852  0.00  0.00    +0.000 OA
ATOM     10  N   UNL     1       3.187   7.604  18.318  0.00  0.00    +0.000 N 
ATOM     11  H   UNL     1       4.066   8.089  18.190  0.00  0.00    +0.000 HD
BRANCH  10  12
ATOM     12  C   UNL     1       2.056   8.386  18.678  0.00  0.00    +0.000 A 
ATOM     13  C   UNL     1       1.358   9.187  17.763  0.00  0.00    +0.000 A 
ATOM     14  C   UNL     1       0.289   9.988  18.166  0.00  0.00    +0.000 A 
ATOM     15  C   UNL     1      -0.110   9.994  19.496  0.00  0.00    +0.000 A 
ATOM     16  C   UNL     1       0.543   9.178  20.430  0.00  0.00    +0.000 A 
ATOM     17  C   UNL     1       1.618   8.365  20.006  0.00  0.00    +0.000 A 
BRANCH  16  18
ATOM     18  C   UNL     1       0.114   9.185  21.875  0.00  0.00    +0.000 C 
ATOM     19  F   UNL     1       1.139   8.994  22.751  0.00  0.00    +0.000 F 
ATOM     20  F   UNL     1      -0.469  10.362  22.235  0.00  0.00    +0.000 F 
ATOM     21  F   UNL     1      -0.801   8.216  22.154  0.00  0.00    +0.000 F 
ENDBRANCH  16  18
ENDBRANCH  10  12
ENDBRANCH   7   8
BRANCH   1  22
ATOM     22  O   UNL     1       4.567   4.255  19.674  0.00  0.00    +0.000 OA
BRANCH  22  23
ATOM     23  S   UNL     1       3.894   2.786  19.966  0.00  0.00    +0.000 S 
ATOM     24  O   UNL     1       4.745   2.080  20.903  0.00  0.00    +0.000 OA
ATOM     25  O   UNL     1       3.536   2.184  18.699  0.00  0.00    +0.000 OA
BRANCH  23  27
ATOM     26  C   UNL     1       2.263   4.507  21.207  0.00  0.00    +0.000 C 
ATOM     27  N   UNL     1       2.428   3.100  20.784  0.00  0.00    +0.000 NA
ATOM     28  C   UNL     1       1.255   2.631  19.998  0.00  0.00    +0.000 C 
ENDBRANCH  23  27
ENDBRANCH  22  23
ENDBRANCH   1  22
TORSDOF 6
ENDMDL
MODEL 6
REMARK VINA RESULT:      -7.8      1.589      1.864
REMARK  Name = 
REMARK  8 active torsions:
REMARK  status: ('A' for Active; 'I' for Inactive)
REMARK    1  A    between atoms: C_1  and  N_2
REMARK    2  A    between atoms: N_2  and  C_3
REMARK    3  A    between atoms: N_2  and  S_4
REMARK    4  A    between atoms: S_4  and  O_7
REMARK    5  A    between atoms: O_7  and  C_8
REMARK    6  A    between atoms: C_14  and  C_15
REMARK    7  A    between atoms: N_17  and  C_18
REMARK    8  A    between atoms: C_22  and  C_23
REMARK                            x       y       z     vdW  Elec       q    Type
REMARK                         _______ _______ _______ _____ _____    ______ ____
ROOT
ATOM      1  C   UNL     1       4.914   4.754  18.588  0.00  0.00    +0.000 A 
ATOM      2  C   UNL     1       6.067   4.132  18.062  0.00  0.00    +0.000 A 
ATOM      3  C   UNL     1       6.542   4.420  16.778  0.00  0.00    +0.000 A 
ATOM      4  C   UNL     1       5.875   5.341  15.995  0.00  0.00    +0.000 A 
ATOM      5 CL   UNL     1       6.452   5.704  14.418  0.00  0.00    +0.000 Cl
ATOM      6  C   UNL     1       4.734   5.962  16.485  0.00  0.00    +0.000 A 
ATOM      7  C   UNL     1       4.227   5.679  17.779  0.00  0.00    +0.000 A 
ENDROOT
BRANCH   7   8
ATOM      8  C   UNL     1       2.956   6.408  18.109  0.00  0.00    +0.000 C 
ATOM      9  O   UNL     1       1.912   5.762  18.023  0.00  0.00    +0.000 OA
ATOM     10  N   UNL     1       3.005   7.751  18.450  0.00  0.00    +0.000 N 
ATOM     11  H   UNL     1       3.880   8.238  18.307  0.00  0.00    +0.000 HD
BRANCH  10  12
ATOM     12  C   UNL     1       1.873   8.531  18.811  0.00  0.00    +0.000 A 
ATOM     13  C   UNL     1       1.153   9.305  17.891  0.00  0.00    +0.000 A 
ATOM     14  C   UNL     1       0.084  10.106  18.292  0.00  0.00    +0.000 A 
ATOM     15  C   UNL     1      -0.294  10.138  19.628  0.00  0.00    +0.000 A 
ATOM     16  C   UNL     1       0.382   9.350  20.569  0.00  0.00    +0.000 A 
ATOM     17  C   UNL     1       1.457   8.536  20.146  0.00  0.00    +0.000 A 
BRANCH  16  18
ATOM     18  C   UNL     1      -0.023   9.386  22.021  0.00  0.00    +0.000 C 
ATOM     19  F   UNL     1      -0.605  10.558  22.399  0.00  0.00    +0.000 F 
ATOM     20  F   UNL     1      -0.920   8.408  22.330  0.00  0.00    +0.000 F 
ATOM     21  F   UNL     1       1.031   9.204  22.863  0.00  0.00    +0.000 F 
ENDBRANCH  16  18
ENDBRANCH  10  12
ENDBRANCH   7   8
BRANCH   1  22
ATOM     22  O   UNL     1       4.449   4.472  19.861  0.00  0.00    +0.000 OA
BRANCH  22  23
ATOM     23  S   UNL     1       3.757   3.023  20.205  0.00  0.00    +0.000 S 
ATOM     24  O   UNL     1       2.764   3.234  21.240  0.00  0.00    +0.000 OA
ATOM     25  O   UNL     1       4.807   2.042  20.382  0.00  0.00    +0.000 OA
BRANCH  23  27
ATOM     26  C   UNL     1       3.503   1.432  18.069  0.00  0.00    +0.000 C 
ATOM     27  N   UNL     1       2.902   2.569  18.798  0.00  0.00    +0.000 NA
ATOM     28  C   UNL     1       1.464   2.324  19.090  0.00  0.00    +0.000 C 
ENDBRANCH  23  27
ENDBRANCH  22  23
ENDBRANCH   1  22
TORSDOF 6
ENDMDL
MODEL 7
REMARK VINA RESULT:      -7.7      4.535      7.024
REMARK  Name = 
REMARK  8 active torsions:
REMARK  status: ('A' for Active; 'I' for Inactive)
REMARK    1  A    between atoms: C_1  and  N_2
REMARK    2  A    between atoms: N_2  and  C_3
REMARK    3  A    between atoms: N_2  and  S_4
REMARK    4  A    between atoms: S_4  and  O_7
REMARK    5  A    between atoms: O_7  and  C_8
REMARK    6  A    between atoms: C_14  and  C_15
REMARK    7  A    between atoms: N_17  and  C_18
REMARK    8  A    between atoms: C_22  and  C_23
REMARK                            x       y       z     vdW  Elec       q    Type
REMARK                         _______ _______ _______ _____ _____    ______ ____
ROOT
ATOM      1  C   UNL     1       1.967   6.768  20.577  0.00  0.00    +0.000 A 
ATOM      2  C   UNL     1       0.943   7.402  21.314  0.00  0.00    +0.000 A 
ATOM      3  C   UNL     1       0.340   8.585  20.874  0.00  0.00    +0.000 A 
ATOM      4  C   UNL     1       0.745   9.156  19.684  0.00  0.00    +0.000 A 
ATOM      5 CL   UNL     1       0.009  10.607  19.134  0.00  0.00    +0.000 Cl
ATOM      6  C   UNL     1       1.756   8.557  18.943  0.00  0.00    +0.000 A 
ATOM      7  C   UNL     1       2.390   7.364  19.373  0.00  0.00    +0.000 A 
ENDROOT
BRANCH   7   8
ATOM      8  C   UNL     1       3.494   6.899  18.467  0.00  0.00    +0.000 C 
ATOM      9  O   UNL     1       3.604   7.483  17.389  0.00  0.00    +0.000 OA
ATOM     10  N   UNL     1       4.296   5.837  18.853  0.00  0.00    +0.000 N 
ATOM     11  H   UNL     1       4.007   5.302  19.662  0.00  0.00    +0.000 HD
BRANCH  10  12
ATOM     12  C   UNL     1       5.386   5.334  18.092  0.00  0.00    +0.000 A 
ATOM     13  C   UNL     1       6.655   5.098  18.638  0.00  0.00    +0.000 A 
ATOM     14  C   UNL     1       7.719   4.662  17.847  0.00  0.00    +0.000 A 
ATOM     15  C   UNL     1       7.527   4.443  16.489  0.00  0.00    +0.000 A 
ATOM     16  C   UNL     1       6.263   4.635  15.917  0.00  0.00    +0.000 A 
ATOM     17  C   UNL     1       5.192   5.068  16.733  0.00  0.00    +0.000 A 
BRANCH  16  18
ATOM     18  C   UNL     1       6.052   4.402  14.443  0.00  0.00    +0.000 C 
ATOM     19  F   UNL     1       4.796   4.707  14.013  0.00  0.00    +0.000 F 
ATOM     20  F   UNL     1       6.899   5.145  13.676  0.00  0.00    +0.000 F 
ATOM     21  F   UNL     1       6.265   3.106  14.082  0.00  0.00    +0.000 F 
ENDBRANCH  16  18
ENDBRANCH  10  12
ENDBRANCH   7   8
BRANCH   1  22
ATOM     22  O   UNL     1       2.559   5.594  21.010  0.00  0.00    +0.000 OA
BRANCH  22  23
ATOM     23  S   UNL     1       1.819   4.145  20.795  0.00  0.00    +0.000 S 
ATOM     24  O   UNL     1       0.504   4.390  20.236  0.00  0.00    +0.000 OA
ATOM     25  O   UNL     1       1.970   3.366  22.006  0.00  0.00    +0.000 OA
BRANCH  23  27
ATOM     26  C   UNL     1       3.830   2.519  20.109  0.00  0.00    +0.000 C 
ATOM     27  N   UNL     1       2.717   3.338  19.586  0.00  0.00    +0.000 NA
ATOM     28  C   UNL     1       1.834   2.543  18.691  0.00  0.00    +0.000 C 
ENDBRANCH  23  27
ENDBRANCH  22  23
ENDBRANCH   1  22
TORSDOF 6
ENDMDL
MODEL 8
REMARK VINA RESULT:      -7.7      1.635      2.091
REMARK  Name = 
REMARK  8 active torsions:
REMARK  status: ('A' for Active; 'I' for Inactive)
REMARK    1  A    between atoms: C_1  and  N_2
REMARK    2  A    between atoms: N_2  and  C_3
REMARK    3  A    between atoms: N_2  and  S_4
REMARK    4  A    between atoms: S_4  and  O_7
REMARK    5  A    between atoms: O_7  and  C_8
REMARK    6  A    between atoms: C_14  and  C_15
REMARK    7  A    between atoms: N_17  and  C_18
REMARK    8  A    between atoms: C_22  and  C_23
REMARK                            x       y       z     vdW  Elec       q    Type
REMARK                         _______ _______ _______ _____ _____    ______ ____
ROOT
ATOM      1  C   UNL     1       3.687   4.566  17.357  0.00  0.00    +0.000 A 
ATOM      2  C   UNL     1       4.284   3.476  16.688  0.00  0.00    +0.000 A 
ATOM      3  C   UNL     1       5.384   3.641  15.840  0.00  0.00    +0.000 A 
ATOM      4  C   UNL     1       5.913   4.902  15.647  0.00  0.00    +0.000 A 
ATOM      5 CL   UNL     1       7.266   5.115  14.610  0.00  0.00    +0.000 Cl
ATOM      6  C   UNL     1       5.341   5.993  16.287  0.00  0.00    +0.000 A 
ATOM      7  C   UNL     1       4.219   5.852  17.143  0.00  0.00    +0.000 A 
ENDROOT
BRANCH   7   8
ATOM      8  C   UNL     1       3.709   7.151  17.699  0.00  0.00    +0.000 C 
ATOM      9  O   UNL     1       4.491   8.102  17.681  0.00  0.00    +0.000 OA
ATOM     10  N   UNL     1       2.430   7.215  18.230  0.00  0.00    +0.000 N 
ATOM     11  H   UNL     1       1.940   6.342  18.375  0.00  0.00    +0.000 HD
BRANCH  10  12
ATOM     12  C   UNL     1       1.835   8.394  18.753  0.00  0.00    +0.000 A 
ATOM     13  C   UNL     1       1.692   9.573  18.009  0.00  0.00    +0.000 A 
ATOM     14  C   UNL     1       1.157  10.731  18.575  0.00  0.00    +0.000 A 
ATOM     15  C   UNL     1       0.744  10.727  19.901  0.00  0.00    +0.000 A 
ATOM     16  C   UNL     1       0.841   9.556  20.664  0.00  0.00    +0.000 A 
ATOM     17  C   UNL     1       1.375   8.388  20.074  0.00  0.00    +0.000 A 
BRANCH  16  18
ATOM     18  C   UNL     1       0.397   9.548  22.104  0.00  0.00    +0.000 C 
ATOM     19  F   UNL     1       1.380   9.198  22.979  0.00  0.00    +0.000 F 
ATOM     20  F   UNL     1      -0.047  10.770  22.514  0.00  0.00    +0.000 F 
ATOM     21  F   UNL     1      -0.631   8.684  22.331  0.00  0.00    +0.000 F 
ENDBRANCH  16  18
ENDBRANCH  10  12
ENDBRANCH   7   8
BRANCH   1  22
ATOM     22  O   UNL     1       2.602   4.400  18.200  0.00  0.00    +0.000 OA
BRANCH  22  23
ATOM     23  S   UNL     1       2.812   3.995  19.778  0.00  0.00    +0.000 S 
ATOM     24  O   UNL     1       2.811   5.216  20.559  0.00  0.00    +0.000 OA
ATOM     25  O   UNL     1       3.916   3.063  19.871  0.00  0.00    +0.000 OA
BRANCH  23  27
ATOM     26  C   UNL     1       1.003   2.095  19.254  0.00  0.00    +0.000 C 
ATOM     27  N   UNL     1       1.410   3.130  20.227  0.00  0.00    +0.000 NA
ATOM     28  C   UNL     1       1.535   2.564  21.597  0.00  0.00    +0.000 C 
ENDBRANCH  23  27
ENDBRANCH  22  23
ENDBRANCH   1  22
TORSDOF 6
ENDMDL
MODEL 9
REMARK VINA RESULT:      -7.7      1.552      1.941
REMARK  Name = 
REMARK  8 active torsions:
REMARK  status: ('A' for Active; 'I' for Inactive)
REMARK    1  A    between atoms: C_1  and  N_2
REMARK    2  A    between atoms: N_2  and  C_3
REMARK    3  A    between atoms: N_2  and  S_4
REMARK    4  A    between atoms: S_4  and  O_7
REMARK    5  A    between atoms: O_7  and  C_8
REMARK    6  A    between atoms: C_14  and  C_15
REMARK    7  A    between atoms: N_17  and  C_18
REMARK    8  A    between atoms: C_22  and  C_23
REMARK                            x       y       z     vdW  Elec       q    Type
REMARK                         _______ _______ _______ _____ _____    ______ ____
ROOT
ATOM      1  C   UNL     1       4.326   4.353  17.251  0.00  0.00    +0.000 A 
ATOM      2  C   UNL     1       4.934   3.314  16.515  0.00  0.00    +0.000 A 
ATOM      3  C   UNL     1       5.846   3.572  15.486  0.00  0.00    +0.000 A 
ATOM      4  C   UNL     1       6.172   4.877  15.175  0.00  0.00    +0.000 A 
ATOM      5 CL   UNL     1       7.293   5.204  13.915  0.00  0.00    +0.000 Cl
ATOM      6  C   UNL     1       5.582   5.919  15.878  0.00  0.00    +0.000 A 
ATOM      7  C   UNL     1       4.647   5.683  16.918  0.00  0.00    +0.000 A 
ENDROOT
BRANCH   7   8
ATOM      8  C   UNL     1       4.079   6.935  17.523  0.00  0.00    +0.000 C 
ATOM      9  O   UNL     1       4.860   7.874  17.681  0.00  0.00    +0.000 OA
ATOM     10  N   UNL     1       2.747   6.969  17.903  0.00  0.00    +0.000 N 
ATOM     11  H   UNL     1       2.240   6.093  17.911  0.00  0.00    +0.000 HD
BRANCH  10  12
ATOM     12  C   UNL     1       2.097   8.106  18.455  0.00  0.00    +0.000 A 
ATOM     13  C   UNL     1       1.933   9.308  17.753  0.00  0.00    +0.000 A 
ATOM     14  C   UNL     1       1.343  10.424  18.349  0.00  0.00    +0.000 A 
ATOM     15  C   UNL     1       0.896  10.353  19.661  0.00  0.00    +0.000 A 
ATOM     16  C   UNL     1       1.013   9.157  20.381  0.00  0.00    +0.000 A 
ATOM     17  C   UNL     1       1.603   8.032  19.762  0.00  0.00    +0.000 A 
BRANCH  16  18
ATOM     18  C   UNL     1       0.531   9.078  21.807  0.00  0.00    +0.000 C 
ATOM     19  F   UNL     1      -0.490   8.196  21.992  0.00  0.00    +0.000 F 
ATOM     20  F   UNL     1       1.518   8.690  22.664  0.00  0.00    +0.000 F 
ATOM     21  F   UNL     1       0.081  10.274  22.275  0.00  0.00    +0.000 F 
ENDBRANCH  16  18
ENDBRANCH  10  12
ENDBRANCH   7   8
BRANCH   1  22
ATOM     22  O   UNL     1       3.428   4.096  18.273  0.00  0.00    +0.000 OA
BRANCH  22  23
ATOM     23  S   UNL     1       3.468   2.675  19.094  0.00  0.00    +0.000 S 
ATOM     24  O   UNL     1       4.661   2.665  19.918  0.00  0.00    +0.000 OA
ATOM     25  O   UNL     1       3.207   1.597  18.163  0.00  0.00    +0.000 OA
BRANCH  23  27
ATOM     26  C   UNL     1       2.517   2.864  21.588  0.00  0.00    +0.000 C 
ATOM     27  N   UNL     1       2.139   2.720  20.167  0.00  0.00    +0.000 NA
ATOM     28  C   UNL     1       1.149   3.755  19.764  0.00  0.00    +0.000 C 
ENDBRANCH  23  27
ENDBRANCH  22  23
ENDBRANCH   1  22
TORSDOF 6
ENDMDL
