MODEL 1
REMARK VINA RESULT:      -7.6      0.000      0.000
REMARK  Name = 
REMARK  10 active torsions:
REMARK  status: ('A' for Active; 'I' for Inactive)
REMARK    1  A    between atoms: C_1  and  C_2
REMARK    2  A    between atoms: C_2  and  C_3
REMARK    3  A    between atoms: C_3  and  N_4
REMARK    4  A    between atoms: C_5  and  C_7
REMARK    5  A    between atoms: C_8  and  C_9
REMARK    6  A    between atoms: C_9  and  S_10
REMARK    7  A    between atoms: S_10  and  C_13
REMARK    8  A    between atoms: C_22  and  C_23
REMARK    9  A    between atoms: N_25  and  C_26
REMARK   10  A    between atoms: C_26  and  C_27
REMARK                            x       y       z     vdW  Elec       q    Type
REMARK                         _______ _______ _______ _____ _____    ______ ____
ROOT
ATOM      1  C   UNL     1      -0.192  10.306  20.859  0.00  0.00    +0.000 A 
ATOM      2  C   UNL     1      -0.387  10.592  22.253  0.00  0.00    +0.000 A 
ATOM      3  N   UNL     1       0.471   9.895  23.006  0.00  0.00    +0.000 NA
ATOM      4  O   UNL     1       1.261   9.184  22.138  0.00  0.00    +0.000 OA
ATOM      5  C   UNL     1       0.860   9.394  20.852  0.00  0.00    +0.000 A 
ENDROOT
BRANCH   1   7
ATOM      6  N   UNL     1      -1.415   9.882  18.823  0.00  0.00    +0.000 N 
ATOM      7  C   UNL     1      -0.826  10.805  19.652  0.00  0.00    +0.000 C 
ATOM      8  O   UNL     1      -0.764  11.991  19.343  0.00  0.00    +0.000 OA
ATOM      9  H   UNL     1      -1.293   8.897  18.975  0.00  0.00    +0.000 HD
BRANCH   6  10
ATOM     10  C   UNL     1      -1.953  10.271  17.533  0.00  0.00    +0.000 C 
BRANCH  10  12
ATOM     11  C   UNL     1      -4.221  11.400  17.733  0.00  0.00    +0.000 C 
ATOM     12  C   UNL     1      -3.470  10.104  17.459  0.00  0.00    +0.000 C 
ENDBRANCH  10  12
ENDBRANCH   6  10
ENDBRANCH   1   7
BRANCH   5  13
ATOM     13  C   UNL     1       1.573   8.628  19.841  0.00  0.00    +0.000 C 
ATOM     14  O   UNL     1       1.677   9.002  18.674  0.00  0.00    +0.000 OA
ATOM     15  N   UNL     1       2.179   7.469  20.277  0.00  0.00    +0.000 N 
ATOM     16  H   UNL     1       1.847   7.055  21.139  0.00  0.00    +0.000 HD
BRANCH  15  17
ATOM     17  C   UNL     1       2.847   6.550  19.386  0.00  0.00    +0.000 C 
BRANCH  17  18
ATOM     18  C   UNL     1       2.168   5.203  19.421  0.00  0.00    +0.000 A 
ATOM     19  C   UNL     1       1.975   4.453  18.252  0.00  0.00    +0.000 A 
ATOM     20  C   UNL     1       1.326   3.216  18.303  0.00  0.00    +0.000 A 
ATOM     21  C   UNL     1       0.854   2.722  19.518  0.00  0.00    +0.000 A 
ATOM     22  C   UNL     1       1.027   3.467  20.684  0.00  0.00    +0.000 A 
ATOM     23  C   UNL     1       1.676   4.701  20.635  0.00  0.00    +0.000 A 
ENDBRANCH  17  18
ENDBRANCH  15  17
ENDBRANCH   5  13
BRANCH   2  24
ATOM     24  C   UNL     1      -1.338  11.479  22.971  0.00  0.00    +0.000 C 
BRANCH  24  25
ATOM     25  S   UNL     1      -0.991  13.211  22.807  0.00  0.00    +0.000 S 
ATOM     26  O   UNL     1      -1.029  13.806  24.134  0.00  0.00    +0.000 OA
ATOM     27  O   UNL     1       0.209  13.336  21.999  0.00  0.00    +0.000 OA
BRANCH  25  28
ATOM     28  C   UNL     1      -2.326  13.920  21.867  0.00  0.00    +0.000 A 
ATOM     29  C   UNL     1      -3.350  13.089  21.400  0.00  0.00    +0.000 A 
ATOM     30  C   UNL     1      -4.448  13.648  20.743  0.00  0.00    +0.000 A 
ATOM     31  C   UNL     1      -4.527  15.030  20.573  0.00  0.00    +0.000 A 
ATOM     32 CL   UNL     1      -5.898  15.717  19.792  0.00  0.00    +0.000 Cl
ATOM     33  C   UNL     1      -3.513  15.862  21.051  0.00  0.00    +0.000 A 
ATOM     34  C   UNL     1      -2.407  15.308  21.706  0.00  0.00    +0.000 A 
ENDBRANCH  25  28
ENDBRANCH  24  25
ENDBRANCH   2  24
TORSDOF 9
ENDMDL
MODEL 2
REMARK VINA RESULT:      -7.5      6.738     10.031
REMARK  Name = 
REMARK  10 active torsions:
REMARK  status: ('A' for Active; 'I' for Inactive)
REMARK    1  A    between atoms: C_1  and  C_2
REMARK    2  A    between atoms: C_2  and  C_3
REMARK    3  A    between atoms: C_3  and  N_4
REMARK    4  A    between atoms: C_5  and  C_7
REMARK    5  A    between atoms: C_8  and  C_9
REMARK    6  A    between atoms: C_9  and  S_10
REMARK    7  A    between atoms: S_10  and  C_13
REMARK    8  A    between atoms: C_22  and  C_23
REMARK    9  A    between atoms: N_25  and  C_26
REMARK   10  A    between atoms: C_26  and  C_27
REMARK                            x       y       z     vdW  Elec       q    Type
REMARK                         _______ _______ _______ _____ _____    ______ ____
ROOT
ATOM      1  C   UNL     1       6.028   5.432  17.618  0.00  0.00    +0.000 A 
ATOM      2  C   UNL     1       5.743   4.734  18.840  0.00  0.00    +0.000 A 
ATOM      3  N   UNL     1       6.441   5.251  19.857  0.00  0.00    +0.000 NA
ATOM      4  O   UNL     1       7.151   6.308  19.344  0.00  0.00    +0.000 OA
ATOM      5  C   UNL     1       6.941   6.413  18.001  0.00  0.00    +0.000 A 
ENDROOT
BRANCH   1   7
ATOM      6  N   UNL     1       5.733   4.085  15.638  0.00  0.00    +0.000 N 
ATOM      7  C   UNL     1       5.529   5.292  16.262  0.00  0.00    +0.000 C 
ATOM      8  O   UNL     1       5.021   6.238  15.669  0.00  0.00    +0.000 OA
ATOM      9  H   UNL     1       6.321   3.383  16.049  0.00  0.00    +0.000 HD
BRANCH   6  10
ATOM     10  C   UNL     1       5.390   3.899  14.241  0.00  0.00    +0.000 C 
BRANCH  10  12
ATOM     11  C   UNL     1       6.457   3.287  12.018  0.00  0.00    +0.000 C 
ATOM     12  C   UNL     1       6.595   4.069  13.316  0.00  0.00    +0.000 C 
ENDBRANCH  10  12
ENDBRANCH   6  10
ENDBRANCH   1   7
BRANCH   5  13
ATOM     13  C   UNL     1       7.706   7.450  17.326  0.00  0.00    +0.000 C 
ATOM     14  O   UNL     1       8.206   7.290  16.214  0.00  0.00    +0.000 OA
ATOM     15  N   UNL     1       7.799   8.658  17.985  0.00  0.00    +0.000 N 
ATOM     16  H   UNL     1       7.631   8.667  18.983  0.00  0.00    +0.000 HD
BRANCH  15  17
ATOM     17  C   UNL     1       8.594   9.759  17.496  0.00  0.00    +0.000 C 
BRANCH  17  18
ATOM     18  C   UNL     1       9.292  10.447  18.643  0.00  0.00    +0.000 A 
ATOM     19  C   UNL     1       8.774  10.399  19.946  0.00  0.00    +0.000 A 
ATOM     20  C   UNL     1       9.425  11.060  20.992  0.00  0.00    +0.000 A 
ATOM     21  C   UNL     1      10.592  11.783  20.745  0.00  0.00    +0.000 A 
ATOM     22  C   UNL     1      11.106  11.850  19.451  0.00  0.00    +0.000 A 
ATOM     23  C   UNL     1      10.458  11.190  18.407  0.00  0.00    +0.000 A 
ENDBRANCH  17  18
ENDBRANCH  15  17
ENDBRANCH   5  13
BRANCH   2  24
ATOM     24  C   UNL     1       4.857   3.585  19.154  0.00  0.00    +0.000 C 
BRANCH  24  25
ATOM     25  S   UNL     1       3.169   3.803  18.656  0.00  0.00    +0.000 S 
ATOM     26  O   UNL     1       3.119   3.762  17.202  0.00  0.00    +0.000 OA
ATOM     27  O   UNL     1       2.367   2.870  19.427  0.00  0.00    +0.000 OA
BRANCH  25  28
ATOM     28  C   UNL     1       2.689   5.442  19.159  0.00  0.00    +0.000 A 
ATOM     29  C   UNL     1       2.759   6.489  18.234  0.00  0.00    +0.000 A 
ATOM     30  C   UNL     1       2.297   7.758  18.589  0.00  0.00    +0.000 A 
ATOM     31  C   UNL     1       1.753   7.969  19.856  0.00  0.00    +0.000 A 
ATOM     32 CL   UNL     1       1.155   9.526  20.278  0.00  0.00    +0.000 Cl
ATOM     33  C   UNL     1       1.669   6.922  20.776  0.00  0.00    +0.000 A 
ATOM     34  C   UNL     1       2.135   5.650  20.427  0.00  0.00    +0.000 A 
ENDBRANCH  25  28
ENDBRANCH  24  25
ENDBRANCH   2  24
TORSDOF 9
ENDMDL
MODEL 3
REMARK VINA RESULT:      -7.4      2.120      2.699
REMARK  Name = 
REMARK  10 active torsions:
REMARK  status: ('A' for Active; 'I' for Inactive)
REMARK    1  A    between atoms: C_1  and  C_2
REMARK    2  A    between atoms: C_2  and  C_3
REMARK    3  A    between atoms: C_3  and  N_4
REMARK    4  A    between atoms: C_5  and  C_7
REMARK    5  A    between atoms: C_8  and  C_9
REMARK    6  A    between atoms: C_9  and  S_10
REMARK    7  A    between atoms: S_10  and  C_13
REMARK    8  A    between atoms: C_22  and  C_23
REMARK    9  A    between atoms: N_25  and  C_26
REMARK   10  A    between atoms: C_26  and  C_27
REMARK                            x       y       z     vdW  Elec       q    Type
REMARK                         _______ _______ _______ _____ _____    ______ ____
ROOT
ATOM      1  C   UNL     1       0.692  10.570  19.636  0.00  0.00    +0.000 A 
ATOM      2  C   UNL     1       1.126  11.872  20.056  0.00  0.00    +0.000 A 
ATOM      3  N   UNL     1       1.496  11.859  21.342  0.00  0.00    +0.000 NA
ATOM      4  O   UNL     1       1.357  10.564  21.773  0.00  0.00    +0.000 OA
ATOM      5  C   UNL     1       0.849   9.785  20.777  0.00  0.00    +0.000 A 
ENDROOT
BRANCH   1   7
ATOM      6  N   UNL     1      -1.061  10.348  17.993  0.00  0.00    +0.000 N 
ATOM      7  C   UNL     1       0.227  10.048  18.364  0.00  0.00    +0.000 C 
ATOM      8  O   UNL     1       0.926   9.299  17.690  0.00  0.00    +0.000 OA
ATOM      9  H   UNL     1      -1.695  10.791  18.635  0.00  0.00    +0.000 HD
BRANCH   6  10
ATOM     10  C   UNL     1      -1.654   9.760  16.807  0.00  0.00    +0.000 C 
BRANCH  10  12
ATOM     11  C   UNL     1      -3.758  11.135  17.184  0.00  0.00    +0.000 C 
ATOM     12  C   UNL     1      -2.717  10.660  16.179  0.00  0.00    +0.000 C 
ENDBRANCH  10  12
ENDBRANCH   6  10
ENDBRANCH   1   7
BRANCH   5  13
ATOM     13  C   UNL     1       0.579   8.401  21.139  0.00  0.00    +0.000 C 
ATOM     14  O   UNL     1      -0.479   8.043  21.652  0.00  0.00    +0.000 OA
ATOM     15  N   UNL     1       1.565   7.491  20.822  0.00  0.00    +0.000 N 
ATOM     16  H   UNL     1       2.503   7.841  20.672  0.00  0.00    +0.000 HD
BRANCH  15  17
ATOM     17  C   UNL     1       1.494   6.098  21.193  0.00  0.00    +0.000 C 
BRANCH  17  18
ATOM     18  C   UNL     1       1.692   5.225  19.979  0.00  0.00    +0.000 A 
ATOM     19  C   UNL     1       2.448   5.662  18.881  0.00  0.00    +0.000 A 
ATOM     20  C   UNL     1       2.603   4.846  17.757  0.00  0.00    +0.000 A 
ATOM     21  C   UNL     1       1.996   3.591  17.714  0.00  0.00    +0.000 A 
ATOM     22  C   UNL     1       1.229   3.153  18.792  0.00  0.00    +0.000 A 
ATOM     23  C   UNL     1       1.075   3.967  19.916  0.00  0.00    +0.000 A 
ENDBRANCH  17  18
ENDBRANCH  15  17
ENDBRANCH   5  13
BRANCH   2  24
ATOM     24  C   UNL     1       1.223  13.174  19.346  0.00  0.00    +0.000 C 
BRANCH  24  25
ATOM     25  S   UNL     1      -0.341  13.926  18.979  0.00  0.00    +0.000 S 
ATOM     26  O   UNL     1      -0.127  15.357  18.825  0.00  0.00    +0.000 OA
ATOM     27  O   UNL     1      -0.939  13.170  17.894  0.00  0.00    +0.000 OA
BRANCH  25  28
ATOM     28  C   UNL     1      -1.376  13.693  20.408  0.00  0.00    +0.000 A 
ATOM     29  C   UNL     1      -2.424  12.768  20.350  0.00  0.00    +0.000 A 
ATOM     30  C   UNL     1      -3.183  12.510  21.493  0.00  0.00    +0.000 A 
ATOM     31  C   UNL     1      -2.881  13.162  22.689  0.00  0.00    +0.000 A 
ATOM     32 CL   UNL     1      -3.798  12.816  24.103  0.00  0.00    +0.000 Cl
ATOM     33  C   UNL     1      -1.827  14.075  22.753  0.00  0.00    +0.000 A 
ATOM     34  C   UNL     1      -1.066  14.341  21.609  0.00  0.00    +0.000 A 
ENDBRANCH  25  28
ENDBRANCH  24  25
ENDBRANCH   2  24
TORSDOF 9
ENDMDL
MODEL 4
REMARK VINA RESULT:      -7.3      6.601      9.496
REMARK  Name = 
REMARK  10 active torsions:
REMARK  status: ('A' for Active; 'I' for Inactive)
REMARK    1  A    between atoms: C_1  and  C_2
REMARK    2  A    between atoms: C_2  and  C_3
REMARK    3  A    between atoms: C_3  and  N_4
REMARK    4  A    between atoms: C_5  and  C_7
REMARK    5  A    between atoms: C_8  and  C_9
REMARK    6  A    between atoms: C_9  and  S_10
REMARK    7  A    between atoms: S_10  and  C_13
REMARK    8  A    between atoms: C_22  and  C_23
REMARK    9  A    between atoms: N_25  and  C_26
REMARK   10  A    between atoms: C_26  and  C_27
REMARK                            x       y       z     vdW  Elec       q    Type
REMARK                         _______ _______ _______ _____ _____    ______ ____
ROOT
ATOM      1  C   UNL     1       5.387   4.422  18.240  0.00  0.00    +0.000 A 
ATOM      2  C   UNL     1       4.411   3.574  18.864  0.00  0.00    +0.000 A 
ATOM      3  N   UNL     1       3.720   2.889  17.945  0.00  0.00    +0.000 NA
ATOM      4  O   UNL     1       4.247   3.233  16.726  0.00  0.00    +0.000 OA
ATOM      5  C   UNL     1       5.224   4.171  16.880  0.00  0.00    +0.000 A 
ENDROOT
BRANCH   1   7
ATOM      6  N   UNL     1       6.820   6.342  17.951  0.00  0.00    +0.000 N 
ATOM      7  C   UNL     1       6.390   5.328  18.772  0.00  0.00    +0.000 C 
ATOM      8  O   UNL     1       6.893   5.144  19.875  0.00  0.00    +0.000 OA
ATOM      9  H   UNL     1       6.555   6.372  16.983  0.00  0.00    +0.000 HD
BRANCH   6  10
ATOM     10  C   UNL     1       7.912   7.211  18.346  0.00  0.00    +0.000 C 
BRANCH  10  12
ATOM     11  C   UNL     1       8.659   9.640  18.371  0.00  0.00    +0.000 C 
ATOM     12  C   UNL     1       7.864   8.566  17.642  0.00  0.00    +0.000 C 
ENDBRANCH  10  12
ENDBRANCH   6  10
ENDBRANCH   1   7
BRANCH   5  13
ATOM     13  C   UNL     1       5.806   4.678  15.646  0.00  0.00    +0.000 C 
ATOM     14  O   UNL     1       5.823   5.875  15.362  0.00  0.00    +0.000 OA
ATOM     15  N   UNL     1       6.393   3.739  14.824  0.00  0.00    +0.000 N 
ATOM     16  H   UNL     1       6.120   2.772  14.940  0.00  0.00    +0.000 HD
BRANCH  15  17
ATOM     17  C   UNL     1       6.935   4.063  13.526  0.00  0.00    +0.000 C 
BRANCH  17  18
ATOM     18  C   UNL     1       6.166   3.340  12.447  0.00  0.00    +0.000 A 
ATOM     19  C   UNL     1       4.862   3.722  12.100  0.00  0.00    +0.000 A 
ATOM     20  C   UNL     1       4.160   3.027  11.111  0.00  0.00    +0.000 A 
ATOM     21  C   UNL     1       4.749   1.939  10.467  0.00  0.00    +0.000 A 
ATOM     22  C   UNL     1       6.038   1.542  10.816  0.00  0.00    +0.000 A 
ATOM     23  C   UNL     1       6.741   2.235  11.802  0.00  0.00    +0.000 A 
ENDBRANCH  17  18
ENDBRANCH  15  17
ENDBRANCH   5  13
BRANCH   2  24
ATOM     24  C   UNL     1       4.046   3.341  20.284  0.00  0.00    +0.000 C 
BRANCH  24  25
ATOM     25  S   UNL     1       2.380   3.788  20.695  0.00  0.00    +0.000 S 
ATOM     26  O   UNL     1       1.484   2.887  19.987  0.00  0.00    +0.000 OA
ATOM     27  O   UNL     1       2.303   3.885  22.142  0.00  0.00    +0.000 OA
BRANCH  25  28
ATOM     28  C   UNL     1       2.108   5.424  20.049  0.00  0.00    +0.000 A 
ATOM     29  C   UNL     1       1.823   6.470  20.933  0.00  0.00    +0.000 A 
ATOM     30  C   UNL     1       1.701   7.773  20.447  0.00  0.00    +0.000 A 
ATOM     31  C   UNL     1       1.880   8.027  19.087  0.00  0.00    +0.000 A 
ATOM     32 CL   UNL     1       1.761   9.639  18.497  0.00  0.00    +0.000 Cl
ATOM     33  C   UNL     1       2.179   6.987  18.205  0.00  0.00    +0.000 A 
ATOM     34  C   UNL     1       2.298   5.678  18.686  0.00  0.00    +0.000 A 
ENDBRANCH  25  28
ENDBRANCH  24  25
ENDBRANCH   2  24
TORSDOF 9
ENDMDL
MODEL 5
REMARK VINA RESULT:      -7.2      6.927      9.800
REMARK  Name = 
REMARK  10 active torsions:
REMARK  status: ('A' for Active; 'I' for Inactive)
REMARK    1  A    between atoms: C_1  and  C_2
REMARK    2  A    between atoms: C_2  and  C_3
REMARK    3  A    between atoms: C_3  and  N_4
REMARK    4  A    between atoms: C_5  and  C_7
REMARK    5  A    between atoms: C_8  and  C_9
REMARK    6  A    between atoms: C_9  and  S_10
REMARK    7  A    between atoms: S_10  and  C_13
REMARK    8  A    between atoms: C_22  and  C_23
REMARK    9  A    between atoms: N_25  and  C_26
REMARK   10  A    between atoms: C_26  and  C_27
REMARK                            x       y       z     vdW  Elec       q    Type
REMARK                         _______ _______ _______ _____ _____    ______ ____
ROOT
ATOM      1  C   UNL     1       5.043   3.761  18.376  0.00  0.00    +0.000 A 
ATOM      2  C   UNL     1       4.088   2.829  18.907  0.00  0.00    +0.000 A 
ATOM      3  N   UNL     1       3.641   2.007  17.951  0.00  0.00    +0.000 NA
ATOM      4  O   UNL     1       4.313   2.345  16.803  0.00  0.00    +0.000 OA
ATOM      5  C   UNL     1       5.133   3.411  17.030  0.00  0.00    +0.000 A 
ENDROOT
BRANCH   1   7
ATOM      6  N   UNL     1       7.166   4.868  18.669  0.00  0.00    +0.000 N 
ATOM      7  C   UNL     1       5.830   4.820  18.981  0.00  0.00    +0.000 C 
ATOM      8  O   UNL     1       5.339   5.587  19.802  0.00  0.00    +0.000 OA
ATOM      9  H   UNL     1       7.605   4.123  18.157  0.00  0.00    +0.000 HD
BRANCH   6  10
ATOM     10  C   UNL     1       8.055   5.805  19.329  0.00  0.00    +0.000 C 
BRANCH  10  12
ATOM     11  C   UNL     1       7.508   7.120  17.224  0.00  0.00    +0.000 C 
ATOM     12  C   UNL     1       8.094   7.164  18.629  0.00  0.00    +0.000 C 
ENDBRANCH  10  12
ENDBRANCH   6  10
ENDBRANCH   1   7
BRANCH   5  13
ATOM     13  C   UNL     1       5.841   3.917  15.864  0.00  0.00    +0.000 C 
ATOM     14  O   UNL     1       7.052   4.130  15.862  0.00  0.00    +0.000 OA
ATOM     15  N   UNL     1       5.081   4.097  14.727  0.00  0.00    +0.000 N 
ATOM     16  H   UNL     1       4.079   4.186  14.836  0.00  0.00    +0.000 HD
BRANCH  15  17
ATOM     17  C   UNL     1       5.609   4.675  13.515  0.00  0.00    +0.000 C 
BRANCH  17  18
ATOM     18  C   UNL     1       5.996   3.586  12.544  0.00  0.00    +0.000 A 
ATOM     19  C   UNL     1       5.055   2.658  12.075  0.00  0.00    +0.000 A 
ATOM     20  C   UNL     1       5.438   1.645  11.192  0.00  0.00    +0.000 A 
ATOM     21  C   UNL     1       6.765   1.542  10.777  0.00  0.00    +0.000 A 
ATOM     22  C   UNL     1       7.712   2.449  11.250  0.00  0.00    +0.000 A 
ATOM     23  C   UNL     1       7.331   3.462  12.131  0.00  0.00    +0.000 A 
ENDBRANCH  17  18
ENDBRANCH  15  17
ENDBRANCH   5  13
BRANCH   2  24
ATOM     24  C   UNL     1       3.529   2.635  20.270  0.00  0.00    +0.000 C 
BRANCH  24  25
ATOM     25  S   UNL     1       1.909   3.318  20.501  0.00  0.00    +0.000 S 
ATOM     26  O   UNL     1       0.968   2.516  19.734  0.00  0.00    +0.000 OA
ATOM     27  O   UNL     1       1.711   3.485  21.930  0.00  0.00    +0.000 OA
BRANCH  25  28
ATOM     28  C   UNL     1       1.926   4.947  19.785  0.00  0.00    +0.000 A 
ATOM     29  C   UNL     1       1.979   6.063  20.626  0.00  0.00    +0.000 A 
ATOM     30  C   UNL     1       2.087   7.341  20.074  0.00  0.00    +0.000 A 
ATOM     31  C   UNL     1       2.160   7.496  18.690  0.00  0.00    +0.000 A 
ATOM     32 CL   UNL     1       2.326   9.070  18.015  0.00  0.00    +0.000 Cl
ATOM     33  C   UNL     1       2.122   6.383  17.849  0.00  0.00    +0.000 A 
ATOM     34  C   UNL     1       2.009   5.100  18.396  0.00  0.00    +0.000 A 
ENDBRANCH  25  28
ENDBRANCH  24  25
ENDBRANCH   2  24
TORSDOF 9
ENDMDL
MODEL 6
REMARK VINA RESULT:      -7.2      4.828      9.615
REMARK  Name = 
REMARK  10 active torsions:
REMARK  status: ('A' for Active; 'I' for Inactive)
REMARK    1  A    between atoms: C_1  and  C_2
REMARK    2  A    between atoms: C_2  and  C_3
REMARK    3  A    between atoms: C_3  and  N_4
REMARK    4  A    between atoms: C_5  and  C_7
REMARK    5  A    between atoms: C_8  and  C_9
REMARK    6  A    between atoms: C_9  and  S_10
REMARK    7  A    between atoms: S_10  and  C_13
REMARK    8  A    between atoms: C_22  and  C_23
REMARK    9  A    between atoms: N_25  and  C_26
REMARK   10  A    between atoms: C_26  and  C_27
REMARK                            x       y       z     vdW  Elec       q    Type
REMARK                         _______ _______ _______ _____ _____    ______ ____
ROOT
ATOM      1  C   UNL     1       2.315   7.450  19.121  0.00  0.00    +0.000 A 
ATOM      2  C   UNL     1       3.022   6.402  18.441  0.00  0.00    +0.000 A 
ATOM      3  N   UNL     1       3.427   6.808  17.232  0.00  0.00    +0.000 NA
ATOM      4  O   UNL     1       3.042   8.119  17.113  0.00  0.00    +0.000 OA
ATOM      5  C   UNL     1       2.349   8.512  18.220  0.00  0.00    +0.000 A 
ENDROOT
BRANCH   1   7
ATOM      6  N   UNL     1       1.705   8.767  21.049  0.00  0.00    +0.000 N 
ATOM      7  C   UNL     1       1.707   7.538  20.436  0.00  0.00    +0.000 C 
ATOM      8  O   UNL     1       1.289   6.539  21.012  0.00  0.00    +0.000 OA
ATOM      9  H   UNL     1       2.223   9.538  20.664  0.00  0.00    +0.000 HD
BRANCH   6  10
ATOM     10  C   UNL     1       1.243   8.922  22.415  0.00  0.00    +0.000 C 
BRANCH  10  12
ATOM     11  C   UNL     1      -0.442  10.775  21.985  0.00  0.00    +0.000 C 
ATOM     12  C   UNL     1      -0.221   9.356  22.490  0.00  0.00    +0.000 C 
ENDBRANCH  10  12
ENDBRANCH   6  10
ENDBRANCH   1   7
BRANCH   5  13
ATOM     13  C   UNL     1       1.814   9.865  18.177  0.00  0.00    +0.000 C 
ATOM     14  O   UNL     1       2.525  10.856  18.017  0.00  0.00    +0.000 OA
ATOM     15  N   UNL     1       0.443   9.976  18.274  0.00  0.00    +0.000 N 
ATOM     16  H   UNL     1      -0.067   9.202  18.679  0.00  0.00    +0.000 HD
BRANCH  15  17
ATOM     17  C   UNL     1      -0.238  11.247  18.339  0.00  0.00    +0.000 C 
BRANCH  17  18
ATOM     18  C   UNL     1      -1.697  11.075  17.995  0.00  0.00    +0.000 A 
ATOM     19  C   UNL     1      -2.102  10.272  16.919  0.00  0.00    +0.000 A 
ATOM     20  C   UNL     1      -3.458  10.141  16.605  0.00  0.00    +0.000 A 
ATOM     21  C   UNL     1      -4.419  10.818  17.353  0.00  0.00    +0.000 A 
ATOM     22  C   UNL     1      -4.026  11.631  18.415  0.00  0.00    +0.000 A 
ATOM     23  C   UNL     1      -2.673  11.762  18.731  0.00  0.00    +0.000 A 
ENDBRANCH  17  18
ENDBRANCH  15  17
ENDBRANCH   5  13
BRANCH   2  24
ATOM     24  C   UNL     1       3.357   5.007  18.824  0.00  0.00    +0.000 C 
BRANCH  24  25
ATOM     25  S   UNL     1       5.096   4.678  18.944  0.00  0.00    +0.000 S 
ATOM     26  O   UNL     1       5.733   5.837  19.550  0.00  0.00    +0.000 OA
ATOM     27  O   UNL     1       5.246   3.373  19.562  0.00  0.00    +0.000 OA
BRANCH  25  28
ATOM     28  C   UNL     1       5.713   4.540  17.280  0.00  0.00    +0.000 A 
ATOM     29  C   UNL     1       4.885   4.008  16.286  0.00  0.00    +0.000 A 
ATOM     30  C   UNL     1       5.325   3.981  14.961  0.00  0.00    +0.000 A 
ATOM     31  C   UNL     1       6.577   4.501  14.634  0.00  0.00    +0.000 A 
ATOM     32 CL   UNL     1       7.101   4.496  12.995  0.00  0.00    +0.000 Cl
ATOM     33  C   UNL     1       7.399   5.045  15.623  0.00  0.00    +0.000 A 
ATOM     34  C   UNL     1       6.966   5.070  16.953  0.00  0.00    +0.000 A 
ENDBRANCH  25  28
ENDBRANCH  24  25
ENDBRANCH   2  24
TORSDOF 9
ENDMDL
MODEL 7
REMARK VINA RESULT:      -7.1      4.412      9.094
REMARK  Name = 
REMARK  10 active torsions:
REMARK  status: ('A' for Active; 'I' for Inactive)
REMARK    1  A    between atoms: C_1  and  C_2
REMARK    2  A    between atoms: C_2  and  C_3
REMARK    3  A    between atoms: C_3  and  N_4
REMARK    4  A    between atoms: C_5  and  C_7
REMARK    5  A    between atoms: C_8  and  C_9
REMARK    6  A    between atoms: C_9  and  S_10
REMARK    7  A    between atoms: S_10  and  C_13
REMARK    8  A    between atoms: C_22  and  C_23
REMARK    9  A    between atoms: N_25  and  C_26
REMARK   10  A    between atoms: C_26  and  C_27
REMARK                            x       y       z     vdW  Elec       q    Type
REMARK                         _______ _______ _______ _____ _____    ______ ____
ROOT
ATOM      1  C   UNL     1       1.314   8.045  20.243  0.00  0.00    +0.000 A 
ATOM      2  C   UNL     1       2.111   6.885  19.960  0.00  0.00    +0.000 A 
ATOM      3  N   UNL     1       2.805   7.049  18.828  0.00  0.00    +0.000 NA
ATOM      4  O   UNL     1       2.518   8.312  18.376  0.00  0.00    +0.000 OA
ATOM      5  C   UNL     1       1.605   8.912  19.192  0.00  0.00    +0.000 A 
ENDROOT
BRANCH   1   7
ATOM      6  N   UNL     1       0.852   9.339  22.227  0.00  0.00    +0.000 N 
ATOM      7  C   UNL     1       0.421   8.386  21.336  0.00  0.00    +0.000 C 
ATOM      8  O   UNL     1      -0.636   7.787  21.505  0.00  0.00    +0.000 OA
ATOM      9  H   UNL     1       1.796   9.682  22.202  0.00  0.00    +0.000 HD
BRANCH   6  10
ATOM     10  C   UNL     1       0.088   9.645  23.421  0.00  0.00    +0.000 C 
BRANCH  10  12
ATOM     11  C   UNL     1      -0.645  11.789  22.272  0.00  0.00    +0.000 C 
ATOM     12  C   UNL     1      -1.061  10.615  23.147  0.00  0.00    +0.000 C 
ENDBRANCH  10  12
ENDBRANCH   6  10
ENDBRANCH   1   7
BRANCH   5  13
ATOM     13  C   UNL     1       1.157  10.230  18.769  0.00  0.00    +0.000 C 
ATOM     14  O   UNL     1       1.933  11.104  18.384  0.00  0.00    +0.000 OA
ATOM     15  N   UNL     1      -0.206  10.435  18.773  0.00  0.00    +0.000 N 
ATOM     16  H   UNL     1      -0.775   9.825  19.345  0.00  0.00    +0.000 HD
BRANCH  15  17
ATOM     17  C   UNL     1      -0.808  11.711  18.469  0.00  0.00    +0.000 C 
BRANCH  17  18
ATOM     18  C   UNL     1      -2.233  11.520  18.012  0.00  0.00    +0.000 A 
ATOM     19  C   UNL     1      -2.529  11.060  16.720  0.00  0.00    +0.000 A 
ATOM     20  C   UNL     1      -3.856  10.908  16.309  0.00  0.00    +0.000 A 
ATOM     21  C   UNL     1      -4.899  11.223  17.178  0.00  0.00    +0.000 A 
ATOM     22  C   UNL     1      -4.617  11.695  18.459  0.00  0.00    +0.000 A 
ATOM     23  C   UNL     1      -3.292  11.846  18.871  0.00  0.00    +0.000 A 
ENDBRANCH  17  18
ENDBRANCH  15  17
ENDBRANCH   5  13
BRANCH   2  24
ATOM     24  C   UNL     1       2.284   5.591  20.669  0.00  0.00    +0.000 C 
BRANCH  24  25
ATOM     25  S   UNL     1       2.218   4.165  19.616  0.00  0.00    +0.000 S 
ATOM     26  O   UNL     1       2.279   2.980  20.459  0.00  0.00    +0.000 OA
ATOM     27  O   UNL     1       1.095   4.347  18.714  0.00  0.00    +0.000 OA
BRANCH  25  28
ATOM     28  C   UNL     1       3.694   4.187  18.621  0.00  0.00    +0.000 A 
ATOM     29  C   UNL     1       3.583   4.065  17.232  0.00  0.00    +0.000 A 
ATOM     30  C   UNL     1       4.725   4.174  16.435  0.00  0.00    +0.000 A 
ATOM     31  C   UNL     1       5.964   4.422  17.026  0.00  0.00    +0.000 A 
ATOM     32 CL   UNL     1       7.362   4.589  16.038  0.00  0.00    +0.000 Cl
ATOM     33  C   UNL     1       6.074   4.558  18.411  0.00  0.00    +0.000 A 
ATOM     34  C   UNL     1       4.934   4.445  19.216  0.00  0.00    +0.000 A 
ENDBRANCH  25  28
ENDBRANCH  24  25
ENDBRANCH   2  24
TORSDOF 9
ENDMDL
MODEL 8
REMARK VINA RESULT:      -7.1      6.779      9.570
REMARK  Name = 
REMARK  10 active torsions:
REMARK  status: ('A' for Active; 'I' for Inactive)
REMARK    1  A    between atoms: C_1  and  C_2
REMARK    2  A    between atoms: C_2  and  C_3
REMARK    3  A    between atoms: C_3  and  N_4
REMARK    4  A    between atoms: C_5  and  C_7
REMARK    5  A    between atoms: C_8  and  C_9
REMARK    6  A    between atoms: C_9  and  S_10
REMARK    7  A    between atoms: S_10  and  C_13
REMARK    8  A    between atoms: C_22  and  C_23
REMARK    9  A    between atoms: N_25  and  C_26
REMARK   10  A    between atoms: C_26  and  C_27
REMARK                            x       y       z     vdW  Elec       q    Type
REMARK                         _______ _______ _______ _____ _____    ______ ____
ROOT
ATOM      1  C   UNL     1       4.860   3.924  18.316  0.00  0.00    +0.000 A 
ATOM      2  C   UNL     1       3.962   2.948  18.864  0.00  0.00    +0.000 A 
ATOM      3  N   UNL     1       3.385   2.232  17.891  0.00  0.00    +0.000 NA
ATOM      4  O   UNL     1       3.915   2.685  16.710  0.00  0.00    +0.000 OA
ATOM      5  C   UNL     1       4.776   3.717  16.941  0.00  0.00    +0.000 A 
ENDROOT
BRANCH   1   7
ATOM      6  N   UNL     1       7.063   4.874  18.572  0.00  0.00    +0.000 N 
ATOM      7  C   UNL     1       5.735   4.910  18.923  0.00  0.00    +0.000 C 
ATOM      8  O   UNL     1       5.323   5.687  19.778  0.00  0.00    +0.000 OA
ATOM      9  H   UNL     1       7.435   4.116  18.029  0.00  0.00    +0.000 HD
BRANCH   6  10
ATOM     10  C   UNL     1       8.033   5.730  19.229  0.00  0.00    +0.000 C 
BRANCH  10  12
ATOM     11  C   UNL     1       7.562   7.169  17.188  0.00  0.00    +0.000 C 
ATOM     12  C   UNL     1       8.083   7.130  18.618  0.00  0.00    +0.000 C 
ENDBRANCH  10  12
ENDBRANCH   6  10
ENDBRANCH   1   7
BRANCH   5  13
ATOM     13  C   UNL     1       5.343   4.338  15.753  0.00  0.00    +0.000 C 
ATOM     14  O   UNL     1       5.124   5.508  15.446  0.00  0.00    +0.000 OA
ATOM     15  N   UNL     1       6.194   3.549  15.007  0.00  0.00    +0.000 N 
ATOM     16  H   UNL     1       6.129   2.546  15.118  0.00  0.00    +0.000 HD
BRANCH  15  17
ATOM     17  C   UNL     1       6.767   3.982  13.755  0.00  0.00    +0.000 C 
BRANCH  17  18
ATOM     18  C   UNL     1       6.041   3.339  12.599  0.00  0.00    +0.000 A 
ATOM     19  C   UNL     1       4.774   3.786  12.194  0.00  0.00    +0.000 A 
ATOM     20  C   UNL     1       4.109   3.163  11.134  0.00  0.00    +0.000 A 
ATOM     21  C   UNL     1       4.697   2.085  10.475  0.00  0.00    +0.000 A 
ATOM     22  C   UNL     1       5.948   1.622  10.879  0.00  0.00    +0.000 A 
ATOM     23  C   UNL     1       6.614   2.243  11.937  0.00  0.00    +0.000 A 
ENDBRANCH  17  18
ENDBRANCH  15  17
ENDBRANCH   5  13
BRANCH   2  24
ATOM     24  C   UNL     1       3.573   2.615  20.258  0.00  0.00    +0.000 C 
BRANCH  24  25
ATOM     25  S   UNL     1       2.084   3.404  20.812  0.00  0.00    +0.000 S 
ATOM     26  O   UNL     1       0.954   2.696  20.228  0.00  0.00    +0.000 OA
ATOM     27  O   UNL     1       2.178   3.540  22.254  0.00  0.00    +0.000 OA
BRANCH  25  28
ATOM     28  C   UNL     1       2.088   5.050  20.134  0.00  0.00    +0.000 A 
ATOM     29  C   UNL     1       2.003   5.219  18.747  0.00  0.00    +0.000 A 
ATOM     30  C   UNL     1       1.911   6.505  18.212  0.00  0.00    +0.000 A 
ATOM     31  C   UNL     1       1.887   7.611  19.061  0.00  0.00    +0.000 A 
ATOM     32 CL   UNL     1       1.740   9.192  18.397  0.00  0.00    +0.000 Cl
ATOM     33  C   UNL     1       1.957   7.445  20.445  0.00  0.00    +0.000 A 
ATOM     34  C   UNL     1       2.054   6.158  20.988  0.00  0.00    +0.000 A 
ENDBRANCH  25  28
ENDBRANCH  24  25
ENDBRANCH   2  24
TORSDOF 9
ENDMDL
MODEL 9
REMARK VINA RESULT:      -7.1      4.314      9.089
REMARK  Name = 
REMARK  10 active torsions:
REMARK  status: ('A' for Active; 'I' for Inactive)
REMARK    1  A    between atoms: C_1  and  C_2
REMARK    2  A    between atoms: C_2  and  C_3
REMARK    3  A    between atoms: C_3  and  N_4
REMARK    4  A    between atoms: C_5  and  C_7
REMARK    5  A    between atoms: C_8  and  C_9
REMARK    6  A    between atoms: C_9  and  S_10
REMARK    7  A    between atoms: S_10  and  C_13
REMARK    8  A    between atoms: C_22  and  C_23
REMARK    9  A    between atoms: N_25  and  C_26
REMARK   10  A    between atoms: C_26  and  C_27
REMARK                            x       y       z     vdW  Elec       q    Type
REMARK                         _______ _______ _______ _____ _____    ______ ____
ROOT
ATOM      1  C   UNL     1       1.508   8.401  20.453  0.00  0.00    +0.000 A 
ATOM      2  C   UNL     1       2.022   7.124  20.045  0.00  0.00    +0.000 A 
ATOM      3  N   UNL     1       2.248   7.101  18.726  0.00  0.00    +0.000 NA
ATOM      4  O   UNL     1       1.936   8.352  18.257  0.00  0.00    +0.000 OA
ATOM      5  C   UNL     1       1.463   9.134  19.269  0.00  0.00    +0.000 A 
ENDROOT
BRANCH   1   7
ATOM      6  N   UNL     1      -0.204   9.164  21.972  0.00  0.00    +0.000 N 
ATOM      7  C   UNL     1       1.133   8.946  21.745  0.00  0.00    +0.000 C 
ATOM      8  O   UNL     1       1.981   9.278  22.566  0.00  0.00    +0.000 OA
ATOM      9  H   UNL     1      -0.875   9.080  21.230  0.00  0.00    +0.000 HD
BRANCH   6  10
ATOM     10  C   UNL     1      -0.658   9.830  23.178  0.00  0.00    +0.000 C 
BRANCH  10  12
ATOM     11  C   UNL     1      -0.509  12.090  22.027  0.00  0.00    +0.000 C 
ATOM     12  C   UNL     1      -1.354  11.158  22.885  0.00  0.00    +0.000 C 
ENDBRANCH  10  12
ENDBRANCH   6  10
ENDBRANCH   1   7
BRANCH   5  13
ATOM     13  C   UNL     1       1.020  10.464  18.879  0.00  0.00    +0.000 C 
ATOM     14  O   UNL     1       1.794  11.409  18.742  0.00  0.00    +0.000 OA
ATOM     15  N   UNL     1      -0.327  10.599  18.615  0.00  0.00    +0.000 N 
ATOM     16  H   UNL     1      -0.957   9.906  19.000  0.00  0.00    +0.000 HD
BRANCH  15  17
ATOM     17  C   UNL     1      -0.942  11.867  18.305  0.00  0.00    +0.000 C 
BRANCH  17  18
ATOM     18  C   UNL     1      -2.408  11.674  18.000  0.00  0.00    +0.000 A 
ATOM     19  C   UNL     1      -3.394  11.939  18.961  0.00  0.00    +0.000 A 
ATOM     20  C   UNL     1      -4.745  11.735  18.665  0.00  0.00    +0.000 A 
ATOM     21  C   UNL     1      -5.122  11.256  17.411  0.00  0.00    +0.000 A 
ATOM     22  C   UNL     1      -4.149  10.974  16.454  0.00  0.00    +0.000 A 
ATOM     23  C   UNL     1      -2.800  11.179  16.748  0.00  0.00    +0.000 A 
ENDBRANCH  17  18
ENDBRANCH  15  17
ENDBRANCH   5  13
BRANCH   2  24
ATOM     24  C   UNL     1       2.323   5.879  20.796  0.00  0.00    +0.000 C 
BRANCH  24  25
ATOM     25  S   UNL     1       2.342   4.410  19.802  0.00  0.00    +0.000 S 
ATOM     26  O   UNL     1       2.588   3.275  20.679  0.00  0.00    +0.000 OA
ATOM     27  O   UNL     1       1.147   4.432  18.977  0.00  0.00    +0.000 OA
BRANCH  25  28
ATOM     28  C   UNL     1       3.736   4.546  18.703  0.00  0.00    +0.000 A 
ATOM     29  C   UNL     1       4.978   4.930  19.219  0.00  0.00    +0.000 A 
ATOM     30  C   UNL     1       6.097   4.949  18.384  0.00  0.00    +0.000 A 
ATOM     31  C   UNL     1       5.974   4.569  17.048  0.00  0.00    +0.000 A 
ATOM     32 CL   UNL     1       7.362   4.562  16.032  0.00  0.00    +0.000 Cl
ATOM     33  C   UNL     1       4.738   4.172  16.534  0.00  0.00    +0.000 A 
ATOM     34  C   UNL     1       3.611   4.155  17.365  0.00  0.00    +0.000 A 
ENDBRANCH  25  28
ENDBRANCH  24  25
ENDBRANCH   2  24
TORSDOF 9
ENDMDL
