MODEL 1
REMARK VINA RESULT:      -7.6      0.000      0.000
REMARK  Name = 
REMARK  4 active torsions:
REMARK  status: ('A' for Active; 'I' for Inactive)
REMARK    1  A    between atoms: C_5  and  C_6
REMARK    2  A    between atoms: C_6  and  S_7
REMARK    3  A    between atoms: S_7  and  C_8
REMARK    4  A    between atoms: C_11  and  C_12
REMARK                            x       y       z     vdW  Elec       q    Type
REMARK                         _______ _______ _______ _____ _____    ______ ____
ROOT
ATOM      1  C   UNL     1       6.322   5.134  17.985  0.00  0.00    +0.000 A 
ATOM      2  N   UNL     1       7.510   4.574  18.069  0.00  0.00    +0.000 NA
ATOM      3  N   UNL     1       7.921   4.323  16.777  0.00  0.00    +0.000 NA
ATOM      4  C   UNL     1       6.959   4.745  15.976  0.00  0.00    +0.000 A 
ATOM      5  O   UNL     1       5.905   5.273  16.686  0.00  0.00    +0.000 OA
ENDROOT
BRANCH   4   6
ATOM      6  C   UNL     1       7.016   4.662  14.546  0.00  0.00    +0.000 A 
ATOM      7  C   UNL     1       6.258   3.866  13.700  0.00  0.00    +0.000 A 
ATOM      8  C   UNL     1       6.679   4.132  12.374  0.00  0.00    +0.000 A 
ATOM      9  C   UNL     1       7.671   5.075  12.477  0.00  0.00    +0.000 A 
ATOM     10  O   UNL     1       7.884   5.403  13.778  0.00  0.00    +0.000 OA
ENDBRANCH   4   6
BRANCH   1  11
ATOM     11  S   UNL     1       5.366   5.650  19.344  0.00  0.00    +0.000 S 
BRANCH  11  12
ATOM     12  C   UNL     1       3.785   6.013  18.526  0.00  0.00    +0.000 C 
BRANCH  12  17
ATOM     13  F   UNL     1       0.217   1.633  18.715  0.00  0.00    +0.000 F 
ATOM     14  C   UNL     1       1.067   2.669  18.672  0.00  0.00    +0.000 A 
ATOM     15  C   UNL     1       1.013   3.640  19.662  0.00  0.00    +0.000 A 
ATOM     16  C   UNL     1       1.897   4.722  19.617  0.00  0.00    +0.000 A 
ATOM     17  C   UNL     1       2.835   4.836  18.577  0.00  0.00    +0.000 A 
ATOM     18  C   UNL     1       2.874   3.836  17.589  0.00  0.00    +0.000 A 
ATOM     19  C   UNL     1       1.989   2.756  17.636  0.00  0.00    +0.000 A 
ENDBRANCH  12  17
ENDBRANCH  11  12
ENDBRANCH   1  11
TORSDOF 4
ENDMDL
MODEL 2
REMARK VINA RESULT:      -7.5      1.093      1.656
REMARK  Name = 
REMARK  4 active torsions:
REMARK  status: ('A' for Active; 'I' for Inactive)
REMARK    1  A    between atoms: C_5  and  C_6
REMARK    2  A    between atoms: C_6  and  S_7
REMARK    3  A    between atoms: S_7  and  C_8
REMARK    4  A    between atoms: C_11  and  C_12
REMARK                            x       y       z     vdW  Elec       q    Type
REMARK                         _______ _______ _______ _____ _____    ______ ____
ROOT
ATOM      1  C   UNL     1       6.573   5.281  17.521  0.00  0.00    +0.000 A 
ATOM      2  N   UNL     1       7.443   6.186  17.125  0.00  0.00    +0.000 NA
ATOM      3  N   UNL     1       7.613   6.003  15.769  0.00  0.00    +0.000 NA
ATOM      4  C   UNL     1       6.836   4.995  15.413  0.00  0.00    +0.000 A 
ATOM      5  O   UNL     1       6.144   4.487  16.488  0.00  0.00    +0.000 OA
ENDROOT
BRANCH   4   6
ATOM      6  C   UNL     1       6.730   4.503  14.071  0.00  0.00    +0.000 A 
ATOM      7  C   UNL     1       7.523   4.814  12.977  0.00  0.00    +0.000 A 
ATOM      8  C   UNL     1       7.029   4.082  11.870  0.00  0.00    +0.000 A 
ATOM      9  C   UNL     1       5.961   3.362  12.344  0.00  0.00    +0.000 A 
ATOM     10  O   UNL     1       5.770   3.606  13.667  0.00  0.00    +0.000 OA
ENDBRANCH   4   6
BRANCH   1  11
ATOM     11  S   UNL     1       6.010   5.090  19.156  0.00  0.00    +0.000 S 
BRANCH  11  12
ATOM     12  C   UNL     1       4.402   5.931  19.060  0.00  0.00    +0.000 C 
BRANCH  12  17
ATOM     13  F   UNL     1       0.128   2.250  18.687  0.00  0.00    +0.000 F 
ATOM     14  C   UNL     1       1.138   3.126  18.775  0.00  0.00    +0.000 A 
ATOM     15  C   UNL     1       1.889   3.422  17.646  0.00  0.00    +0.000 A 
ATOM     16  C   UNL     1       2.944   4.334  17.737  0.00  0.00    +0.000 A 
ATOM     17  C   UNL     1       3.253   4.950  18.962  0.00  0.00    +0.000 A 
ATOM     18  C   UNL     1       2.475   4.638  20.091  0.00  0.00    +0.000 A 
ATOM     19  C   UNL     1       1.420   3.726  19.997  0.00  0.00    +0.000 A 
ENDBRANCH  12  17
ENDBRANCH  11  12
ENDBRANCH   1  11
TORSDOF 4
ENDMDL
MODEL 3
REMARK VINA RESULT:      -7.4      1.701      2.038
REMARK  Name = 
REMARK  4 active torsions:
REMARK  status: ('A' for Active; 'I' for Inactive)
REMARK    1  A    between atoms: C_5  and  C_6
REMARK    2  A    between atoms: C_6  and  S_7
REMARK    3  A    between atoms: S_7  and  C_8
REMARK    4  A    between atoms: C_11  and  C_12
REMARK                            x       y       z     vdW  Elec       q    Type
REMARK                         _______ _______ _______ _____ _____    ______ ____
ROOT
ATOM      1  C   UNL     1       6.667   5.071  16.244  0.00  0.00    +0.000 A 
ATOM      2  N   UNL     1       7.551   5.718  15.513  0.00  0.00    +0.000 NA
ATOM      3  N   UNL     1       7.403   5.264  14.219  0.00  0.00    +0.000 NA
ATOM      4  C   UNL     1       6.434   4.364  14.233  0.00  0.00    +0.000 A 
ATOM      5  O   UNL     1       5.922   4.192  15.499  0.00  0.00    +0.000 OA
ENDROOT
BRANCH   4   6
ATOM      6  C   UNL     1       5.979   3.663  13.070  0.00  0.00    +0.000 A 
ATOM      7  C   UNL     1       4.723   3.699  12.480  0.00  0.00    +0.000 A 
ATOM      8  C   UNL     1       4.754   2.838  11.356  0.00  0.00    +0.000 A 
ATOM      9  C   UNL     1       6.025   2.320  11.316  0.00  0.00    +0.000 A 
ATOM     10  O   UNL     1       6.772   2.808  12.341  0.00  0.00    +0.000 OA
ENDBRANCH   4   6
BRANCH   1  11
ATOM     11  S   UNL     1       6.443   5.285  17.955  0.00  0.00    +0.000 S 
BRANCH  11  12
ATOM     12  C   UNL     1       4.744   5.928  17.995  0.00  0.00    +0.000 C 
BRANCH  12  17
ATOM     13  F   UNL     1       0.919   1.804  18.555  0.00  0.00    +0.000 F 
ATOM     14  C   UNL     1       1.826   2.783  18.427  0.00  0.00    +0.000 A 
ATOM     15  C   UNL     1       1.416   4.049  18.033  0.00  0.00    +0.000 A 
ATOM     16  C   UNL     1       2.361   5.069  17.897  0.00  0.00    +0.000 A 
ATOM     17  C   UNL     1       3.721   4.823  18.151  0.00  0.00    +0.000 A 
ATOM     18  C   UNL     1       4.111   3.534  18.555  0.00  0.00    +0.000 A 
ATOM     19  C   UNL     1       3.164   2.515  18.690  0.00  0.00    +0.000 A 
ENDBRANCH  12  17
ENDBRANCH  11  12
ENDBRANCH   1  11
TORSDOF 4
ENDMDL
MODEL 4
REMARK VINA RESULT:      -7.4      1.602      2.189
REMARK  Name = 
REMARK  4 active torsions:
REMARK  status: ('A' for Active; 'I' for Inactive)
REMARK    1  A    between atoms: C_5  and  C_6
REMARK    2  A    between atoms: C_6  and  S_7
REMARK    3  A    between atoms: S_7  and  C_8
REMARK    4  A    between atoms: C_11  and  C_12
REMARK                            x       y       z     vdW  Elec       q    Type
REMARK                         _______ _______ _______ _____ _____    ______ ____
ROOT
ATOM      1  C   UNL     1       6.417   5.182  16.350  0.00  0.00    +0.000 A 
ATOM      2  N   UNL     1       7.445   5.699  15.710  0.00  0.00    +0.000 NA
ATOM      3  N   UNL     1       7.402   5.202  14.425  0.00  0.00    +0.000 NA
ATOM      4  C   UNL     1       6.348   4.408  14.352  0.00  0.00    +0.000 A 
ATOM      5  O   UNL     1       5.675   4.349  15.550  0.00  0.00    +0.000 OA
ENDROOT
BRANCH   4   6
ATOM      6  C   UNL     1       5.960   3.703  13.166  0.00  0.00    +0.000 A 
ATOM      7  C   UNL     1       4.716   3.672  12.552  0.00  0.00    +0.000 A 
ATOM      8  C   UNL     1       4.823   2.837  11.413  0.00  0.00    +0.000 A 
ATOM      9  C   UNL     1       6.125   2.401  11.389  0.00  0.00    +0.000 A 
ATOM     10  O   UNL     1       6.820   2.914  12.438  0.00  0.00    +0.000 OA
ENDBRANCH   4   6
BRANCH   1  11
ATOM     11  S   UNL     1       6.017   5.499  18.013  0.00  0.00    +0.000 S 
BRANCH  11  12
ATOM     12  C   UNL     1       4.386   6.276  17.825  0.00  0.00    +0.000 C 
BRANCH  12  17
ATOM     13  F   UNL     1       0.275   3.107  20.064  0.00  0.00    +0.000 F 
ATOM     14  C   UNL     1       1.247   3.862  19.532  0.00  0.00    +0.000 A 
ATOM     15  C   UNL     1       1.588   3.700  18.197  0.00  0.00    +0.000 A 
ATOM     16  C   UNL     1       2.602   4.485  17.642  0.00  0.00    +0.000 A 
ATOM     17  C   UNL     1       3.282   5.433  18.427  0.00  0.00    +0.000 A 
ATOM     18  C   UNL     1       2.915   5.583  19.775  0.00  0.00    +0.000 A 
ATOM     19  C   UNL     1       1.900   4.797  20.327  0.00  0.00    +0.000 A 
ENDBRANCH  12  17
ENDBRANCH  11  12
ENDBRANCH   1  11
TORSDOF 4
ENDMDL
MODEL 5
REMARK VINA RESULT:      -7.3      1.022      1.192
REMARK  Name = 
REMARK  4 active torsions:
REMARK  status: ('A' for Active; 'I' for Inactive)
REMARK    1  A    between atoms: C_5  and  C_6
REMARK    2  A    between atoms: C_6  and  S_7
REMARK    3  A    between atoms: S_7  and  C_8
REMARK    4  A    between atoms: C_11  and  C_12
REMARK                            x       y       z     vdW  Elec       q    Type
REMARK                         _______ _______ _______ _____ _____    ______ ____
ROOT
ATOM      1  C   UNL     1       6.441   5.454  17.589  0.00  0.00    +0.000 A 
ATOM      2  N   UNL     1       7.330   6.351  17.216  0.00  0.00    +0.000 NA
ATOM      3  N   UNL     1       7.574   6.132  15.876  0.00  0.00    +0.000 NA
ATOM      4  C   UNL     1       6.819   5.112  15.506  0.00  0.00    +0.000 A 
ATOM      5  O   UNL     1       6.071   4.630  16.556  0.00  0.00    +0.000 OA
ENDROOT
BRANCH   4   6
ATOM      6  C   UNL     1       6.788   4.584  14.175  0.00  0.00    +0.000 A 
ATOM      7  C   UNL     1       7.537   4.977  13.076  0.00  0.00    +0.000 A 
ATOM      8  C   UNL     1       7.152   4.164  11.982  0.00  0.00    +0.000 A 
ATOM      9  C   UNL     1       6.187   3.316  12.468  0.00  0.00    +0.000 A 
ATOM     10  O   UNL     1       5.958   3.558  13.785  0.00  0.00    +0.000 OA
ENDBRANCH   4   6
BRANCH   1  11
ATOM     11  S   UNL     1       5.792   5.304  19.195  0.00  0.00    +0.000 S 
BRANCH  11  12
ATOM     12  C   UNL     1       4.134   6.008  18.955  0.00  0.00    +0.000 C 
BRANCH  12  17
ATOM     13  F   UNL     1       0.124   2.029  18.747  0.00  0.00    +0.000 F 
ATOM     14  C   UNL     1       1.077   2.969  18.798  0.00  0.00    +0.000 A 
ATOM     15  C   UNL     1       1.079   3.888  19.838  0.00  0.00    +0.000 A 
ATOM     16  C   UNL     1       2.071   4.870  19.891  0.00  0.00    +0.000 A 
ATOM     17  C   UNL     1       3.064   4.937  18.899  0.00  0.00    +0.000 A 
ATOM     18  C   UNL     1       3.046   3.992  17.859  0.00  0.00    +0.000 A 
ATOM     19  C   UNL     1       2.052   3.011  17.808  0.00  0.00    +0.000 A 
ENDBRANCH  12  17
ENDBRANCH  11  12
ENDBRANCH   1  11
TORSDOF 4
ENDMDL
MODEL 6
REMARK VINA RESULT:      -7.3      1.594      1.876
REMARK  Name = 
REMARK  4 active torsions:
REMARK  status: ('A' for Active; 'I' for Inactive)
REMARK    1  A    between atoms: C_5  and  C_6
REMARK    2  A    between atoms: C_6  and  S_7
REMARK    3  A    between atoms: S_7  and  C_8
REMARK    4  A    between atoms: C_11  and  C_12
REMARK                            x       y       z     vdW  Elec       q    Type
REMARK                         _______ _______ _______ _____ _____    ______ ____
ROOT
ATOM      1  C   UNL     1       5.998   5.711  16.228  0.00  0.00    +0.000 A 
ATOM      2  N   UNL     1       7.242   5.960  15.876  0.00  0.00    +0.000 NA
ATOM      3  N   UNL     1       7.463   5.279  14.697  0.00  0.00    +0.000 NA
ATOM      4  C   UNL     1       6.339   4.653  14.395  0.00  0.00    +0.000 A 
ATOM      5  O   UNL     1       5.362   4.886  15.335  0.00  0.00    +0.000 OA
ENDROOT
BRANCH   4   6
ATOM      6  C   UNL     1       6.168   3.838  13.229  0.00  0.00    +0.000 A 
ATOM      7  C   UNL     1       4.986   3.377  12.667  0.00  0.00    +0.000 A 
ATOM      8  C   UNL     1       5.326   2.608  11.528  0.00  0.00    +0.000 A 
ATOM      9  C   UNL     1       6.696   2.638  11.451  0.00  0.00    +0.000 A 
ATOM     10  O   UNL     1       7.216   3.374  12.468  0.00  0.00    +0.000 OA
ENDBRANCH   4   6
BRANCH   1  11
ATOM     11  S   UNL     1       5.221   6.341  17.651  0.00  0.00    +0.000 S 
BRANCH  11  12
ATOM     12  C   UNL     1       5.207   4.865  18.709  0.00  0.00    +0.000 C 
BRANCH  12  17
ATOM     13  F   UNL     1       0.188   2.264  18.679  0.00  0.00    +0.000 F 
ATOM     14  C   UNL     1       1.379   2.878  18.682  0.00  0.00    +0.000 A 
ATOM     15  C   UNL     1       2.401   2.387  19.482  0.00  0.00    +0.000 A 
ATOM     16  C   UNL     1       3.643   3.029  19.488  0.00  0.00    +0.000 A 
ATOM     17  C   UNL     1       3.863   4.167  18.694  0.00  0.00    +0.000 A 
ATOM     18  C   UNL     1       2.815   4.642  17.887  0.00  0.00    +0.000 A 
ATOM     19  C   UNL     1       1.574   3.999  17.883  0.00  0.00    +0.000 A 
ENDBRANCH  12  17
ENDBRANCH  11  12
ENDBRANCH   1  11
TORSDOF 4
ENDMDL
MODEL 7
REMARK VINA RESULT:      -7.2      2.374      3.157
REMARK  Name = 
REMARK  4 active torsions:
REMARK  status: ('A' for Active; 'I' for Inactive)
REMARK    1  A    between atoms: C_5  and  C_6
REMARK    2  A    between atoms: C_6  and  S_7
REMARK    3  A    between atoms: S_7  and  C_8
REMARK    4  A    between atoms: C_11  and  C_12
REMARK                            x       y       z     vdW  Elec       q    Type
REMARK                         _______ _______ _______ _____ _____    ______ ____
ROOT
ATOM      1  C   UNL     1       5.965   4.403  18.044  0.00  0.00    +0.000 A 
ATOM      2  N   UNL     1       7.271   4.484  18.190  0.00  0.00    +0.000 NA
ATOM      3  N   UNL     1       7.807   4.553  16.921  0.00  0.00    +0.000 NA
ATOM      4  C   UNL     1       6.796   4.510  16.071  0.00  0.00    +0.000 A 
ATOM      5  O   UNL     1       5.589   4.412  16.724  0.00  0.00    +0.000 OA
ENDROOT
BRANCH   4   6
ATOM      6  C   UNL     1       6.947   4.565  14.647  0.00  0.00    +0.000 A 
ATOM      7  C   UNL     1       6.261   3.842  13.681  0.00  0.00    +0.000 A 
ATOM      8  C   UNL     1       6.761   4.238  12.416  0.00  0.00    +0.000 A 
ATOM      9  C   UNL     1       7.726   5.180  12.673  0.00  0.00    +0.000 A 
ATOM     10  O   UNL     1       7.848   5.386  14.011  0.00  0.00    +0.000 OA
ENDBRANCH   4   6
BRANCH   1  11
ATOM     11  S   UNL     1       4.822   4.297  19.351  0.00  0.00    +0.000 S 
BRANCH  11  12
ATOM     12  C   UNL     1       3.271   4.646  18.472  0.00  0.00    +0.000 C 
BRANCH  12  17
ATOM     13  F   UNL     1       1.210   9.763  19.707  0.00  0.00    +0.000 F 
ATOM     14  C   UNL     1       1.703   8.551  19.416  0.00  0.00    +0.000 A 
ATOM     15  C   UNL     1       2.216   8.305  18.150  0.00  0.00    +0.000 A 
ATOM     16  C   UNL     1       2.728   7.041  17.846  0.00  0.00    +0.000 A 
ATOM     17  C   UNL     1       2.723   6.017  18.808  0.00  0.00    +0.000 A 
ATOM     18  C   UNL     1       2.204   6.291  20.085  0.00  0.00    +0.000 A 
ATOM     19  C   UNL     1       1.692   7.556  20.387  0.00  0.00    +0.000 A 
ENDBRANCH  12  17
ENDBRANCH  11  12
ENDBRANCH   1  11
TORSDOF 4
ENDMDL
MODEL 8
REMARK VINA RESULT:      -7.2      1.709      2.051
REMARK  Name = 
REMARK  4 active torsions:
REMARK  status: ('A' for Active; 'I' for Inactive)
REMARK    1  A    between atoms: C_5  and  C_6
REMARK    2  A    between atoms: C_6  and  S_7
REMARK    3  A    between atoms: S_7  and  C_8
REMARK    4  A    between atoms: C_11  and  C_12
REMARK                            x       y       z     vdW  Elec       q    Type
REMARK                         _______ _______ _______ _____ _____    ______ ____
ROOT
ATOM      1  C   UNL     1       6.421   5.005  17.016  0.00  0.00    +0.000 A 
ATOM      2  N   UNL     1       7.494   5.595  16.534  0.00  0.00    +0.000 NA
ATOM      3  N   UNL     1       7.557   5.268  15.195  0.00  0.00    +0.000 NA
ATOM      4  C   UNL     1       6.515   4.496  14.936  0.00  0.00    +0.000 A 
ATOM      5  O   UNL     1       5.749   4.288  16.059  0.00  0.00    +0.000 OA
ENDROOT
BRANCH   4   6
ATOM      6  C   UNL     1       6.227   3.953  13.642  0.00  0.00    +0.000 A 
ATOM      7  C   UNL     1       4.988   3.694  13.075  0.00  0.00    +0.000 A 
ATOM      8  C   UNL     1       5.212   3.158  11.784  0.00  0.00    +0.000 A 
ATOM      9  C   UNL     1       6.576   3.117  11.627  0.00  0.00    +0.000 A 
ATOM     10  O   UNL     1       7.198   3.592  12.738  0.00  0.00    +0.000 OA
ENDBRANCH   4   6
BRANCH   1  11
ATOM     11  S   UNL     1       5.888   5.107  18.669  0.00  0.00    +0.000 S 
BRANCH  11  12
ATOM     12  C   UNL     1       4.123   5.469  18.432  0.00  0.00    +0.000 C 
BRANCH  12  17
ATOM     13  F   UNL     1       0.875   2.499  21.981  0.00  0.00    +0.000 F 
ATOM     14  C   UNL     1       1.642   3.202  21.136  0.00  0.00    +0.000 A 
ATOM     15  C   UNL     1       2.863   2.684  20.727  0.00  0.00    +0.000 A 
ATOM     16  C   UNL     1       3.665   3.416  19.848  0.00  0.00    +0.000 A 
ATOM     17  C   UNL     1       3.248   4.674  19.378  0.00  0.00    +0.000 A 
ATOM     18  C   UNL     1       2.004   5.175  19.801  0.00  0.00    +0.000 A 
ATOM     19  C   UNL     1       1.204   4.440  20.680  0.00  0.00    +0.000 A 
ENDBRANCH  12  17
ENDBRANCH  11  12
ENDBRANCH   1  11
TORSDOF 4
ENDMDL
MODEL 9
REMARK VINA RESULT:      -7.1      2.260      2.864
REMARK  Name = 
REMARK  4 active torsions:
REMARK  status: ('A' for Active; 'I' for Inactive)
REMARK    1  A    between atoms: C_5  and  C_6
REMARK    2  A    between atoms: C_6  and  S_7
REMARK    3  A    between atoms: S_7  and  C_8
REMARK    4  A    between atoms: C_11  and  C_12
REMARK                            x       y       z     vdW  Elec       q    Type
REMARK                         _______ _______ _______ _____ _____    ______ ____
ROOT
ATOM      1  C   UNL     1       5.713   4.114  18.089  0.00  0.00    +0.000 A 
ATOM      2  N   UNL     1       6.859   4.719  18.320  0.00  0.00    +0.000 NA
ATOM      3  N   UNL     1       7.434   4.960  17.089  0.00  0.00    +0.000 NA
ATOM      4  C   UNL     1       6.603   4.489  16.175  0.00  0.00    +0.000 A 
ATOM      5  O   UNL     1       5.484   3.932  16.748  0.00  0.00    +0.000 OA
ENDROOT
BRANCH   4   6
ATOM      6  C   UNL     1       6.847   4.557  14.765  0.00  0.00    +0.000 A 
ATOM      7  C   UNL     1       6.241   3.829  13.751  0.00  0.00    +0.000 A 
ATOM      8  C   UNL     1       6.815   4.245  12.525  0.00  0.00    +0.000 A 
ATOM      9  C   UNL     1       7.741   5.204  12.851  0.00  0.00    +0.000 A 
ATOM     10  O   UNL     1       7.771   5.401  14.195  0.00  0.00    +0.000 OA
ENDBRANCH   4   6
BRANCH   1  11
ATOM     11  S   UNL     1       4.596   3.595  19.317  0.00  0.00    +0.000 S 
BRANCH  11  12
ATOM     12  C   UNL     1       3.016   4.088  18.567  0.00  0.00    +0.000 C 
BRANCH  12  17
ATOM     13  F   UNL     1       1.411   9.241  20.250  0.00  0.00    +0.000 F 
ATOM     14  C   UNL     1       1.787   8.019  19.848  0.00  0.00    +0.000 A 
ATOM     15  C   UNL     1       1.572   6.928  20.678  0.00  0.00    +0.000 A 
ATOM     16  C   UNL     1       1.966   5.654  20.262  0.00  0.00    +0.000 A 
ATOM     17  C   UNL     1       2.583   5.469  19.012  0.00  0.00    +0.000 A 
ATOM     18  C   UNL     1       2.785   6.588  18.186  0.00  0.00    +0.000 A 
ATOM     19  C   UNL     1       2.389   7.861  18.605  0.00  0.00    +0.000 A 
ENDBRANCH  12  17
ENDBRANCH  11  12
ENDBRANCH   1  11
TORSDOF 4
ENDMDL
