MODEL 1
REMARK VINA RESULT:      -8.5      0.000      0.000
REMARK  Name = 
REMARK  3 active torsions:
REMARK  status: ('A' for Active; 'I' for Inactive)
REMARK    1  A    between atoms: C_2  and  C_17
REMARK    2  A    between atoms: N_3  and  C_4
REMARK    3  A    between atoms: C_6  and  C_7
REMARK                            x       y       z     vdW  Elec       q    Type
REMARK                         _______ _______ _______ _____ _____    ______ ____
ROOT
ATOM      1  O   UNL     1       2.325   7.871  17.988  0.00  0.00    +0.000 OA
ATOM      2  C   UNL     1       2.207   7.701  19.200  0.00  0.00    +0.000 C 
ATOM      3  N   UNL     1       2.804   6.636  19.859  0.00  0.00    +0.000 N 
ATOM      4  H   UNL     1       2.527   6.460  20.821  0.00  0.00    +0.000 HD
ENDROOT
BRANCH   2   5
ATOM      5  C   UNL     1       1.403   8.591  20.029  0.00  0.00    +0.000 A 
ATOM      6  S   UNL     1       0.780   8.081  21.537  0.00  0.00    +0.000 S 
ATOM      7  C   UNL     1       0.052   9.602  21.856  0.00  0.00    +0.000 A 
ATOM      8  C   UNL     1      -0.682   9.960  23.004  0.00  0.00    +0.000 A 
ATOM      9  C   UNL     1      -1.208  11.249  23.096  0.00  0.00    +0.000 A 
ATOM     10  C   UNL     1      -1.014  12.164  22.073  0.00  0.00    +0.000 A 
ATOM     11  C   UNL     1      -0.284  11.805  20.937  0.00  0.00    +0.000 A 
ATOM     12  C   UNL     1       0.267  10.502  20.813  0.00  0.00    +0.000 A 
ATOM     13  C   UNL     1       1.050   9.901  19.766  0.00  0.00    +0.000 A 
ATOM     14 CL   UNL     1       1.472  10.798  18.354  0.00  0.00    +0.000 Cl
ENDBRANCH   2   5
BRANCH   3  15
ATOM     15  C   UNL     1       3.659   5.673  19.285  0.00  0.00    +0.000 A 
ATOM     16  C   UNL     1       5.038   5.865  19.066  0.00  0.00    +0.000 A 
ATOM     17  C   UNL     1       5.894   4.907  18.453  0.00  0.00    +0.000 A 
ATOM     18  C   UNL     1       5.416   3.655  18.013  0.00  0.00    +0.000 A 
ATOM     19  C   UNL     1       4.044   3.386  18.237  0.00  0.00    +0.000 A 
ATOM     20  N   UNL     1       3.404   2.255  17.907  0.00  0.00    +0.000 NA
ATOM     21  S   UNL     1       1.824   2.451  18.384  0.00  0.00    +0.000 S 
ATOM     22  N   UNL     1       1.878   3.982  19.030  0.00  0.00    +0.000 NA
ATOM     23  C   UNL     1       3.148   4.405  18.893  0.00  0.00    +0.000 A 
BRANCH  17  24
ATOM     24  C   UNL     1       7.362   5.246  18.266  0.00  0.00    +0.000 C 
ATOM     25  F   UNL     1       7.579   6.371  17.532  0.00  0.00    +0.000 F 
ATOM     26  F   UNL     1       7.995   5.449  19.454  0.00  0.00    +0.000 F 
ATOM     27  F   UNL     1       8.045   4.251  17.638  0.00  0.00    +0.000 F 
ENDBRANCH  17  24
ENDBRANCH   3  15
TORSDOF 3
ENDMDL
MODEL 2
REMARK VINA RESULT:      -8.4      2.063      2.623
REMARK  Name = 
REMARK  3 active torsions:
REMARK  status: ('A' for Active; 'I' for Inactive)
REMARK    1  A    between atoms: C_2  and  C_17
REMARK    2  A    between atoms: N_3  and  C_4
REMARK    3  A    between atoms: C_6  and  C_7
REMARK                            x       y       z     vdW  Elec       q    Type
REMARK                         _______ _______ _______ _____ _____    ______ ____
ROOT
ATOM      1  O   UNL     1       1.204   8.945  17.697  0.00  0.00    +0.000 OA
ATOM      2  C   UNL     1       1.396   8.932  18.910  0.00  0.00    +0.000 C 
ATOM      3  N   UNL     1       2.077   7.901  19.541  0.00  0.00    +0.000 N 
ATOM      4  H   UNL     1       2.050   7.868  20.557  0.00  0.00    +0.000 HD
ENDROOT
BRANCH   2   5
ATOM      5  C   UNL     1       0.893   9.988  19.782  0.00  0.00    +0.000 A 
ATOM      6  S   UNL     1       1.219  11.636  19.463  0.00  0.00    +0.000 S 
ATOM      7  C   UNL     1       0.314  12.174  20.818  0.00  0.00    +0.000 A 
ATOM      8  C   UNL     1       0.108  13.509  21.217  0.00  0.00    +0.000 A 
ATOM      9  C   UNL     1      -0.659  13.764  22.354  0.00  0.00    +0.000 A 
ATOM     10  C   UNL     1      -1.209  12.721  23.082  0.00  0.00    +0.000 A 
ATOM     11  C   UNL     1      -1.004  11.399  22.681  0.00  0.00    +0.000 A 
ATOM     12  C   UNL     1      -0.231  11.104  21.528  0.00  0.00    +0.000 A 
ATOM     13  C   UNL     1       0.113   9.848  20.914  0.00  0.00    +0.000 A 
ATOM     14 CL   UNL     1      -0.438   8.358  21.585  0.00  0.00    +0.000 Cl
ENDBRANCH   2   5
BRANCH   3  15
ATOM     15  C   UNL     1       2.690   6.799  18.911  0.00  0.00    +0.000 A 
ATOM     16  C   UNL     1       3.608   6.902  17.847  0.00  0.00    +0.000 A 
ATOM     17  C   UNL     1       4.201   5.788  17.187  0.00  0.00    +0.000 A 
ATOM     18  C   UNL     1       3.911   4.459  17.563  0.00  0.00    +0.000 A 
ATOM     19  C   UNL     1       3.021   4.288  18.651  0.00  0.00    +0.000 A 
ATOM     20  N   UNL     1       2.631   3.114  19.166  0.00  0.00    +0.000 NA
ATOM     21  S   UNL     1       1.593   3.468  20.415  0.00  0.00    +0.000 S 
ATOM     22  N   UNL     1       1.589   5.129  20.359  0.00  0.00    +0.000 NA
ATOM     23  C   UNL     1       2.405   5.475  19.347  0.00  0.00    +0.000 A 
BRANCH  17  24
ATOM     24  C   UNL     1       5.168   6.039  16.045  0.00  0.00    +0.000 C 
ATOM     25  F   UNL     1       5.356   4.963  15.234  0.00  0.00    +0.000 F 
ATOM     26  F   UNL     1       4.749   7.048  15.232  0.00  0.00    +0.000 F 
ATOM     27  F   UNL     1       6.404   6.398  16.485  0.00  0.00    +0.000 F 
ENDBRANCH  17  24
ENDBRANCH   3  15
TORSDOF 3
ENDMDL
MODEL 3
REMARK VINA RESULT:      -8.3      0.978      1.347
REMARK  Name = 
REMARK  3 active torsions:
REMARK  status: ('A' for Active; 'I' for Inactive)
REMARK    1  A    between atoms: C_2  and  C_17
REMARK    2  A    between atoms: N_3  and  C_4
REMARK    3  A    between atoms: C_6  and  C_7
REMARK                            x       y       z     vdW  Elec       q    Type
REMARK                         _______ _______ _______ _____ _____    ______ ____
ROOT
ATOM      1  O   UNL     1       2.243   8.514  17.645  0.00  0.00    +0.000 OA
ATOM      2  C   UNL     1       2.019   8.162  18.801  0.00  0.00    +0.000 C 
ATOM      3  N   UNL     1       2.413   6.923  19.287  0.00  0.00    +0.000 N 
ATOM      4  H   UNL     1       2.048   6.631  20.190  0.00  0.00    +0.000 HD
ENDROOT
BRANCH   2   5
ATOM      5  C   UNL     1       1.293   9.010  19.739  0.00  0.00    +0.000 A 
ATOM      6  S   UNL     1       0.583   8.366  21.154  0.00  0.00    +0.000 S 
ATOM      7  C   UNL     1       0.012   9.898  21.677  0.00  0.00    +0.000 A 
ATOM      8  C   UNL     1      -0.708  10.170  22.857  0.00  0.00    +0.000 A 
ATOM      9  C   UNL     1      -1.097  11.484  23.123  0.00  0.00    +0.000 A 
ATOM     10  C   UNL     1      -0.782  12.505  22.241  0.00  0.00    +0.000 A 
ATOM     11  C   UNL     1      -0.066  12.230  21.073  0.00  0.00    +0.000 A 
ATOM     12  C   UNL     1       0.347  10.906  20.773  0.00  0.00    +0.000 A 
ATOM     13  C   UNL     1       1.088  10.375  19.659  0.00  0.00    +0.000 A 
ATOM     14 CL   UNL     1       1.637  11.408  18.392  0.00  0.00    +0.000 Cl
ENDBRANCH   2   5
BRANCH   3  15
ATOM     15  C   UNL     1       3.162   5.953  18.589  0.00  0.00    +0.000 A 
ATOM     16  C   UNL     1       4.403   6.202  17.970  0.00  0.00    +0.000 A 
ATOM     17  C   UNL     1       5.142   5.232  17.234  0.00  0.00    +0.000 A 
ATOM     18  C   UNL     1       4.677   3.910  17.070  0.00  0.00    +0.000 A 
ATOM     19  C   UNL     1       3.451   3.586  17.699  0.00  0.00    +0.000 A 
ATOM     20  N   UNL     1       2.850   2.388  17.673  0.00  0.00    +0.000 NA
ATOM     21  S   UNL     1       1.452   2.543  18.557  0.00  0.00    +0.000 S 
ATOM     22  N   UNL     1       1.542   4.139  19.012  0.00  0.00    +0.000 NA
ATOM     23  C   UNL     1       2.680   4.619  18.481  0.00  0.00    +0.000 A 
BRANCH  17  24
ATOM     24  C   UNL     1       6.464   5.635  16.607  0.00  0.00    +0.000 C 
ATOM     25  F   UNL     1       7.518   4.874  17.007  0.00  0.00    +0.000 F 
ATOM     26  F   UNL     1       6.434   5.545  15.249  0.00  0.00    +0.000 F 
ATOM     27  F   UNL     1       6.799   6.922  16.894  0.00  0.00    +0.000 F 
ENDBRANCH  17  24
ENDBRANCH   3  15
TORSDOF 3
ENDMDL
MODEL 4
REMARK VINA RESULT:      -8.2      1.738      2.090
REMARK  Name = 
REMARK  3 active torsions:
REMARK  status: ('A' for Active; 'I' for Inactive)
REMARK    1  A    between atoms: C_2  and  C_17
REMARK    2  A    between atoms: N_3  and  C_4
REMARK    3  A    between atoms: C_6  and  C_7
REMARK                            x       y       z     vdW  Elec       q    Type
REMARK                         _______ _______ _______ _____ _____    ______ ____
ROOT
ATOM      1  O   UNL     1       1.478   8.807  17.822  0.00  0.00    +0.000 OA
ATOM      2  C   UNL     1       1.524   8.717  19.046  0.00  0.00    +0.000 C 
ATOM      3  N   UNL     1       2.145   7.655  19.687  0.00  0.00    +0.000 N 
ATOM      4  H   UNL     1       1.998   7.555  20.688  0.00  0.00    +0.000 HD
ENDROOT
BRANCH   2   5
ATOM      5  C   UNL     1       0.901   9.707  19.917  0.00  0.00    +0.000 A 
ATOM      6  S   UNL     1      -0.084   9.239  21.234  0.00  0.00    +0.000 S 
ATOM      7  C   UNL     1      -0.363  10.861  21.722  0.00  0.00    +0.000 A 
ATOM      8  C   UNL     1      -1.132  11.288  22.822  0.00  0.00    +0.000 A 
ATOM      9  C   UNL     1      -1.254  12.656  23.070  0.00  0.00    +0.000 A 
ATOM     10  C   UNL     1      -0.631  13.581  22.248  0.00  0.00    +0.000 A 
ATOM     11  C   UNL     1       0.133  13.152  21.159  0.00  0.00    +0.000 A 
ATOM     12  C   UNL     1       0.280  11.768  20.879  0.00  0.00    +0.000 A 
ATOM     13  C   UNL     1       1.006  11.083  19.842  0.00  0.00    +0.000 A 
ATOM     14 CL   UNL     1       1.901  11.967  18.662  0.00  0.00    +0.000 Cl
ENDBRANCH   2   5
BRANCH   3  15
ATOM     15  C   UNL     1       2.851   6.604  19.067  0.00  0.00    +0.000 A 
ATOM     16  C   UNL     1       3.655   6.755  17.920  0.00  0.00    +0.000 A 
ATOM     17  C   UNL     1       4.339   5.688  17.271  0.00  0.00    +0.000 A 
ATOM     18  C   UNL     1       4.267   4.361  17.745  0.00  0.00    +0.000 A 
ATOM     19  C   UNL     1       3.502   4.147  18.918  0.00  0.00    +0.000 A 
ATOM     20  N   UNL     1       3.322   2.969  19.531  0.00  0.00    +0.000 NA
ATOM     21  S   UNL     1       2.352   3.266  20.847  0.00  0.00    +0.000 S 
ATOM     22  N   UNL     1       2.113   4.905  20.700  0.00  0.00    +0.000 NA
ATOM     23  C   UNL     1       2.788   5.286  19.600  0.00  0.00    +0.000 A 
BRANCH  17  24
ATOM     24  C   UNL     1       5.165   5.988  16.034  0.00  0.00    +0.000 C 
ATOM     25  F   UNL     1       5.158   4.988  15.111  0.00  0.00    +0.000 F 
ATOM     26  F   UNL     1       4.724   7.098  15.382  0.00  0.00    +0.000 F 
ATOM     27  F   UNL     1       6.473   6.216  16.329  0.00  0.00    +0.000 F 
ENDBRANCH  17  24
ENDBRANCH   3  15
TORSDOF 3
ENDMDL
MODEL 5
REMARK VINA RESULT:      -8.2      1.611      1.974
REMARK  Name = 
REMARK  3 active torsions:
REMARK  status: ('A' for Active; 'I' for Inactive)
REMARK    1  A    between atoms: C_2  and  C_17
REMARK    2  A    between atoms: N_3  and  C_4
REMARK    3  A    between atoms: C_6  and  C_7
REMARK                            x       y       z     vdW  Elec       q    Type
REMARK                         _______ _______ _______ _____ _____    ______ ____
ROOT
ATOM      1  O   UNL     1       2.413   8.564  17.230  0.00  0.00    +0.000 OA
ATOM      2  C   UNL     1       2.182   8.295  18.406  0.00  0.00    +0.000 C 
ATOM      3  N   UNL     1       2.541   7.080  18.972  0.00  0.00    +0.000 N 
ATOM      4  H   UNL     1       2.169   6.859  19.892  0.00  0.00    +0.000 HD
ENDROOT
BRANCH   2   5
ATOM      5  C   UNL     1       1.482   9.224  19.287  0.00  0.00    +0.000 A 
ATOM      6  S   UNL     1       1.191  10.843  18.821  0.00  0.00    +0.000 S 
ATOM      7  C   UNL     1       0.357  11.209  20.275  0.00  0.00    +0.000 A 
ATOM      8  C   UNL     1      -0.225  12.444  20.624  0.00  0.00    +0.000 A 
ATOM      9  C   UNL     1      -0.866  12.564  21.858  0.00  0.00    +0.000 A 
ATOM     10  C   UNL     1      -0.930  11.487  22.728  0.00  0.00    +0.000 A 
ATOM     11  C   UNL     1      -0.353  10.265  22.376  0.00  0.00    +0.000 A 
ATOM     12  C   UNL     1       0.305  10.107  21.129  0.00  0.00    +0.000 A 
ATOM     13  C   UNL     1       0.960   8.968  20.540  0.00  0.00    +0.000 A 
ATOM     14 CL   UNL     1       1.037   7.464  21.381  0.00  0.00    +0.000 Cl
ENDBRANCH   2   5
BRANCH   3  15
ATOM     15  C   UNL     1       3.259   6.045  18.339  0.00  0.00    +0.000 A 
ATOM     16  C   UNL     1       4.514   6.213  17.720  0.00  0.00    +0.000 A 
ATOM     17  C   UNL     1       5.223   5.176  17.049  0.00  0.00    +0.000 A 
ATOM     18  C   UNL     1       4.713   3.864  16.957  0.00  0.00    +0.000 A 
ATOM     19  C   UNL     1       3.470   3.622  17.590  0.00  0.00    +0.000 A 
ATOM     20  N   UNL     1       2.827   2.446  17.628  0.00  0.00    +0.000 NA
ATOM     21  S   UNL     1       1.427   2.701  18.487  0.00  0.00    +0.000 S 
ATOM     22  N   UNL     1       1.571   4.317  18.850  0.00  0.00    +0.000 NA
ATOM     23  C   UNL     1       2.731   4.725  18.303  0.00  0.00    +0.000 A 
BRANCH  17  24
ATOM     24  C   UNL     1       6.565   5.495  16.414  0.00  0.00    +0.000 C 
ATOM     25  F   UNL     1       7.077   6.700  16.784  0.00  0.00    +0.000 F 
ATOM     26  F   UNL     1       7.514   4.574  16.734  0.00  0.00    +0.000 F 
ATOM     27  F   UNL     1       6.500   5.516  15.056  0.00  0.00    +0.000 F 
ENDBRANCH  17  24
ENDBRANCH   3  15
TORSDOF 3
ENDMDL
MODEL 6
REMARK VINA RESULT:      -8.1      1.654      1.948
REMARK  Name = 
REMARK  3 active torsions:
REMARK  status: ('A' for Active; 'I' for Inactive)
REMARK    1  A    between atoms: C_2  and  C_17
REMARK    2  A    between atoms: N_3  and  C_4
REMARK    3  A    between atoms: C_6  and  C_7
REMARK                            x       y       z     vdW  Elec       q    Type
REMARK                         _______ _______ _______ _____ _____    ______ ____
ROOT
ATOM      1  O   UNL     1       2.365   8.757  18.063  0.00  0.00    +0.000 OA
ATOM      2  C   UNL     1       1.908   8.316  19.115  0.00  0.00    +0.000 C 
ATOM      3  N   UNL     1       2.164   7.024  19.550  0.00  0.00    +0.000 N 
ATOM      4  H   UNL     1       1.620   6.672  20.333  0.00  0.00    +0.000 HD
ENDROOT
BRANCH   2   5
ATOM      5  C   UNL     1       1.033   9.112  19.969  0.00  0.00    +0.000 A 
ATOM      6  S   UNL     1       1.018   8.905  21.666  0.00  0.00    +0.000 S 
ATOM      7  C   UNL     1      -0.149  10.141  21.900  0.00  0.00    +0.000 A 
ATOM      8  C   UNL     1      -0.682  10.575  23.130  0.00  0.00    +0.000 A 
ATOM      9  C   UNL     1      -1.630  11.598  23.133  0.00  0.00    +0.000 A 
ATOM     10  C   UNL     1      -2.044  12.179  21.945  0.00  0.00    +0.000 A 
ATOM     11  C   UNL     1      -1.512  11.747  20.728  0.00  0.00    +0.000 A 
ATOM     12  C   UNL     1      -0.543  10.710  20.689  0.00  0.00    +0.000 A 
ATOM     13  C   UNL     1       0.151  10.103  19.583  0.00  0.00    +0.000 A 
ATOM     14 CL   UNL     1      -0.142  10.624  17.965  0.00  0.00    +0.000 Cl
ENDBRANCH   2   5
BRANCH   3  15
ATOM     15  C   UNL     1       3.010   6.085  18.924  0.00  0.00    +0.000 A 
ATOM     16  C   UNL     1       3.764   6.347  17.763  0.00  0.00    +0.000 A 
ATOM     17  C   UNL     1       4.590   5.388  17.109  0.00  0.00    +0.000 A 
ATOM     18  C   UNL     1       4.725   4.069  17.592  0.00  0.00    +0.000 A 
ATOM     19  C   UNL     1       4.018   3.753  18.778  0.00  0.00    +0.000 A 
ATOM     20  N   UNL     1       4.026   2.565  19.400  0.00  0.00    +0.000 NA
ATOM     21  S   UNL     1       3.043   2.725  20.730  0.00  0.00    +0.000 S 
ATOM     22  N   UNL     1       2.560   4.308  20.578  0.00  0.00    +0.000 NA
ATOM     23  C   UNL     1       3.152   4.777  19.465  0.00  0.00    +0.000 A 
BRANCH  17  24
ATOM     24  C   UNL     1       5.343   5.799  15.857  0.00  0.00    +0.000 C 
ATOM     25  F   UNL     1       6.677   5.982  16.051  0.00  0.00    +0.000 F 
ATOM     26  F   UNL     1       5.236   4.869  14.869  0.00  0.00    +0.000 F 
ATOM     27  F   UNL     1       4.876   6.963  15.333  0.00  0.00    +0.000 F 
ENDBRANCH  17  24
ENDBRANCH   3  15
TORSDOF 3
ENDMDL
MODEL 7
REMARK VINA RESULT:      -8.0      2.035      2.441
REMARK  Name = 
REMARK  3 active torsions:
REMARK  status: ('A' for Active; 'I' for Inactive)
REMARK    1  A    between atoms: C_2  and  C_17
REMARK    2  A    between atoms: N_3  and  C_4
REMARK    3  A    between atoms: C_6  and  C_7
REMARK                            x       y       z     vdW  Elec       q    Type
REMARK                         _______ _______ _______ _____ _____    ______ ____
ROOT
ATOM      1  O   UNL     1       1.892   9.217  17.457  0.00  0.00    +0.000 OA
ATOM      2  C   UNL     1       1.476   9.039  18.600  0.00  0.00    +0.000 C 
ATOM      3  N   UNL     1       1.780   7.899  19.329  0.00  0.00    +0.000 N 
ATOM      4  H   UNL     1       1.268   7.739  20.192  0.00  0.00    +0.000 HD
ENDROOT
BRANCH   2   5
ATOM      5  C   UNL     1       0.605  10.003  19.262  0.00  0.00    +0.000 A 
ATOM      6  S   UNL     1       1.041  10.719  20.753  0.00  0.00    +0.000 S 
ATOM      7  C   UNL     1      -0.382  11.676  20.816  0.00  0.00    +0.000 A 
ATOM      8  C   UNL     1      -0.736  12.593  21.825  0.00  0.00    +0.000 A 
ATOM      9  C   UNL     1      -1.941  13.287  21.715  0.00  0.00    +0.000 A 
ATOM     10  C   UNL     1      -2.779  13.079  20.631  0.00  0.00    +0.000 A 
ATOM     11  C   UNL     1      -2.422  12.170  19.632  0.00  0.00    +0.000 A 
ATOM     12  C   UNL     1      -1.203  11.448  19.711  0.00  0.00    +0.000 A 
ATOM     13  C   UNL     1      -0.616  10.479  18.823  0.00  0.00    +0.000 A 
ATOM     14 CL   UNL     1      -1.419  10.015  17.369  0.00  0.00    +0.000 Cl
ENDBRANCH   2   5
BRANCH   3  15
ATOM     15  C   UNL     1       2.632   6.852  18.923  0.00  0.00    +0.000 A 
ATOM     16  C   UNL     1       3.513   6.925  17.825  0.00  0.00    +0.000 A 
ATOM     17  C   UNL     1       4.347   5.855  17.392  0.00  0.00    +0.000 A 
ATOM     18  C   UNL     1       4.361   4.608  18.052  0.00  0.00    +0.000 A 
ATOM     19  C   UNL     1       3.523   4.482  19.187  0.00  0.00    +0.000 A 
ATOM     20  N   UNL     1       3.404   3.389  19.954  0.00  0.00    +0.000 NA
ATOM     21  S   UNL     1       2.302   3.764  21.140  0.00  0.00    +0.000 S 
ATOM     22  N   UNL     1       1.923   5.331  20.734  0.00  0.00    +0.000 NA
ATOM     23  C   UNL     1       2.649   5.623  19.640  0.00  0.00    +0.000 A 
BRANCH  17  24
ATOM     24  C   UNL     1       5.243   6.063  16.184  0.00  0.00    +0.000 C 
ATOM     25  F   UNL     1       4.854   7.090  15.381  0.00  0.00    +0.000 F 
ATOM     26  F   UNL     1       6.527   6.337  16.542  0.00  0.00    +0.000 F 
ATOM     27  F   UNL     1       5.298   4.962  15.387  0.00  0.00    +0.000 F 
ENDBRANCH  17  24
ENDBRANCH   3  15
TORSDOF 3
ENDMDL
MODEL 8
REMARK VINA RESULT:      -8.0      2.067      2.523
REMARK  Name = 
REMARK  3 active torsions:
REMARK  status: ('A' for Active; 'I' for Inactive)
REMARK    1  A    between atoms: C_2  and  C_17
REMARK    2  A    between atoms: N_3  and  C_4
REMARK    3  A    between atoms: C_6  and  C_7
REMARK                            x       y       z     vdW  Elec       q    Type
REMARK                         _______ _______ _______ _____ _____    ______ ____
ROOT
ATOM      1  O   UNL     1       2.156   9.081  17.639  0.00  0.00    +0.000 OA
ATOM      2  C   UNL     1       1.703   8.775  18.739  0.00  0.00    +0.000 C 
ATOM      3  N   UNL     1       1.960   7.547  19.330  0.00  0.00    +0.000 N 
ATOM      4  H   UNL     1       1.420   7.296  20.154  0.00  0.00    +0.000 HD
ENDROOT
BRANCH   2   5
ATOM      5  C   UNL     1       0.834   9.673  19.492  0.00  0.00    +0.000 A 
ATOM      6  S   UNL     1      -0.193  10.788  18.701  0.00  0.00    +0.000 S 
ATOM      7  C   UNL     1      -0.845  11.376  20.176  0.00  0.00    +0.000 A 
ATOM      8  C   UNL     1      -1.829  12.373  20.323  0.00  0.00    +0.000 A 
ATOM      9  C   UNL     1      -2.242  12.730  21.607  0.00  0.00    +0.000 A 
ATOM     10  C   UNL     1      -1.693  12.116  22.721  0.00  0.00    +0.000 A 
ATOM     11  C   UNL     1      -0.719  11.126  22.570  0.00  0.00    +0.000 A 
ATOM     12  C   UNL     1      -0.277  10.737  21.278  0.00  0.00    +0.000 A 
ATOM     13  C   UNL     1       0.691   9.755  20.864  0.00  0.00    +0.000 A 
ATOM     14 CL   UNL     1       1.542   8.810  22.029  0.00  0.00    +0.000 Cl
ENDBRANCH   2   5
BRANCH   3  15
ATOM     15  C   UNL     1       2.801   6.536  18.821  0.00  0.00    +0.000 A 
ATOM     16  C   UNL     1       3.634   6.688  17.695  0.00  0.00    +0.000 A 
ATOM     17  C   UNL     1       4.456   5.657  17.158  0.00  0.00    +0.000 A 
ATOM     18  C   UNL     1       4.505   4.369  17.733  0.00  0.00    +0.000 A 
ATOM     19  C   UNL     1       3.716   4.162  18.891  0.00  0.00    +0.000 A 
ATOM     20  N   UNL     1       3.635   3.020  19.589  0.00  0.00    +0.000 NA
ATOM     21  S   UNL     1       2.581   3.306  20.841  0.00  0.00    +0.000 S 
ATOM     22  N   UNL     1       2.177   4.893  20.555  0.00  0.00    +0.000 NA
ATOM     23  C   UNL     1       2.855   5.263  19.454  0.00  0.00    +0.000 A 
BRANCH  17  24
ATOM     24  C   UNL     1       5.300   5.952  15.932  0.00  0.00    +0.000 C 
ATOM     25  F   UNL     1       6.620   6.136  16.202  0.00  0.00    +0.000 F 
ATOM     26  F   UNL     1       5.245   4.944  15.019  0.00  0.00    +0.000 F 
ATOM     27  F   UNL     1       4.890   7.074  15.282  0.00  0.00    +0.000 F 
ENDBRANCH  17  24
ENDBRANCH   3  15
TORSDOF 3
ENDMDL
MODEL 9
REMARK VINA RESULT:      -7.9      1.826      2.248
REMARK  Name = 
REMARK  3 active torsions:
REMARK  status: ('A' for Active; 'I' for Inactive)
REMARK    1  A    between atoms: C_2  and  C_17
REMARK    2  A    between atoms: N_3  and  C_4
REMARK    3  A    between atoms: C_6  and  C_7
REMARK                            x       y       z     vdW  Elec       q    Type
REMARK                         _______ _______ _______ _____ _____    ______ ____
ROOT
ATOM      1  O   UNL     1       2.535   7.004  20.403  0.00  0.00    +0.000 OA
ATOM      2  C   UNL     1       2.191   7.627  19.401  0.00  0.00    +0.000 C 
ATOM      3  N   UNL     1       2.608   7.271  18.127  0.00  0.00    +0.000 N 
ATOM      4  H   UNL     1       2.428   7.925  17.370  0.00  0.00    +0.000 HD
ENDROOT
BRANCH   2   5
ATOM      5  C   UNL     1       1.342   8.810  19.484  0.00  0.00    +0.000 A 
ATOM      6  S   UNL     1       0.849   9.651  18.079  0.00  0.00    +0.000 S 
ATOM      7  C   UNL     1      -0.076  10.788  18.971  0.00  0.00    +0.000 A 
ATOM      8  C   UNL     1      -0.832  11.855  18.447  0.00  0.00    +0.000 A 
ATOM      9  C   UNL     1      -1.525  12.688  19.326  0.00  0.00    +0.000 A 
ATOM     10  C   UNL     1      -1.471  12.472  20.693  0.00  0.00    +0.000 A 
ATOM     11  C   UNL     1      -0.721  11.412  21.208  0.00  0.00    +0.000 A 
ATOM     12  C   UNL     1      -0.006  10.544  20.342  0.00  0.00    +0.000 A 
ATOM     13  C   UNL     1       0.817   9.396  20.620  0.00  0.00    +0.000 A 
ATOM     14 CL   UNL     1       1.070   8.864  22.241  0.00  0.00    +0.000 Cl
ENDBRANCH   2   5
BRANCH   3  15
ATOM     15  C   UNL     1       3.391   6.148  17.790  0.00  0.00    +0.000 A 
ATOM     16  C   UNL     1       4.717   6.217  17.319  0.00  0.00    +0.000 A 
ATOM     17  C   UNL     1       5.496   5.086  16.943  0.00  0.00    +0.000 A 
ATOM     18  C   UNL     1       4.988   3.772  17.023  0.00  0.00    +0.000 A 
ATOM     19  C   UNL     1       3.670   3.632  17.523  0.00  0.00    +0.000 A 
ATOM     20  N   UNL     1       3.014   2.474  17.687  0.00  0.00    +0.000 NA
ATOM     21  S   UNL     1       1.518   2.862  18.297  0.00  0.00    +0.000 S 
ATOM     22  N   UNL     1       1.632   4.519  18.379  0.00  0.00    +0.000 NA
ATOM     23  C   UNL     1       2.857   4.836  17.923  0.00  0.00    +0.000 A 
BRANCH  17  24
ATOM     24  C   UNL     1       6.912   5.302  16.441  0.00  0.00    +0.000 C 
ATOM     25  F   UNL     1       7.441   6.507  16.786  0.00  0.00    +0.000 F 
ATOM     26  F   UNL     1       7.775   4.366  16.923  0.00  0.00    +0.000 F 
ATOM     27  F   UNL     1       6.995   5.230  15.085  0.00  0.00    +0.000 F 
ENDBRANCH  17  24
ENDBRANCH   3  15
TORSDOF 3
ENDMDL
