MODEL 1
REMARK VINA RESULT:      -8.8      0.000      0.000
REMARK  Name = 
REMARK  9 active torsions:
REMARK  status: ('A' for Active; 'I' for Inactive)
REMARK    1  A    between atoms: C_1  and  C_2
REMARK    2  A    between atoms: C_5  and  C_6
REMARK    3  A    between atoms: C_6  and  N_7
REMARK    4  A    between atoms: C_10  and  O_11
REMARK    5  A    between atoms: C_10  and  C_12
REMARK    6  A    between atoms: C_17  and  C_18
REMARK    7  A    between atoms: N_20  and  C_21
REMARK    8  A    between atoms: C_21  and  C_22
REMARK    9  A    between atoms: C_22  and  C_23
REMARK                            x       y       z     vdW  Elec       q    Type
REMARK                         _______ _______ _______ _____ _____    ______ ____
ROOT
ATOM      1  C   UNL     1       2.312   7.472  19.038  0.00  0.00    +0.000 A 
ATOM      2  C   UNL     1       1.919   7.331  20.388  0.00  0.00    +0.000 A 
ATOM      3  C   UNL     1       1.085   8.253  21.040  0.00  0.00    +0.000 A 
ATOM      4  C   UNL     1       0.649   9.340  20.294  0.00  0.00    +0.000 A 
ATOM      5  O   UNL     1      -0.166  10.330  20.753  0.00  0.00    +0.000 OA
ATOM      6  C   UNL     1      -0.364  11.209  19.718  0.00  0.00    +0.000 A 
ATOM      7  C   UNL     1       0.355  10.778  18.612  0.00  0.00    +0.000 A 
ATOM      8  C   UNL     1       0.996   9.555  18.967  0.00  0.00    +0.000 A 
ATOM      9  C   UNL     1       1.839   8.607  18.329  0.00  0.00    +0.000 A 
ENDROOT
BRANCH   1  13
ATOM     10  N   UNL     1       6.289   5.777  18.158  0.00  0.00    +0.000 NA
ATOM     11  C   UNL     1       5.264   4.913  18.741  0.00  0.00    +0.000 C 
ATOM     12  C   UNL     1       4.244   5.775  19.484  0.00  0.00    +0.000 C 
ATOM     13  C   UNL     1       3.341   6.476  18.462  0.00  0.00    +0.000 C 
ATOM     14  C   UNL     1       4.189   6.994  17.264  0.00  0.00    +0.000 C 
ATOM     15  C   UNL     1       5.728   6.920  17.427  0.00  0.00    +0.000 C 
BRANCH  13  16
ATOM     16  O   UNL     1       2.505   5.418  17.917  0.00  0.00    +0.000 OA
ATOM     17  H   UNL     1       2.214   5.711  17.034  0.00  0.00    +0.000 HD
ENDBRANCH  13  16
BRANCH  10  18
ATOM     18  C   UNL     1       7.282   4.975  17.425  0.00  0.00    +0.000 C 
BRANCH  18  23
ATOM     19  C   UNL     1       5.560   3.528  12.031  0.00  0.00    +0.000 C 
ATOM     20  C   UNL     1       6.021   3.854  13.427  0.00  0.00    +0.000 A 
ATOM     21  C   UNL     1       5.370   3.322  14.544  0.00  0.00    +0.000 A 
ATOM     22  C   UNL     1       5.794   3.654  15.838  0.00  0.00    +0.000 A 
ATOM     23  C   UNL     1       6.877   4.520  16.035  0.00  0.00    +0.000 A 
ATOM     24  C   UNL     1       7.525   5.048  14.909  0.00  0.00    +0.000 A 
ATOM     25  C   UNL     1       7.104   4.714  13.617  0.00  0.00    +0.000 A 
ENDBRANCH  18  23
ENDBRANCH  10  18
ENDBRANCH   1  13
BRANCH   6  26
ATOM     26  C   UNL     1      -1.233  12.358  19.915  0.00  0.00    +0.000 C 
ATOM     27  O   UNL     1      -1.161  13.381  19.238  0.00  0.00    +0.000 OA
ATOM     28  N   UNL     1      -2.180  12.215  20.920  0.00  0.00    +0.000 N 
ATOM     29  H   UNL     1      -2.241  11.312  21.376  0.00  0.00    +0.000 HD
BRANCH  28  30
ATOM     30  C   UNL     1      -3.202  13.221  21.141  0.00  0.00    +0.000 C 
BRANCH  30  31
ATOM     31  C   UNL     1      -4.635  12.676  21.231  0.00  0.00    +0.000 C 
BRANCH  31  32
ATOM     32  C   UNL     1      -5.433  12.493  19.953  0.00  0.00    +0.000 A 
ATOM     33  C   UNL     1      -6.765  12.942  19.918  0.00  0.00    +0.000 A 
ATOM     34  C   UNL     1      -7.509  12.920  18.733  0.00  0.00    +0.000 A 
ATOM     35  C   UNL     1      -6.926  12.459  17.558  0.00  0.00    +0.000 A 
ATOM     36  C   UNL     1      -5.610  12.015  17.584  0.00  0.00    +0.000 A 
ATOM     37  F   UNL     1      -5.042  11.582  16.450  0.00  0.00    +0.000 F 
ATOM     38  C   UNL     1      -4.861  12.027  18.761  0.00  0.00    +0.000 A 
ENDBRANCH  31  32
ENDBRANCH  30  31
ENDBRANCH  28  30
ENDBRANCH   6  26
TORSDOF 8
ENDMDL
MODEL 2
REMARK VINA RESULT:      -8.6      3.142      4.388
REMARK  Name = 
REMARK  9 active torsions:
REMARK  status: ('A' for Active; 'I' for Inactive)
REMARK    1  A    between atoms: C_1  and  C_2
REMARK    2  A    between atoms: C_5  and  C_6
REMARK    3  A    between atoms: C_6  and  N_7
REMARK    4  A    between atoms: C_10  and  O_11
REMARK    5  A    between atoms: C_10  and  C_12
REMARK    6  A    between atoms: C_17  and  C_18
REMARK    7  A    between atoms: N_20  and  C_21
REMARK    8  A    between atoms: C_21  and  C_22
REMARK    9  A    between atoms: C_22  and  C_23
REMARK                            x       y       z     vdW  Elec       q    Type
REMARK                         _______ _______ _______ _____ _____    ______ ____
ROOT
ATOM      1  C   UNL     1       2.280   7.497  19.113  0.00  0.00    +0.000 A 
ATOM      2  C   UNL     1       1.821   7.292  20.434  0.00  0.00    +0.000 A 
ATOM      3  C   UNL     1       1.036   8.229  21.123  0.00  0.00    +0.000 A 
ATOM      4  C   UNL     1       0.717   9.398  20.445  0.00  0.00    +0.000 A 
ATOM      5  O   UNL     1      -0.036  10.417  20.947  0.00  0.00    +0.000 OA
ATOM      6  C   UNL     1      -0.121  11.380  19.974  0.00  0.00    +0.000 A 
ATOM      7  C   UNL     1       0.609  10.973  18.865  0.00  0.00    +0.000 A 
ATOM      8  C   UNL     1       1.136   9.679  19.151  0.00  0.00    +0.000 A 
ATOM      9  C   UNL     1       1.928   8.714  18.474  0.00  0.00    +0.000 A 
ENDROOT
BRANCH   1  13
ATOM     10  N   UNL     1       6.155   5.604  18.179  0.00  0.00    +0.000 NA
ATOM     11  C   UNL     1       5.078   4.780  18.726  0.00  0.00    +0.000 C 
ATOM     12  C   UNL     1       4.107   5.672  19.499  0.00  0.00    +0.000 C 
ATOM     13  C   UNL     1       3.251   6.464  18.502  0.00  0.00    +0.000 C 
ATOM     14  C   UNL     1       4.134   6.977  17.327  0.00  0.00    +0.000 C 
ATOM     15  C   UNL     1       5.666   6.806  17.491  0.00  0.00    +0.000 C 
BRANCH  13  16
ATOM     16  O   UNL     1       2.358   5.480  17.915  0.00  0.00    +0.000 OA
ATOM     17  H   UNL     1       1.910   5.912  17.166  0.00  0.00    +0.000 HD
ENDBRANCH  13  16
BRANCH  10  18
ATOM     18  C   UNL     1       7.102   4.773  17.418  0.00  0.00    +0.000 C 
BRANCH  18  23
ATOM     19  C   UNL     1       5.870   3.458  11.859  0.00  0.00    +0.000 C 
ATOM     20  C   UNL     1       6.171   3.843  13.283  0.00  0.00    +0.000 A 
ATOM     21  C   UNL     1       7.229   4.704  13.588  0.00  0.00    +0.000 A 
ATOM     22  C   UNL     1       7.513   5.035  14.920  0.00  0.00    +0.000 A 
ATOM     23  C   UNL     1       6.743   4.512  15.967  0.00  0.00    +0.000 A 
ATOM     24  C   UNL     1       5.683   3.651  15.651  0.00  0.00    +0.000 A 
ATOM     25  C   UNL     1       5.396   3.323  14.321  0.00  0.00    +0.000 A 
ENDBRANCH  18  23
ENDBRANCH  10  18
ENDBRANCH   1  13
BRANCH   6  26
ATOM     26  C   UNL     1      -0.904  12.579  20.225  0.00  0.00    +0.000 C 
ATOM     27  O   UNL     1      -1.887  12.600  20.962  0.00  0.00    +0.000 OA
ATOM     28  N   UNL     1      -0.453  13.723  19.582  0.00  0.00    +0.000 N 
ATOM     29  H   UNL     1       0.414  13.653  19.061  0.00  0.00    +0.000 HD
BRANCH  28  30
ATOM     30  C   UNL     1      -1.050  15.020  19.843  0.00  0.00    +0.000 C 
BRANCH  30  31
ATOM     31  C   UNL     1      -0.049  16.178  19.967  0.00  0.00    +0.000 C 
BRANCH  31  32
ATOM     32  C   UNL     1       0.841  16.510  18.783  0.00  0.00    +0.000 A 
ATOM     33  C   UNL     1       0.485  17.587  17.952  0.00  0.00    +0.000 A 
ATOM     34  C   UNL     1       1.330  18.023  16.925  0.00  0.00    +0.000 A 
ATOM     35  C   UNL     1       2.553  17.394  16.722  0.00  0.00    +0.000 A 
ATOM     36  C   UNL     1       2.912  16.329  17.540  0.00  0.00    +0.000 A 
ATOM     37  F   UNL     1       4.096  15.730  17.352  0.00  0.00    +0.000 F 
ATOM     38  C   UNL     1       2.075  15.883  18.562  0.00  0.00    +0.000 A 
ENDBRANCH  31  32
ENDBRANCH  30  31
ENDBRANCH  28  30
ENDBRANCH   6  26
TORSDOF 8
ENDMDL
MODEL 3
REMARK VINA RESULT:      -8.5      3.072     12.366
REMARK  Name = 
REMARK  9 active torsions:
REMARK  status: ('A' for Active; 'I' for Inactive)
REMARK    1  A    between atoms: C_1  and  C_2
REMARK    2  A    between atoms: C_5  and  C_6
REMARK    3  A    between atoms: C_6  and  N_7
REMARK    4  A    between atoms: C_10  and  O_11
REMARK    5  A    between atoms: C_10  and  C_12
REMARK    6  A    between atoms: C_17  and  C_18
REMARK    7  A    between atoms: N_20  and  C_21
REMARK    8  A    between atoms: C_21  and  C_22
REMARK    9  A    between atoms: C_22  and  C_23
REMARK                            x       y       z     vdW  Elec       q    Type
REMARK                         _______ _______ _______ _____ _____    ______ ____
ROOT
ATOM      1  C   UNL     1       1.477   8.717  20.281  0.00  0.00    +0.000 A 
ATOM      2  C   UNL     1       1.487   9.284  18.987  0.00  0.00    +0.000 A 
ATOM      3  C   UNL     1       2.099   8.665  17.887  0.00  0.00    +0.000 A 
ATOM      4  C   UNL     1       2.715   7.442  18.119  0.00  0.00    +0.000 A 
ATOM      5  O   UNL     1       3.353   6.693  17.177  0.00  0.00    +0.000 OA
ATOM      6  C   UNL     1       3.820   5.564  17.801  0.00  0.00    +0.000 A 
ATOM      7  C   UNL     1       3.495   5.621  19.149  0.00  0.00    +0.000 A 
ATOM      8  C   UNL     1       2.757   6.823  19.360  0.00  0.00    +0.000 A 
ATOM      9  C   UNL     1       2.128   7.468  20.458  0.00  0.00    +0.000 A 
ENDROOT
BRANCH   1  13
ATOM     10  N   UNL     1      -1.436  11.241  22.428  0.00  0.00    +0.000 NA
ATOM     11  C   UNL     1      -0.914  10.045  23.087  0.00  0.00    +0.000 C 
ATOM     12  C   UNL     1      -0.435   9.055  22.025  0.00  0.00    +0.000 C 
ATOM     13  C   UNL     1       0.897   9.547  21.446  0.00  0.00    +0.000 C 
ATOM     14  C   UNL     1       0.847  11.087  21.221  0.00  0.00    +0.000 C 
ATOM     15  C   UNL     1      -0.537  11.764  21.391  0.00  0.00    +0.000 C 
BRANCH  13  16
ATOM     16  O   UNL     1       1.864   9.342  22.511  0.00  0.00    +0.000 OA
ATOM     17  H   UNL     1       1.991  10.202  22.951  0.00  0.00    +0.000 HD
ENDBRANCH  13  16
BRANCH  10  18
ATOM     18  C   UNL     1      -1.895  12.219  23.427  0.00  0.00    +0.000 C 
BRANCH  18  23
ATOM     19  C   UNL     1      -7.070  14.713  22.354  0.00  0.00    +0.000 C 
ATOM     20  C   UNL     1      -5.760  14.041  22.664  0.00  0.00    +0.000 A 
ATOM     21  C   UNL     1      -5.113  14.251  23.885  0.00  0.00    +0.000 A 
ATOM     22  C   UNL     1      -3.880  13.638  24.151  0.00  0.00    +0.000 A 
ATOM     23  C   UNL     1      -3.277  12.804  23.201  0.00  0.00    +0.000 A 
ATOM     24  C   UNL     1      -3.934  12.598  21.980  0.00  0.00    +0.000 A 
ATOM     25  C   UNL     1      -5.166  13.206  21.715  0.00  0.00    +0.000 A 
ENDBRANCH  18  23
ENDBRANCH  10  18
ENDBRANCH   1  13
BRANCH   6  26
ATOM     26  C   UNL     1       4.519   4.556  17.020  0.00  0.00    +0.000 C 
ATOM     27  O   UNL     1       4.055   3.442  16.788  0.00  0.00    +0.000 OA
ATOM     28  N   UNL     1       5.756   4.946  16.526  0.00  0.00    +0.000 N 
ATOM     29  H   UNL     1       6.036   5.908  16.680  0.00  0.00    +0.000 HD
BRANCH  28  30
ATOM     30  C   UNL     1       6.508   4.098  15.618  0.00  0.00    +0.000 C 
BRANCH  30  31
ATOM     31  C   UNL     1       6.693   4.671  14.205  0.00  0.00    +0.000 C 
BRANCH  31  32
ATOM     32  C   UNL     1       6.220   3.857  13.015  0.00  0.00    +0.000 A 
ATOM     33  C   UNL     1       7.130   2.987  12.388  0.00  0.00    +0.000 A 
ATOM     34  C   UNL     1       6.720   2.117  11.372  0.00  0.00    +0.000 A 
ATOM     35  C   UNL     1       5.388   2.094  10.974  0.00  0.00    +0.000 A 
ATOM     36  C   UNL     1       4.483   2.950  11.590  0.00  0.00    +0.000 A 
ATOM     37  F   UNL     1       3.196   2.921  11.217  0.00  0.00    +0.000 F 
ATOM     38  C   UNL     1       4.881   3.826  12.600  0.00  0.00    +0.000 A 
ENDBRANCH  31  32
ENDBRANCH  30  31
ENDBRANCH  28  30
ENDBRANCH   6  26
TORSDOF 8
ENDMDL
MODEL 4
REMARK VINA RESULT:      -8.5      3.152     12.275
REMARK  Name = 
REMARK  9 active torsions:
REMARK  status: ('A' for Active; 'I' for Inactive)
REMARK    1  A    between atoms: C_1  and  C_2
REMARK    2  A    between atoms: C_5  and  C_6
REMARK    3  A    between atoms: C_6  and  N_7
REMARK    4  A    between atoms: C_10  and  O_11
REMARK    5  A    between atoms: C_10  and  C_12
REMARK    6  A    between atoms: C_17  and  C_18
REMARK    7  A    between atoms: N_20  and  C_21
REMARK    8  A    between atoms: C_21  and  C_22
REMARK    9  A    between atoms: C_22  and  C_23
REMARK                            x       y       z     vdW  Elec       q    Type
REMARK                         _______ _______ _______ _____ _____    ______ ____
ROOT
ATOM      1  C   UNL     1       0.746   9.692  20.242  0.00  0.00    +0.000 A 
ATOM      2  C   UNL     1       0.791   8.735  21.281  0.00  0.00    +0.000 A 
ATOM      3  C   UNL     1       1.423   7.489  21.144  0.00  0.00    +0.000 A 
ATOM      4  C   UNL     1       2.019   7.221  19.919  0.00  0.00    +0.000 A 
ATOM      5  O   UNL     1       2.681   6.073  19.603  0.00  0.00    +0.000 OA
ATOM      6  C   UNL     1       3.121   6.198  18.309  0.00  0.00    +0.000 A 
ATOM      7  C   UNL     1       2.705   7.422  17.804  0.00  0.00    +0.000 A 
ATOM      8  C   UNL     1       2.012   8.103  18.847  0.00  0.00    +0.000 A 
ATOM      9  C   UNL     1       1.367   9.358  19.011  0.00  0.00    +0.000 A 
ENDROOT
BRANCH   1  13
ATOM     10  N   UNL     1      -0.525  13.462  22.149  0.00  0.00    +0.000 NA
ATOM     11  C   UNL     1      -0.287  13.443  20.707  0.00  0.00    +0.000 C 
ATOM     12  C   UNL     1       0.668  12.298  20.371  0.00  0.00    +0.000 C 
ATOM     13  C   UNL     1      -0.094  10.969  20.454  0.00  0.00    +0.000 C 
ATOM     14  C   UNL     1      -1.032  10.966  21.697  0.00  0.00    +0.000 C 
ATOM     15  C   UNL     1      -0.857  12.139  22.694  0.00  0.00    +0.000 C 
BRANCH  13  16
ATOM     16  O   UNL     1      -0.979  10.976  19.301  0.00  0.00    +0.000 OA
ATOM     17  H   UNL     1      -1.871  10.750  19.624  0.00  0.00    +0.000 HD
ENDBRANCH  13  16
BRANCH  10  18
ATOM     18  C   UNL     1      -1.452  14.550  22.503  0.00  0.00    +0.000 C 
BRANCH  18  23
ATOM     19  C   UNL     1      -6.817  12.620  23.784  0.00  0.00    +0.000 C 
ATOM     20  C   UNL     1      -5.454  13.163  23.447  0.00  0.00    +0.000 A 
ATOM     21  C   UNL     1      -5.127  13.526  22.137  0.00  0.00    +0.000 A 
ATOM     22  C   UNL     1      -3.846  14.007  21.832  0.00  0.00    +0.000 A 
ATOM     23  C   UNL     1      -2.874  14.134  22.832  0.00  0.00    +0.000 A 
ATOM     24  C   UNL     1      -3.211  13.769  24.144  0.00  0.00    +0.000 A 
ATOM     25  C   UNL     1      -4.491  13.293  24.450  0.00  0.00    +0.000 A 
ENDBRANCH  18  23
ENDBRANCH  10  18
ENDBRANCH   1  13
BRANCH   6  26
ATOM     26  C   UNL     1       3.899   5.124  17.714  0.00  0.00    +0.000 C 
ATOM     27  O   UNL     1       3.402   4.071  17.319  0.00  0.00    +0.000 OA
ATOM     28  N   UNL     1       5.259   5.374  17.600  0.00  0.00    +0.000 N 
ATOM     29  H   UNL     1       5.586   6.297  17.864  0.00  0.00    +0.000 HD
BRANCH  28  30
ATOM     30  C   UNL     1       6.140   4.454  16.904  0.00  0.00    +0.000 C 
BRANCH  30  31
ATOM     31  C   UNL     1       7.105   5.113  15.908  0.00  0.00    +0.000 C 
BRANCH  31  32
ATOM     32  C   UNL     1       6.958   4.804  14.429  0.00  0.00    +0.000 A 
ATOM     33  C   UNL     1       7.790   5.473  13.514  0.00  0.00    +0.000 A 
ATOM     34  C   UNL     1       7.793   5.138  12.155  0.00  0.00    +0.000 A 
ATOM     35  C   UNL     1       6.970   4.118  11.692  0.00  0.00    +0.000 A 
ATOM     36  C   UNL     1       6.146   3.452  12.590  0.00  0.00    +0.000 A 
ATOM     37  F   UNL     1       5.361   2.460  12.148  0.00  0.00    +0.000 F 
ATOM     38  C   UNL     1       6.130   3.781  13.946  0.00  0.00    +0.000 A 
ENDBRANCH  31  32
ENDBRANCH  30  31
ENDBRANCH  28  30
ENDBRANCH   6  26
TORSDOF 8
ENDMDL
MODEL 5
REMARK VINA RESULT:      -8.4      3.071      4.599
REMARK  Name = 
REMARK  9 active torsions:
REMARK  status: ('A' for Active; 'I' for Inactive)
REMARK    1  A    between atoms: C_1  and  C_2
REMARK    2  A    between atoms: C_5  and  C_6
REMARK    3  A    between atoms: C_6  and  N_7
REMARK    4  A    between atoms: C_10  and  O_11
REMARK    5  A    between atoms: C_10  and  C_12
REMARK    6  A    between atoms: C_17  and  C_18
REMARK    7  A    between atoms: N_20  and  C_21
REMARK    8  A    between atoms: C_21  and  C_22
REMARK    9  A    between atoms: C_22  and  C_23
REMARK                            x       y       z     vdW  Elec       q    Type
REMARK                         _______ _______ _______ _____ _____    ______ ____
ROOT
ATOM      1  C   UNL     1       2.207   7.642  19.071  0.00  0.00    +0.000 A 
ATOM      2  C   UNL     1       1.799   7.550  20.421  0.00  0.00    +0.000 A 
ATOM      3  C   UNL     1       1.030   8.538  21.055  0.00  0.00    +0.000 A 
ATOM      4  C   UNL     1       0.676   9.642  20.290  0.00  0.00    +0.000 A 
ATOM      5  O   UNL     1      -0.068  10.695  20.730  0.00  0.00    +0.000 OA
ATOM      6  C   UNL     1      -0.198  11.570  19.681  0.00  0.00    +0.000 A 
ATOM      7  C   UNL     1       0.494  11.072  18.585  0.00  0.00    +0.000 A 
ATOM      8  C   UNL     1       1.043   9.812  18.963  0.00  0.00    +0.000 A 
ATOM      9  C   UNL     1       1.819   8.796  18.343  0.00  0.00    +0.000 A 
ENDROOT
BRANCH   1  13
ATOM     10  N   UNL     1       6.051   5.623  18.288  0.00  0.00    +0.000 NA
ATOM     11  C   UNL     1       4.941   4.845  18.836  0.00  0.00    +0.000 C 
ATOM     12  C   UNL     1       3.976   5.785  19.557  0.00  0.00    +0.000 C 
ATOM     13  C   UNL     1       3.164   6.566  18.516  0.00  0.00    +0.000 C 
ATOM     14  C   UNL     1       4.086   7.018  17.346  0.00  0.00    +0.000 C 
ATOM     15  C   UNL     1       5.609   6.814  17.551  0.00  0.00    +0.000 C 
BRANCH  13  16
ATOM     16  O   UNL     1       2.259   5.585  17.939  0.00  0.00    +0.000 OA
ATOM     17  H   UNL     1       2.624   4.705  18.144  0.00  0.00    +0.000 HD
ENDBRANCH  13  16
BRANCH  10  18
ATOM     18  C   UNL     1       6.993   4.745  17.576  0.00  0.00    +0.000 C 
BRANCH  18  23
ATOM     19  C   UNL     1       6.038   3.534  11.940  0.00  0.00    +0.000 C 
ATOM     20  C   UNL     1       6.267   3.892  13.383  0.00  0.00    +0.000 A 
ATOM     21  C   UNL     1       7.288   4.771  13.755  0.00  0.00    +0.000 A 
ATOM     22  C   UNL     1       7.506   5.077  15.106  0.00  0.00    +0.000 A 
ATOM     23  C   UNL     1       6.705   4.510  16.105  0.00  0.00    +0.000 A 
ATOM     24  C   UNL     1       5.681   3.631  15.723  0.00  0.00    +0.000 A 
ATOM     25  C   UNL     1       5.461   3.328  14.375  0.00  0.00    +0.000 A 
ENDBRANCH  18  23
ENDBRANCH  10  18
ENDBRANCH   1  13
BRANCH   6  26
ATOM     26  C   UNL     1      -0.983  12.781  19.856  0.00  0.00    +0.000 C 
ATOM     27  O   UNL     1      -2.169  12.775  20.178  0.00  0.00    +0.000 OA
ATOM     28  N   UNL     1      -0.291  13.967  19.652  0.00  0.00    +0.000 N 
ATOM     29  H   UNL     1       0.705  13.900  19.476  0.00  0.00    +0.000 HD
BRANCH  28  30
ATOM     30  C   UNL     1      -0.905  15.254  19.922  0.00  0.00    +0.000 C 
BRANCH  30  31
ATOM     31  C   UNL     1       0.078  16.367  20.315  0.00  0.00    +0.000 C 
BRANCH  31  32
ATOM     32  C   UNL     1       1.386  16.493  19.558  0.00  0.00    +0.000 A 
ATOM     33  C   UNL     1       2.560  15.994  20.150  0.00  0.00    +0.000 A 
ATOM     34  C   UNL     1       3.771  15.963  19.450  0.00  0.00    +0.000 A 
ATOM     35  C   UNL     1       3.824  16.421  18.138  0.00  0.00    +0.000 A 
ATOM     36  C   UNL     1       2.668  16.914  17.545  0.00  0.00    +0.000 A 
ATOM     37  F   UNL     1       2.715  17.345  16.277  0.00  0.00    +0.000 F 
ATOM     38  C   UNL     1       1.457  16.956  18.236  0.00  0.00    +0.000 A 
ENDBRANCH  31  32
ENDBRANCH  30  31
ENDBRANCH  28  30
ENDBRANCH   6  26
TORSDOF 8
ENDMDL
MODEL 6
REMARK VINA RESULT:      -8.4      3.507     11.616
REMARK  Name = 
REMARK  9 active torsions:
REMARK  status: ('A' for Active; 'I' for Inactive)
REMARK    1  A    between atoms: C_1  and  C_2
REMARK    2  A    between atoms: C_5  and  C_6
REMARK    3  A    between atoms: C_6  and  N_7
REMARK    4  A    between atoms: C_10  and  O_11
REMARK    5  A    between atoms: C_10  and  C_12
REMARK    6  A    between atoms: C_17  and  C_18
REMARK    7  A    between atoms: N_20  and  C_21
REMARK    8  A    between atoms: C_21  and  C_22
REMARK    9  A    between atoms: C_22  and  C_23
REMARK                            x       y       z     vdW  Elec       q    Type
REMARK                         _______ _______ _______ _____ _____    ______ ____
ROOT
ATOM      1  C   UNL     1       0.273  10.530  19.634  0.00  0.00    +0.000 A 
ATOM      2  C   UNL     1       0.923  10.973  18.459  0.00  0.00    +0.000 A 
ATOM      3  C   UNL     1       1.912  10.222  17.805  0.00  0.00    +0.000 A 
ATOM      4  C   UNL     1       2.241   8.996  18.367  0.00  0.00    +0.000 A 
ATOM      5  O   UNL     1       3.169   8.129  17.873  0.00  0.00    +0.000 OA
ATOM      6  C   UNL     1       3.197   7.040  18.707  0.00  0.00    +0.000 A 
ATOM      7  C   UNL     1       2.299   7.241  19.747  0.00  0.00    +0.000 A 
ATOM      8  C   UNL     1       1.657   8.494  19.522  0.00  0.00    +0.000 A 
ATOM      9  C   UNL     1       0.657   9.272  20.165  0.00  0.00    +0.000 A 
ENDROOT
BRANCH   1  13
ATOM     10  N   UNL     1      -1.049  13.542  22.574  0.00  0.00    +0.000 NA
ATOM     11  C   UNL     1      -1.318  13.772  21.155  0.00  0.00    +0.000 C 
ATOM     12  C   UNL     1      -0.313  12.980  20.320  0.00  0.00    +0.000 C 
ATOM     13  C   UNL     1      -0.698  11.495  20.347  0.00  0.00    +0.000 C 
ATOM     14  C   UNL     1      -1.133  11.081  21.783  0.00  0.00    +0.000 C 
ATOM     15  C   UNL     1      -0.885  12.121  22.904  0.00  0.00    +0.000 C 
BRANCH  13  16
ATOM     16  O   UNL     1      -1.902  11.409  19.537  0.00  0.00    +0.000 OA
ATOM     17  H   UNL     1      -2.570  10.941  20.069  0.00  0.00    +0.000 HD
ENDBRANCH  13  16
BRANCH  10  18
ATOM     18  C   UNL     1      -2.010  14.285  23.406  0.00  0.00    +0.000 C 
BRANCH  18  23
ATOM     19  C   UNL     1      -7.581  12.531  23.613  0.00  0.00    +0.000 C 
ATOM     20  C   UNL     1      -6.133  12.938  23.542  0.00  0.00    +0.000 A 
ATOM     21  C   UNL     1      -5.192  12.411  24.431  0.00  0.00    +0.000 A 
ATOM     22  C   UNL     1      -3.852  12.817  24.370  0.00  0.00    +0.000 A 
ATOM     23  C   UNL     1      -3.432  13.754  23.418  0.00  0.00    +0.000 A 
ATOM     24  C   UNL     1      -4.382  14.275  22.528  0.00  0.00    +0.000 A 
ATOM     25  C   UNL     1      -5.719  13.868  22.586  0.00  0.00    +0.000 A 
ENDBRANCH  18  23
ENDBRANCH  10  18
ENDBRANCH   1  13
BRANCH   6  26
ATOM     26  C   UNL     1       4.081   5.929  18.398  0.00  0.00    +0.000 C 
ATOM     27  O   UNL     1       5.002   5.575  19.132  0.00  0.00    +0.000 OA
ATOM     28  N   UNL     1       3.803   5.267  17.210  0.00  0.00    +0.000 N 
ATOM     29  H   UNL     1       2.977   5.555  16.700  0.00  0.00    +0.000 HD
BRANCH  28  30
ATOM     30  C   UNL     1       4.513   4.057  16.837  0.00  0.00    +0.000 C 
BRANCH  30  31
ATOM     31  C   UNL     1       3.883   2.755  17.353  0.00  0.00    +0.000 C 
BRANCH  31  32
ATOM     32  C   UNL     1       2.926   2.818  18.529  0.00  0.00    +0.000 A 
ATOM     33  C   UNL     1       1.545   2.880  18.272  0.00  0.00    +0.000 A 
ATOM     34  C   UNL     1       0.609   2.809  19.310  0.00  0.00    +0.000 A 
ATOM     35  C   UNL     1       1.041   2.662  20.623  0.00  0.00    +0.000 A 
ATOM     36  C   UNL     1       2.404   2.599  20.885  0.00  0.00    +0.000 A 
ATOM     37  F   UNL     1       2.822   2.445  22.149  0.00  0.00    +0.000 F 
ATOM     38  C   UNL     1       3.346   2.675  19.859  0.00  0.00    +0.000 A 
ENDBRANCH  31  32
ENDBRANCH  30  31
ENDBRANCH  28  30
ENDBRANCH   6  26
TORSDOF 8
ENDMDL
MODEL 7
REMARK VINA RESULT:      -8.3      7.124     12.171
REMARK  Name = 
REMARK  9 active torsions:
REMARK  status: ('A' for Active; 'I' for Inactive)
REMARK    1  A    between atoms: C_1  and  C_2
REMARK    2  A    between atoms: C_5  and  C_6
REMARK    3  A    between atoms: C_6  and  N_7
REMARK    4  A    between atoms: C_10  and  O_11
REMARK    5  A    between atoms: C_10  and  C_12
REMARK    6  A    between atoms: C_17  and  C_18
REMARK    7  A    between atoms: N_20  and  C_21
REMARK    8  A    between atoms: C_21  and  C_22
REMARK    9  A    between atoms: C_22  and  C_23
REMARK                            x       y       z     vdW  Elec       q    Type
REMARK                         _______ _______ _______ _____ _____    ______ ____
ROOT
ATOM      1  C   UNL     1       3.341  14.708  18.622  0.00  0.00    +0.000 A 
ATOM      2  C   UNL     1       3.358  15.873  19.421  0.00  0.00    +0.000 A 
ATOM      3  C   UNL     1       4.512  16.648  19.616  0.00  0.00    +0.000 A 
ATOM      4  C   UNL     1       5.669  16.218  18.981  0.00  0.00    +0.000 A 
ATOM      5  O   UNL     1       6.879  16.841  19.048  0.00  0.00    +0.000 OA
ATOM      6  C   UNL     1       7.757  16.110  18.288  0.00  0.00    +0.000 A 
ATOM      7  C   UNL     1       7.097  15.007  17.764  0.00  0.00    +0.000 A 
ATOM      8  C   UNL     1       5.738  15.081  18.187  0.00  0.00    +0.000 A 
ATOM      9  C   UNL     1       4.556  14.315  18.004  0.00  0.00    +0.000 A 
ENDROOT
BRANCH   1  13
ATOM     10  N   UNL     1      -0.436  12.973  20.104  0.00  0.00    +0.000 NA
ATOM     11  C   UNL     1      -0.421  13.624  18.795  0.00  0.00    +0.000 C 
ATOM     12  C   UNL     1       0.735  14.623  18.744  0.00  0.00    +0.000 C 
ATOM     13  C   UNL     1       2.054  13.856  18.589  0.00  0.00    +0.000 C 
ATOM     14  C   UNL     1       2.052  12.595  19.502  0.00  0.00    +0.000 C 
ATOM     15  C   UNL     1       0.886  12.482  20.516  0.00  0.00    +0.000 C 
BRANCH  13  16
ATOM     16  O   UNL     1       2.030  13.348  17.227  0.00  0.00    +0.000 OA
ATOM     17  H   UNL     1       2.746  12.691  17.155  0.00  0.00    +0.000 HD
ENDBRANCH  13  16
BRANCH  10  18
ATOM     18  C   UNL     1      -1.533  11.996  20.181  0.00  0.00    +0.000 C 
BRANCH  18  23
ATOM     19  C   UNL     1      -3.660   9.674  15.257  0.00  0.00    +0.000 C 
ATOM     20  C   UNL     1      -3.078  10.296  16.498  0.00  0.00    +0.000 A 
ATOM     21  C   UNL     1      -1.829   9.900  16.986  0.00  0.00    +0.000 A 
ATOM     22  C   UNL     1      -1.310  10.470  18.156  0.00  0.00    +0.000 A 
ATOM     23  C   UNL     1      -2.030  11.446  18.856  0.00  0.00    +0.000 A 
ATOM     24  C   UNL     1      -3.280  11.839  18.359  0.00  0.00    +0.000 A 
ATOM     25  C   UNL     1      -3.798  11.274  17.188  0.00  0.00    +0.000 A 
ENDBRANCH  18  23
ENDBRANCH  10  18
ENDBRANCH   1  13
BRANCH   6  26
ATOM     26  C   UNL     1       9.130  16.568  18.148  0.00  0.00    +0.000 C 
ATOM     27  O   UNL     1       9.651  17.380  18.910  0.00  0.00    +0.000 OA
ATOM     28  N   UNL     1       9.834  16.005  17.092  0.00  0.00    +0.000 N 
ATOM     29  H   UNL     1       9.372  15.278  16.560  0.00  0.00    +0.000 HD
BRANCH  28  30
ATOM     30  C   UNL     1      11.252  16.262  16.910  0.00  0.00    +0.000 C 
BRANCH  30  31
ATOM     31  C   UNL     1      12.183  15.225  17.555  0.00  0.00    +0.000 C 
BRANCH  31  32
ATOM     32  C   UNL     1      11.587  13.939  18.098  0.00  0.00    +0.000 A 
ATOM     33  C   UNL     1      11.327  12.885  17.205  0.00  0.00    +0.000 A 
ATOM     34  C   UNL     1      10.900  11.633  17.662  0.00  0.00    +0.000 A 
ATOM     35  C   UNL     1      10.739  11.412  19.025  0.00  0.00    +0.000 A 
ATOM     36  C   UNL     1      10.995  12.449  19.914  0.00  0.00    +0.000 A 
ATOM     37  F   UNL     1      10.851  12.234  21.229  0.00  0.00    +0.000 F 
ATOM     38  C   UNL     1      11.414  13.703  19.469  0.00  0.00    +0.000 A 
ENDBRANCH  31  32
ENDBRANCH  30  31
ENDBRANCH  28  30
ENDBRANCH   6  26
TORSDOF 8
ENDMDL
MODEL 8
REMARK VINA RESULT:      -8.3      3.460     12.836
REMARK  Name = 
REMARK  9 active torsions:
REMARK  status: ('A' for Active; 'I' for Inactive)
REMARK    1  A    between atoms: C_1  and  C_2
REMARK    2  A    between atoms: C_5  and  C_6
REMARK    3  A    between atoms: C_6  and  N_7
REMARK    4  A    between atoms: C_10  and  O_11
REMARK    5  A    between atoms: C_10  and  C_12
REMARK    6  A    between atoms: C_17  and  C_18
REMARK    7  A    between atoms: N_20  and  C_21
REMARK    8  A    between atoms: C_21  and  C_22
REMARK    9  A    between atoms: C_22  and  C_23
REMARK                            x       y       z     vdW  Elec       q    Type
REMARK                         _______ _______ _______ _____ _____    ______ ____
ROOT
ATOM      1  C   UNL     1       0.434  10.646  19.563  0.00  0.00    +0.000 A 
ATOM      2  C   UNL     1       0.315   9.895  20.754  0.00  0.00    +0.000 A 
ATOM      3  C   UNL     1       0.932   8.648  20.935  0.00  0.00    +0.000 A 
ATOM      4  C   UNL     1       1.683   8.161  19.873  0.00  0.00    +0.000 A 
ATOM      5  O   UNL     1       2.356   6.976  19.865  0.00  0.00    +0.000 OA
ATOM      6  C   UNL     1       2.970   6.863  18.644  0.00  0.00    +0.000 A 
ATOM      7  C   UNL     1       2.655   7.972  17.872  0.00  0.00    +0.000 A 
ATOM      8  C   UNL     1       1.841   8.831  18.668  0.00  0.00    +0.000 A 
ATOM      9  C   UNL     1       1.209  10.093  18.510  0.00  0.00    +0.000 A 
ENDROOT
BRANCH   1  13
ATOM     10  N   UNL     1      -2.016  14.077  20.862  0.00  0.00    +0.000 NA
ATOM     11  C   UNL     1      -0.857  14.319  20.004  0.00  0.00    +0.000 C 
ATOM     12  C   UNL     1       0.135  13.168  20.165  0.00  0.00    +0.000 C 
ATOM     13  C   UNL     1      -0.398  11.938  19.420  0.00  0.00    +0.000 C 
ATOM     14  C   UNL     1      -1.929  11.788  19.659  0.00  0.00    +0.000 C 
ATOM     15  C   UNL     1      -2.552  12.716  20.734  0.00  0.00    +0.000 C 
BRANCH  13  16
ATOM     16  O   UNL     1      -0.257  12.267  18.011  0.00  0.00    +0.000 OA
ATOM     17  H   UNL     1      -0.319  13.236  17.937  0.00  0.00    +0.000 HD
ENDBRANCH  13  16
BRANCH  10  18
ATOM     18  C   UNL     1      -2.997  15.165  20.721  0.00  0.00    +0.000 C 
BRANCH  18  23
ATOM     19  C   UNL     1      -4.951  17.826  25.543  0.00  0.00    +0.000 C 
ATOM     20  C   UNL     1      -4.401  17.145  24.318  0.00  0.00    +0.000 A 
ATOM     21  C   UNL     1      -3.678  17.860  23.359  0.00  0.00    +0.000 A 
ATOM     22  C   UNL     1      -3.193  17.219  22.211  0.00  0.00    +0.000 A 
ATOM     23  C   UNL     1      -3.421  15.852  22.006  0.00  0.00    +0.000 A 
ATOM     24  C   UNL     1      -4.145  15.142  22.974  0.00  0.00    +0.000 A 
ATOM     25  C   UNL     1      -4.627  15.781  24.122  0.00  0.00    +0.000 A 
ENDBRANCH  18  23
ENDBRANCH  10  18
ENDBRANCH   1  13
BRANCH   6  26
ATOM     26  C   UNL     1       3.797   5.699  18.367  0.00  0.00    +0.000 C 
ATOM     27  O   UNL     1       3.622   4.606  18.900  0.00  0.00    +0.000 OA
ATOM     28  N   UNL     1       4.802   5.900  17.432  0.00  0.00    +0.000 N 
ATOM     29  H   UNL     1       4.832   6.800  16.967  0.00  0.00    +0.000 HD
BRANCH  28  30
ATOM     30  C   UNL     1       5.619   4.799  16.954  0.00  0.00    +0.000 C 
BRANCH  30  31
ATOM     31  C   UNL     1       5.102   4.120  15.677  0.00  0.00    +0.000 C 
BRANCH  31  32
ATOM     32  C   UNL     1       5.967   4.145  14.430  0.00  0.00    +0.000 A 
ATOM     33  C   UNL     1       5.557   3.403  13.309  0.00  0.00    +0.000 A 
ATOM     34  C   UNL     1       6.240   3.489  12.091  0.00  0.00    +0.000 A 
ATOM     35  C   UNL     1       7.340   4.330  11.972  0.00  0.00    +0.000 A 
ATOM     36  C   UNL     1       7.751   5.068  13.075  0.00  0.00    +0.000 A 
ATOM     37  F   UNL     1       8.804   5.889  12.959  0.00  0.00    +0.000 F 
ATOM     38  C   UNL     1       7.081   4.985  14.296  0.00  0.00    +0.000 A 
ENDBRANCH  31  32
ENDBRANCH  30  31
ENDBRANCH  28  30
ENDBRANCH   6  26
TORSDOF 8
ENDMDL
MODEL 9
REMARK VINA RESULT:      -8.3      3.024     11.737
REMARK  Name = 
REMARK  9 active torsions:
REMARK  status: ('A' for Active; 'I' for Inactive)
REMARK    1  A    between atoms: C_1  and  C_2
REMARK    2  A    between atoms: C_5  and  C_6
REMARK    3  A    between atoms: C_6  and  N_7
REMARK    4  A    between atoms: C_10  and  O_11
REMARK    5  A    between atoms: C_10  and  C_12
REMARK    6  A    between atoms: C_17  and  C_18
REMARK    7  A    between atoms: N_20  and  C_21
REMARK    8  A    between atoms: C_21  and  C_22
REMARK    9  A    between atoms: C_22  and  C_23
REMARK                            x       y       z     vdW  Elec       q    Type
REMARK                         _______ _______ _______ _____ _____    ______ ____
ROOT
ATOM      1  C   UNL     1       0.762  10.261  19.502  0.00  0.00    +0.000 A 
ATOM      2  C   UNL     1       0.664   9.449  20.655  0.00  0.00    +0.000 A 
ATOM      3  C   UNL     1       1.307   8.207  20.770  0.00  0.00    +0.000 A 
ATOM      4  C   UNL     1       2.062   7.789  19.682  0.00  0.00    +0.000 A 
ATOM      5  O   UNL     1       2.759   6.621  19.613  0.00  0.00    +0.000 OA
ATOM      6  C   UNL     1       3.370   6.582  18.385  0.00  0.00    +0.000 A 
ATOM      7  C   UNL     1       3.030   7.722  17.671  0.00  0.00    +0.000 A 
ATOM      8  C   UNL     1       2.203   8.523  18.513  0.00  0.00    +0.000 A 
ATOM      9  C   UNL     1       1.544   9.778  18.421  0.00  0.00    +0.000 A 
ENDROOT
BRANCH   1  13
ATOM     10  N   UNL     1      -2.163  13.286  20.827  0.00  0.00    +0.000 NA
ATOM     11  C   UNL     1      -0.848  13.728  20.364  0.00  0.00    +0.000 C 
ATOM     12  C   UNL     1       0.151  12.583  20.527  0.00  0.00    +0.000 C 
ATOM     13  C   UNL     1      -0.096  11.541  19.428  0.00  0.00    +0.000 C 
ATOM     14  C   UNL     1      -1.625  11.322  19.231  0.00  0.00    +0.000 C 
ATOM     15  C   UNL     1      -2.555  11.980  20.282  0.00  0.00    +0.000 C 
BRANCH  13  16
ATOM     16  O   UNL     1       0.365  12.176  18.204  0.00  0.00    +0.000 OA
ATOM     17  H   UNL     1      -0.326  12.808  17.933  0.00  0.00    +0.000 HD
ENDBRANCH  13  16
BRANCH  10  18
ATOM     18  C   UNL     1      -3.152  14.366  20.672  0.00  0.00    +0.000 C 
BRANCH  18  23
ATOM     19  C   UNL     1      -7.735  13.845  24.260  0.00  0.00    +0.000 C 
ATOM     20  C   UNL     1      -6.560  14.029  23.337  0.00  0.00    +0.000 A 
ATOM     21  C   UNL     1      -6.739  14.458  22.019  0.00  0.00    +0.000 A 
ATOM     22  C   UNL     1      -5.638  14.602  21.164  0.00  0.00    +0.000 A 
ATOM     23  C   UNL     1      -4.342  14.320  21.613  0.00  0.00    +0.000 A 
ATOM     24  C   UNL     1      -4.172  13.891  22.938  0.00  0.00    +0.000 A 
ATOM     25  C   UNL     1      -5.270  13.751  23.794  0.00  0.00    +0.000 A 
ENDBRANCH  18  23
ENDBRANCH  10  18
ENDBRANCH   1  13
BRANCH   6  26
ATOM     26  C   UNL     1       4.219   5.451  18.047  0.00  0.00    +0.000 C 
ATOM     27  O   UNL     1       5.360   5.311  18.483  0.00  0.00    +0.000 OA
ATOM     28  N   UNL     1       3.643   4.513  17.202  0.00  0.00    +0.000 N 
ATOM     29  H   UNL     1       2.670   4.647  16.954  0.00  0.00    +0.000 HD
BRANCH  28  30
ATOM     30  C   UNL     1       4.317   3.266  16.887  0.00  0.00    +0.000 C 
BRANCH  30  31
ATOM     31  C   UNL     1       3.950   2.086  17.798  0.00  0.00    +0.000 C 
BRANCH  31  32
ATOM     32  C   UNL     1       3.031   2.330  18.981  0.00  0.00    +0.000 A 
ATOM     33  C   UNL     1       3.599   2.479  20.258  0.00  0.00    +0.000 A 
ATOM     34  C   UNL     1       2.818   2.833  21.364  0.00  0.00    +0.000 A 
ATOM     35  C   UNL     1       1.455   3.056  21.207  0.00  0.00    +0.000 A 
ATOM     36  C   UNL     1       0.886   2.912  19.947  0.00  0.00    +0.000 A 
ATOM     37  F   UNL     1      -0.425   3.138  19.791  0.00  0.00    +0.000 F 
ATOM     38  C   UNL     1       1.654   2.553  18.839  0.00  0.00    +0.000 A 
ENDBRANCH  31  32
ENDBRANCH  30  31
ENDBRANCH  28  30
ENDBRANCH   6  26
TORSDOF 8
ENDMDL
