MODEL 1
REMARK VINA RESULT:      -6.7      0.000      0.000
REMARK  Name = 
REMARK  12 active torsions:
REMARK  status: ('A' for Active; 'I' for Inactive)
REMARK    1  A    between atoms: C_1  and  O_2
REMARK    2  A    between atoms: O_2  and  C_3
REMARK    3  A    between atoms: C_5  and  C_6
REMARK    4  A    between atoms: C_6  and  O_8
REMARK    5  A    between atoms: O_8  and  C_9
REMARK    6  A    between atoms: C_9  and  C_10
REMARK    7  A    between atoms: C_10  and  N_11
REMARK    8  A    between atoms: C_12  and  C_14
REMARK    9  A    between atoms: C_21  and  O_22
REMARK   10  A    between atoms: O_22  and  C_23
REMARK   11  A    between atoms: C_24  and  O_25
REMARK   12  A    between atoms: O_25  and  C_26
REMARK                            x       y       z     vdW  Elec       q    Type
REMARK                         _______ _______ _______ _____ _____    ______ ____
ROOT
ATOM      1  C   UNL     1       3.742   3.837  17.371  0.00  0.00    +0.000 C 
ATOM      2  O   UNL     1       2.641   4.357  17.242  0.00  0.00    +0.000 OA
ENDROOT
BRANCH   1   5
ATOM      3  C   UNL     1       6.119   4.034  14.385  0.00  0.00    +0.000 A 
ATOM      4  C   UNL     1       5.065   3.672  15.241  0.00  0.00    +0.000 A 
ATOM      5  C   UNL     1       4.865   4.264  16.491  0.00  0.00    +0.000 A 
ATOM      6  C   UNL     1       5.734   5.265  16.902  0.00  0.00    +0.000 A 
ATOM      7  C   UNL     1       6.801   5.679  16.086  0.00  0.00    +0.000 A 
ATOM      8  C   UNL     1       7.023   5.081  14.823  0.00  0.00    +0.000 A 
BRANCH   3  10
ATOM      9  C   UNL     1       5.415   3.298  12.047  0.00  0.00    +0.000 C 
ATOM     10  O   UNL     1       6.107   3.290  13.236  0.00  0.00    +0.000 OA
ENDBRANCH   3  10
BRANCH   7  11
ATOM     11  O   UNL     1       7.641   6.677  16.484  0.00  0.00    +0.000 OA
ATOM     12  C   UNL     1       7.401   7.573  17.512  0.00  0.00    +0.000 C 
ENDBRANCH   7  11
BRANCH   8  13
ATOM     13  O   UNL     1       8.093   5.610  14.163  0.00  0.00    +0.000 OA
ATOM     14  C   UNL     1       8.396   5.775  12.841  0.00  0.00    +0.000 C 
ENDBRANCH   8  13
ENDBRANCH   1   5
BRANCH   1  15
ATOM     15  O   UNL     1       3.945   2.881  18.321  0.00  0.00    +0.000 OA
BRANCH  15  16
ATOM     16  C   UNL     1       4.540   3.090  19.554  0.00  0.00    +0.000 C 
BRANCH  16  17
ATOM     17  C   UNL     1       3.535   3.666  20.559  0.00  0.00    +0.000 C 
BRANCH  17  18
ATOM     18  N   UNL     1       3.295   5.076  20.286  0.00  0.00    +0.000 N 
ATOM     19  C   UNL     1       2.038   5.609  20.262  0.00  0.00    +0.000 C 
ATOM     20  O   UNL     1       1.077   4.880  20.477  0.00  0.00    +0.000 OA
ATOM     21  H   UNL     1       4.111   5.671  20.107  0.00  0.00    +0.000 HD
BRANCH  19  22
ATOM     22  C   UNL     1       1.786   7.065  19.980  0.00  0.00    +0.000 A 
ATOM     23  C   UNL     1       1.269   7.954  20.949  0.00  0.00    +0.000 A 
ATOM     24  C   UNL     1       1.055   9.296  20.626  0.00  0.00    +0.000 A 
ATOM     25  N   UNL     1       1.340   9.753  19.380  0.00  0.00    +0.000 NA
ATOM     26  C   UNL     1       1.840   8.934  18.421  0.00  0.00    +0.000 A 
ATOM     27  C   UNL     1       2.070   7.585  18.700  0.00  0.00    +0.000 A 
ENDBRANCH  19  22
ENDBRANCH  17  18
ENDBRANCH  16  17
ENDBRANCH  15  16
ENDBRANCH   1  15
TORSDOF 9
ENDMDL
MODEL 2
REMARK VINA RESULT:      -6.6      3.625      6.276
REMARK  Name = 
REMARK  12 active torsions:
REMARK  status: ('A' for Active; 'I' for Inactive)
REMARK    1  A    between atoms: C_1  and  O_2
REMARK    2  A    between atoms: O_2  and  C_3
REMARK    3  A    between atoms: C_5  and  C_6
REMARK    4  A    between atoms: C_6  and  O_8
REMARK    5  A    between atoms: O_8  and  C_9
REMARK    6  A    between atoms: C_9  and  C_10
REMARK    7  A    between atoms: C_10  and  N_11
REMARK    8  A    between atoms: C_12  and  C_14
REMARK    9  A    between atoms: C_21  and  O_22
REMARK   10  A    between atoms: O_22  and  C_23
REMARK   11  A    between atoms: C_24  and  O_25
REMARK   12  A    between atoms: O_25  and  C_26
REMARK                            x       y       z     vdW  Elec       q    Type
REMARK                         _______ _______ _______ _____ _____    ______ ____
ROOT
ATOM      1  C   UNL     1       1.959   8.001  19.638  0.00  0.00    +0.000 C 
ATOM      2  O   UNL     1       1.811   8.742  18.675  0.00  0.00    +0.000 OA
ENDROOT
BRANCH   1   5
ATOM      3  C   UNL     1       3.703   5.001  18.037  0.00  0.00    +0.000 A 
ATOM      4  C   UNL     1       3.197   6.289  18.277  0.00  0.00    +0.000 A 
ATOM      5  C   UNL     1       2.488   6.624  19.434  0.00  0.00    +0.000 A 
ATOM      6  C   UNL     1       2.286   5.647  20.400  0.00  0.00    +0.000 A 
ATOM      7  C   UNL     1       2.777   4.341  20.223  0.00  0.00    +0.000 A 
ATOM      8  C   UNL     1       3.487   3.985  19.051  0.00  0.00    +0.000 A 
BRANCH   3  10
ATOM      9  C   UNL     1       5.172   5.732  16.086  0.00  0.00    +0.000 C 
ATOM     10  O   UNL     1       4.334   4.930  16.825  0.00  0.00    +0.000 OA
ENDBRANCH   3  10
BRANCH   7  11
ATOM     11  O   UNL     1       2.595   3.389  21.182  0.00  0.00    +0.000 OA
ATOM     12  C   UNL     1       1.397   2.765  21.483  0.00  0.00    +0.000 C 
ENDBRANCH   7  11
BRANCH   8  13
ATOM     13  O   UNL     1       3.897   2.685  19.051  0.00  0.00    +0.000 OA
ATOM     14  C   UNL     1       3.503   1.573  18.360  0.00  0.00    +0.000 C 
ENDBRANCH   8  13
ENDBRANCH   1   5
BRANCH   1  15
ATOM     15  O   UNL     1       1.652   8.435  20.893  0.00  0.00    +0.000 OA
BRANCH  15  16
ATOM     16  C   UNL     1       0.377   8.717  21.355  0.00  0.00    +0.000 C 
BRANCH  16  17
ATOM     17  C   UNL     1      -0.084  10.102  20.883  0.00  0.00    +0.000 C 
BRANCH  17  18
ATOM     18  N   UNL     1      -0.877   9.987  19.668  0.00  0.00    +0.000 N 
ATOM     19  C   UNL     1      -1.652  11.012  19.205  0.00  0.00    +0.000 C 
ATOM     20  O   UNL     1      -1.683  12.065  19.829  0.00  0.00    +0.000 OA
ATOM     21  H   UNL     1      -0.842   9.097  19.159  0.00  0.00    +0.000 HD
BRANCH  19  22
ATOM     22  C   UNL     1      -2.474  10.896  17.950  0.00  0.00    +0.000 A 
ATOM     23  C   UNL     1      -3.708  11.562  17.779  0.00  0.00    +0.000 A 
ATOM     24  C   UNL     1      -4.426  11.413  16.590  0.00  0.00    +0.000 A 
ATOM     25  N   UNL     1      -3.944  10.627  15.593  0.00  0.00    +0.000 NA
ATOM     26  C   UNL     1      -2.762   9.972  15.716  0.00  0.00    +0.000 A 
ATOM     27  C   UNL     1      -2.010  10.092  16.887  0.00  0.00    +0.000 A 
ENDBRANCH  19  22
ENDBRANCH  17  18
ENDBRANCH  16  17
ENDBRANCH  15  16
ENDBRANCH   1  15
TORSDOF 9
ENDMDL
MODEL 3
REMARK VINA RESULT:      -6.6      1.426      1.987
REMARK  Name = 
REMARK  12 active torsions:
REMARK  status: ('A' for Active; 'I' for Inactive)
REMARK    1  A    between atoms: C_1  and  O_2
REMARK    2  A    between atoms: O_2  and  C_3
REMARK    3  A    between atoms: C_5  and  C_6
REMARK    4  A    between atoms: C_6  and  O_8
REMARK    5  A    between atoms: O_8  and  C_9
REMARK    6  A    between atoms: C_9  and  C_10
REMARK    7  A    between atoms: C_10  and  N_11
REMARK    8  A    between atoms: C_12  and  C_14
REMARK    9  A    between atoms: C_21  and  O_22
REMARK   10  A    between atoms: O_22  and  C_23
REMARK   11  A    between atoms: C_24  and  O_25
REMARK   12  A    between atoms: O_25  and  C_26
REMARK                            x       y       z     vdW  Elec       q    Type
REMARK                         _______ _______ _______ _____ _____    ______ ____
ROOT
ATOM      1  C   UNL     1       4.039   3.724  17.758  0.00  0.00    +0.000 C 
ATOM      2  O   UNL     1       4.372   3.009  18.693  0.00  0.00    +0.000 OA
ENDROOT
BRANCH   1   5
ATOM      3  C   UNL     1       6.114   4.030  14.563  0.00  0.00    +0.000 A 
ATOM      4  C   UNL     1       5.153   3.631  15.507  0.00  0.00    +0.000 A 
ATOM      5  C   UNL     1       5.065   4.190  16.785  0.00  0.00    +0.000 A 
ATOM      6  C   UNL     1       5.955   5.197  17.136  0.00  0.00    +0.000 A 
ATOM      7  C   UNL     1       6.933   5.648  16.231  0.00  0.00    +0.000 A 
ATOM      8  C   UNL     1       7.041   5.082  14.938  0.00  0.00    +0.000 A 
BRANCH   3  10
ATOM      9  C   UNL     1       5.292   3.415  12.229  0.00  0.00    +0.000 C 
ATOM     10  O   UNL     1       6.002   3.313  13.403  0.00  0.00    +0.000 OA
ENDBRANCH   3  10
BRANCH   7  11
ATOM     11  O   UNL     1       7.792   6.650  16.571  0.00  0.00    +0.000 OA
ATOM     12  C   UNL     1       7.559   7.625  17.526  0.00  0.00    +0.000 C 
ENDBRANCH   7  11
BRANCH   8  13
ATOM     13  O   UNL     1       8.034   5.644  14.192  0.00  0.00    +0.000 OA
ATOM     14  C   UNL     1       8.325   5.640  12.857  0.00  0.00    +0.000 C 
ENDBRANCH   8  13
ENDBRANCH   1   5
BRANCH   1  15
ATOM     15  O   UNL     1       2.734   4.085  17.598  0.00  0.00    +0.000 OA
BRANCH  15  16
ATOM     16  C   UNL     1       2.049   4.990  18.392  0.00  0.00    +0.000 C 
BRANCH  16  17
ATOM     17  C   UNL     1       3.020   5.814  19.247  0.00  0.00    +0.000 C 
BRANCH  17  18
ATOM     18  N   UNL     1       2.286   6.714  20.125  0.00  0.00    +0.000 N 
ATOM     19  C   UNL     1       1.868   7.949  19.718  0.00  0.00    +0.000 C 
ATOM     20  O   UNL     1       2.117   8.316  18.576  0.00  0.00    +0.000 OA
ATOM     21  H   UNL     1       2.087   6.391  21.078  0.00  0.00    +0.000 HD
BRANCH  19  22
ATOM     22  C   UNL     1       1.109   8.881  20.622  0.00  0.00    +0.000 A 
ATOM     23  C   UNL     1       0.994   8.672  22.015  0.00  0.00    +0.000 A 
ATOM     24  C   UNL     1       0.274   9.573  22.802  0.00  0.00    +0.000 A 
ATOM     25  N   UNL     1      -0.321  10.653  22.235  0.00  0.00    +0.000 NA
ATOM     26  C   UNL     1      -0.233  10.893  20.902  0.00  0.00    +0.000 A 
ATOM     27  C   UNL     1       0.478  10.018  20.076  0.00  0.00    +0.000 A 
ENDBRANCH  19  22
ENDBRANCH  17  18
ENDBRANCH  16  17
ENDBRANCH  15  16
ENDBRANCH   1  15
TORSDOF 9
ENDMDL
MODEL 4
REMARK VINA RESULT:      -6.4      1.524      3.226
REMARK  Name = 
REMARK  12 active torsions:
REMARK  status: ('A' for Active; 'I' for Inactive)
REMARK    1  A    between atoms: C_1  and  O_2
REMARK    2  A    between atoms: O_2  and  C_3
REMARK    3  A    between atoms: C_5  and  C_6
REMARK    4  A    between atoms: C_6  and  O_8
REMARK    5  A    between atoms: O_8  and  C_9
REMARK    6  A    between atoms: C_9  and  C_10
REMARK    7  A    between atoms: C_10  and  N_11
REMARK    8  A    between atoms: C_12  and  C_14
REMARK    9  A    between atoms: C_21  and  O_22
REMARK   10  A    between atoms: O_22  and  C_23
REMARK   11  A    between atoms: C_24  and  O_25
REMARK   12  A    between atoms: O_25  and  C_26
REMARK                            x       y       z     vdW  Elec       q    Type
REMARK                         _______ _______ _______ _____ _____    ______ ____
ROOT
ATOM      1  C   UNL     1       3.205   2.837  17.583  0.00  0.00    +0.000 C 
ATOM      2  O   UNL     1       2.263   2.896  16.804  0.00  0.00    +0.000 OA
ENDROOT
BRANCH   1   5
ATOM      3  C   UNL     1       6.144   5.118  18.456  0.00  0.00    +0.000 A 
ATOM      4  C   UNL     1       5.072   4.214  18.547  0.00  0.00    +0.000 A 
ATOM      5  C   UNL     1       4.343   3.785  17.435  0.00  0.00    +0.000 A 
ATOM      6  C   UNL     1       4.702   4.257  16.179  0.00  0.00    +0.000 A 
ATOM      7  C   UNL     1       5.773   5.154  16.021  0.00  0.00    +0.000 A 
ATOM      8  C   UNL     1       6.512   5.607  17.139  0.00  0.00    +0.000 A 
BRANCH   3  10
ATOM      9  C   UNL     1       7.920   5.653  20.206  0.00  0.00    +0.000 C 
ATOM     10  O   UNL     1       6.672   5.394  19.688  0.00  0.00    +0.000 OA
ENDBRANCH   3  10
BRANCH   7  11
ATOM     11  O   UNL     1       6.135   5.600  14.784  0.00  0.00    +0.000 OA
ATOM     12  C   UNL     1       6.709   4.834  13.785  0.00  0.00    +0.000 C 
ENDBRANCH   7  11
BRANCH   8  13
ATOM     13  O   UNL     1       7.518   6.463  16.802  0.00  0.00    +0.000 OA
ATOM     14  C   UNL     1       7.858   7.723  17.208  0.00  0.00    +0.000 C 
ENDBRANCH   8  13
ENDBRANCH   1   5
BRANCH   1  15
ATOM     15  O   UNL     1       3.209   1.917  18.589  0.00  0.00    +0.000 OA
BRANCH  15  16
ATOM     16  C   UNL     1       3.015   2.197  19.932  0.00  0.00    +0.000 C 
BRANCH  16  17
ATOM     17  C   UNL     1       1.608   2.755  20.178  0.00  0.00    +0.000 C 
BRANCH  17  18
ATOM     18  N   UNL     1       1.512   4.124  19.692  0.00  0.00    +0.000 N 
ATOM     19  C   UNL     1       2.033   5.181  20.383  0.00  0.00    +0.000 C 
ATOM     20  O   UNL     1       2.601   4.974  21.448  0.00  0.00    +0.000 OA
ATOM     21  H   UNL     1       1.030   4.278  18.799  0.00  0.00    +0.000 HD
BRANCH  19  22
ATOM     22  C   UNL     1       1.935   6.596  19.883  0.00  0.00    +0.000 A 
ATOM     23  C   UNL     1       2.400   6.992  18.609  0.00  0.00    +0.000 A 
ATOM     24  C   UNL     1       2.282   8.323  18.203  0.00  0.00    +0.000 A 
ATOM     25  N   UNL     1       1.724   9.244  19.029  0.00  0.00    +0.000 NA
ATOM     26  C   UNL     1       1.263   8.906  20.259  0.00  0.00    +0.000 A 
ATOM     27  C   UNL     1       1.359   7.586  20.707  0.00  0.00    +0.000 A 
ENDBRANCH  19  22
ENDBRANCH  17  18
ENDBRANCH  16  17
ENDBRANCH  15  16
ENDBRANCH   1  15
TORSDOF 9
ENDMDL
MODEL 5
REMARK VINA RESULT:      -6.4      4.279      7.517
REMARK  Name = 
REMARK  12 active torsions:
REMARK  status: ('A' for Active; 'I' for Inactive)
REMARK    1  A    between atoms: C_1  and  O_2
REMARK    2  A    between atoms: O_2  and  C_3
REMARK    3  A    between atoms: C_5  and  C_6
REMARK    4  A    between atoms: C_6  and  O_8
REMARK    5  A    between atoms: O_8  and  C_9
REMARK    6  A    between atoms: C_9  and  C_10
REMARK    7  A    between atoms: C_10  and  N_11
REMARK    8  A    between atoms: C_12  and  C_14
REMARK    9  A    between atoms: C_21  and  O_22
REMARK   10  A    between atoms: O_22  and  C_23
REMARK   11  A    between atoms: C_24  and  O_25
REMARK   12  A    between atoms: O_25  and  C_26
REMARK                            x       y       z     vdW  Elec       q    Type
REMARK                         _______ _______ _______ _____ _____    ______ ____
ROOT
ATOM      1  C   UNL     1       6.540   6.099  16.439  0.00  0.00    +0.000 C 
ATOM      2  O   UNL     1       6.679   5.722  15.283  0.00  0.00    +0.000 OA
ENDROOT
BRANCH   1   5
ATOM      3  C   UNL     1       4.124   4.007  18.533  0.00  0.00    +0.000 A 
ATOM      4  C   UNL     1       5.250   4.437  17.812  0.00  0.00    +0.000 A 
ATOM      5  C   UNL     1       5.331   5.693  17.206  0.00  0.00    +0.000 A 
ATOM      6  C   UNL     1       4.258   6.566  17.334  0.00  0.00    +0.000 A 
ATOM      7  C   UNL     1       3.107   6.198  18.053  0.00  0.00    +0.000 A 
ATOM      8  C   UNL     1       3.007   4.925  18.662  0.00  0.00    +0.000 A 
BRANCH   3  10
ATOM      9  C   UNL     1       4.465   2.133  20.230  0.00  0.00    +0.000 C 
ATOM     10  O   UNL     1       4.288   2.732  19.003  0.00  0.00    +0.000 OA
ENDBRANCH   3  10
BRANCH   7  11
ATOM     11  O   UNL     1       2.064   7.066  18.194  0.00  0.00    +0.000 OA
ATOM     12  C   UNL     1       2.101   8.424  17.933  0.00  0.00    +0.000 C 
ENDBRANCH   7  11
BRANCH   8  13
ATOM     13  O   UNL     1       1.829   4.742  19.324  0.00  0.00    +0.000 OA
ATOM     14  C   UNL     1       1.037   3.652  19.552  0.00  0.00    +0.000 C 
ENDBRANCH   8  13
ENDBRANCH   1   5
BRANCH   1  15
ATOM     15  O   UNL     1       7.492   6.877  17.027  0.00  0.00    +0.000 OA
BRANCH  15  16
ATOM     16  C   UNL     1       7.323   8.196  17.415  0.00  0.00    +0.000 C 
BRANCH  16  17
ATOM     17  C   UNL     1       8.469   8.651  18.327  0.00  0.00    +0.000 C 
BRANCH  17  18
ATOM     18  N   UNL     1       8.882  10.005  17.986  0.00  0.00    +0.000 N 
ATOM     19  C   UNL     1       9.366  10.876  18.921  0.00  0.00    +0.000 C 
ATOM     20  O   UNL     1       9.457  10.509  20.086  0.00  0.00    +0.000 OA
ATOM     21  H   UNL     1       8.797  10.296  17.006  0.00  0.00    +0.000 HD
BRANCH  19  22
ATOM     22  C   UNL     1       9.793  12.276  18.572  0.00  0.00    +0.000 A 
ATOM     23  C   UNL     1      10.695  12.562  17.523  0.00  0.00    +0.000 A 
ATOM     24  C   UNL     1      11.055  13.883  17.250  0.00  0.00    +0.000 A 
ATOM     25  N   UNL     1      10.543  14.899  17.990  0.00  0.00    +0.000 NA
ATOM     26  C   UNL     1       9.672  14.669  19.004  0.00  0.00    +0.000 A 
ATOM     27  C   UNL     1       9.283  13.362  19.313  0.00  0.00    +0.000 A 
ENDBRANCH  19  22
ENDBRANCH  17  18
ENDBRANCH  16  17
ENDBRANCH  15  16
ENDBRANCH   1  15
TORSDOF 9
ENDMDL
MODEL 6
REMARK VINA RESULT:      -6.4      4.309      7.617
REMARK  Name = 
REMARK  12 active torsions:
REMARK  status: ('A' for Active; 'I' for Inactive)
REMARK    1  A    between atoms: C_1  and  O_2
REMARK    2  A    between atoms: O_2  and  C_3
REMARK    3  A    between atoms: C_5  and  C_6
REMARK    4  A    between atoms: C_6  and  O_8
REMARK    5  A    between atoms: O_8  and  C_9
REMARK    6  A    between atoms: C_9  and  C_10
REMARK    7  A    between atoms: C_10  and  N_11
REMARK    8  A    between atoms: C_12  and  C_14
REMARK    9  A    between atoms: C_21  and  O_22
REMARK   10  A    between atoms: O_22  and  C_23
REMARK   11  A    between atoms: C_24  and  O_25
REMARK   12  A    between atoms: O_25  and  C_26
REMARK                            x       y       z     vdW  Elec       q    Type
REMARK                         _______ _______ _______ _____ _____    ______ ____
ROOT
ATOM      1  C   UNL     1       6.895   5.715  18.774  0.00  0.00    +0.000 C 
ATOM      2  O   UNL     1       7.372   5.535  19.887  0.00  0.00    +0.000 OA
ENDROOT
BRANCH   1   5
ATOM      3  C   UNL     1       3.129   5.720  18.127  0.00  0.00    +0.000 A 
ATOM      4  C   UNL     1       4.446   6.129  18.392  0.00  0.00    +0.000 A 
ATOM      5  C   UNL     1       5.517   5.235  18.477  0.00  0.00    +0.000 A 
ATOM      6  C   UNL     1       5.275   3.883  18.275  0.00  0.00    +0.000 A 
ATOM      7  C   UNL     1       3.980   3.412  17.995  0.00  0.00    +0.000 A 
ATOM      8  C   UNL     1       2.884   4.305  17.918  0.00  0.00    +0.000 A 
BRANCH   3  10
ATOM      9  C   UNL     1       2.234   8.047  18.665  0.00  0.00    +0.000 C 
ATOM     10  O   UNL     1       2.267   6.783  18.121  0.00  0.00    +0.000 OA
ENDBRANCH   3  10
BRANCH   7  11
ATOM     11  O   UNL     1       3.749   2.086  17.778  0.00  0.00    +0.000 OA
ATOM     12  C   UNL     1       3.739   1.098  18.747  0.00  0.00    +0.000 C 
ENDBRANCH   7  11
BRANCH   8  13
ATOM     13  O   UNL     1       1.707   3.680  17.630  0.00  0.00    +0.000 OA
ATOM     14  C   UNL     1       0.673   3.219  18.396  0.00  0.00    +0.000 C 
ENDBRANCH   8  13
ENDBRANCH   1   5
BRANCH   1  15
ATOM     15  O   UNL     1       7.615   6.360  17.814  0.00  0.00    +0.000 OA
BRANCH  15  16
ATOM     16  C   UNL     1       7.577   7.722  17.563  0.00  0.00    +0.000 C 
BRANCH  16  17
ATOM     17  C   UNL     1       8.387   8.496  18.611  0.00  0.00    +0.000 C 
BRANCH  17  18
ATOM     18  N   UNL     1       8.829   9.773  18.071  0.00  0.00    +0.000 N 
ATOM     19  C   UNL     1       9.371  10.749  18.858  0.00  0.00    +0.000 C 
ATOM     20  O   UNL     1       9.491  10.546  20.060  0.00  0.00    +0.000 OA
ATOM     21  H   UNL     1       8.719   9.926  17.062  0.00  0.00    +0.000 HD
BRANCH  19  22
ATOM     22  C   UNL     1       9.829  12.070  18.303  0.00  0.00    +0.000 A 
ATOM     23  C   UNL     1      11.000  12.209  17.525  0.00  0.00    +0.000 A 
ATOM     24  C   UNL     1      11.373  13.464  17.040  0.00  0.00    +0.000 A 
ATOM     25  N   UNL     1      10.616  14.556  17.313  0.00  0.00    +0.000 NA
ATOM     26  C   UNL     1       9.483  14.467  18.053  0.00  0.00    +0.000 A 
ATOM     27  C   UNL     1       9.071  13.231  18.560  0.00  0.00    +0.000 A 
ENDBRANCH  19  22
ENDBRANCH  17  18
ENDBRANCH  16  17
ENDBRANCH  15  16
ENDBRANCH   1  15
TORSDOF 9
ENDMDL
MODEL 7
REMARK VINA RESULT:      -6.4      2.765      7.738
REMARK  Name = 
REMARK  12 active torsions:
REMARK  status: ('A' for Active; 'I' for Inactive)
REMARK    1  A    between atoms: C_1  and  O_2
REMARK    2  A    between atoms: O_2  and  C_3
REMARK    3  A    between atoms: C_5  and  C_6
REMARK    4  A    between atoms: C_6  and  O_8
REMARK    5  A    between atoms: O_8  and  C_9
REMARK    6  A    between atoms: C_9  and  C_10
REMARK    7  A    between atoms: C_10  and  N_11
REMARK    8  A    between atoms: C_12  and  C_14
REMARK    9  A    between atoms: C_21  and  O_22
REMARK   10  A    between atoms: O_22  and  C_23
REMARK   11  A    between atoms: C_24  and  O_25
REMARK   12  A    between atoms: O_25  and  C_26
REMARK                            x       y       z     vdW  Elec       q    Type
REMARK                         _______ _______ _______ _____ _____    ______ ____
ROOT
ATOM      1  C   UNL     1       2.563   6.054  19.841  0.00  0.00    +0.000 C 
ATOM      2  O   UNL     1       3.785   5.999  19.811  0.00  0.00    +0.000 OA
ENDROOT
BRANCH   1   5
ATOM      3  C   UNL     1       0.494   8.932  21.270  0.00  0.00    +0.000 A 
ATOM      4  C   UNL     1       1.158   7.704  21.113  0.00  0.00    +0.000 A 
ATOM      5  C   UNL     1       1.888   7.375  19.968  0.00  0.00    +0.000 A 
ATOM      6  C   UNL     1       1.978   8.308  18.943  0.00  0.00    +0.000 A 
ATOM      7  C   UNL     1       1.346   9.560  19.045  0.00  0.00    +0.000 A 
ATOM      8  C   UNL     1       0.593   9.901  20.194  0.00  0.00    +0.000 A 
BRANCH   3  10
ATOM      9  C   UNL     1      -0.722   9.978  23.252  0.00  0.00    +0.000 C 
ATOM     10  O   UNL     1      -0.166   8.994  22.467  0.00  0.00    +0.000 OA
ENDBRANCH   3  10
BRANCH   7  11
ATOM     11  O   UNL     1       1.453  10.481  18.045  0.00  0.00    +0.000 OA
ATOM     12  C   UNL     1       2.461  11.421  17.917  0.00  0.00    +0.000 C 
ENDBRANCH   7  11
BRANCH   8  13
ATOM     13  O   UNL     1       0.059  11.154  20.128  0.00  0.00    +0.000 OA
ATOM     14  C   UNL     1       0.339  12.332  20.762  0.00  0.00    +0.000 C 
ENDBRANCH   8  13
ENDBRANCH   1   5
BRANCH   1  15
ATOM     15  O   UNL     1       1.820   4.915  19.746  0.00  0.00    +0.000 OA
BRANCH  15  16
ATOM     16  C   UNL     1       2.098   3.721  20.391  0.00  0.00    +0.000 C 
BRANCH  16  17
ATOM     17  C   UNL     1       2.603   2.666  19.399  0.00  0.00    +0.000 C 
BRANCH  17  18
ATOM     18  N   UNL     1       3.847   3.102  18.782  0.00  0.00    +0.000 N 
ATOM     19  C   UNL     1       3.907   3.523  17.483  0.00  0.00    +0.000 C 
ATOM     20  O   UNL     1       2.882   3.535  16.813  0.00  0.00    +0.000 OA
ATOM     21  H   UNL     1       4.695   3.084  19.358  0.00  0.00    +0.000 HD
BRANCH  19  22
ATOM     22  C   UNL     1       5.191   3.975  16.842  0.00  0.00    +0.000 A 
ATOM     23  C   UNL     1       5.390   3.973  15.444  0.00  0.00    +0.000 A 
ATOM     24  C   UNL     1       6.607   4.402  14.909  0.00  0.00    +0.000 A 
ATOM     25  N   UNL     1       7.604   4.822  15.728  0.00  0.00    +0.000 NA
ATOM     26  C   UNL     1       7.454   4.842  17.076  0.00  0.00    +0.000 A 
ATOM     27  C   UNL     1       6.254   4.421  17.655  0.00  0.00    +0.000 A 
ENDBRANCH  19  22
ENDBRANCH  17  18
ENDBRANCH  16  17
ENDBRANCH  15  16
ENDBRANCH   1  15
TORSDOF 9
ENDMDL
MODEL 8
REMARK VINA RESULT:      -6.4      1.768      2.535
REMARK  Name = 
REMARK  12 active torsions:
REMARK  status: ('A' for Active; 'I' for Inactive)
REMARK    1  A    between atoms: C_1  and  O_2
REMARK    2  A    between atoms: O_2  and  C_3
REMARK    3  A    between atoms: C_5  and  C_6
REMARK    4  A    between atoms: C_6  and  O_8
REMARK    5  A    between atoms: O_8  and  C_9
REMARK    6  A    between atoms: C_9  and  C_10
REMARK    7  A    between atoms: C_10  and  N_11
REMARK    8  A    between atoms: C_12  and  C_14
REMARK    9  A    between atoms: C_21  and  O_22
REMARK   10  A    between atoms: O_22  and  C_23
REMARK   11  A    between atoms: C_24  and  O_25
REMARK   12  A    between atoms: O_25  and  C_26
REMARK                            x       y       z     vdW  Elec       q    Type
REMARK                         _______ _______ _______ _____ _____    ______ ____
ROOT
ATOM      1  C   UNL     1       4.100   3.748  18.345  0.00  0.00    +0.000 C 
ATOM      2  O   UNL     1       4.387   2.714  18.932  0.00  0.00    +0.000 OA
ENDROOT
BRANCH   1   5
ATOM      3  C   UNL     1       5.641   4.267  14.886  0.00  0.00    +0.000 A 
ATOM      4  C   UNL     1       4.819   3.831  15.938  0.00  0.00    +0.000 A 
ATOM      5  C   UNL     1       4.989   4.250  17.260  0.00  0.00    +0.000 A 
ATOM      6  C   UNL     1       6.005   5.151  17.549  0.00  0.00    +0.000 A 
ATOM      7  C   UNL     1       6.855   5.633  16.538  0.00  0.00    +0.000 A 
ATOM      8  C   UNL     1       6.702   5.208  15.197  0.00  0.00    +0.000 A 
BRANCH   3  10
ATOM      9  C   UNL     1       5.920   3.278  12.552  0.00  0.00    +0.000 C 
ATOM     10  O   UNL     1       5.281   3.692  13.698  0.00  0.00    +0.000 OA
ENDBRANCH   3  10
BRANCH   7  11
ATOM     11  O   UNL     1       7.840   6.533  16.822  0.00  0.00    +0.000 OA
ATOM     12  C   UNL     1       7.675   7.720  17.513  0.00  0.00    +0.000 C 
ENDBRANCH   7  11
BRANCH   8  13
ATOM     13  O   UNL     1       7.603   5.782  14.349  0.00  0.00    +0.000 OA
ATOM     14  C   UNL     1       8.102   5.430  13.127  0.00  0.00    +0.000 C 
ENDBRANCH   8  13
ENDBRANCH   1   5
BRANCH   1  15
ATOM     15  O   UNL     1       2.969   4.434  18.671  0.00  0.00    +0.000 OA
BRANCH  15  16
ATOM     16  C   UNL     1       2.837   5.299  19.745  0.00  0.00    +0.000 C 
BRANCH  16  17
ATOM     17  C   UNL     1       2.715   6.751  19.269  0.00  0.00    +0.000 C 
BRANCH  17  18
ATOM     18  N   UNL     1       2.060   7.565  20.282  0.00  0.00    +0.000 N 
ATOM     19  C   UNL     1       1.388   8.713  19.972  0.00  0.00    +0.000 C 
ATOM     20  O   UNL     1       1.331   9.073  18.803  0.00  0.00    +0.000 OA
ATOM     21  H   UNL     1       2.119   7.250  21.257  0.00  0.00    +0.000 HD
BRANCH  19  22
ATOM     22  C   UNL     1       0.710   9.557  21.017  0.00  0.00    +0.000 A 
ATOM     23  C   UNL     1       0.456  10.935  20.842  0.00  0.00    +0.000 A 
ATOM     24  C   UNL     1      -0.176  11.665  21.851  0.00  0.00    +0.000 A 
ATOM     25  N   UNL     1      -0.548  11.057  23.005  0.00  0.00    +0.000 NA
ATOM     26  C   UNL     1      -0.325   9.735  23.214  0.00  0.00    +0.000 A 
ATOM     27  C   UNL     1       0.304   8.965  22.232  0.00  0.00    +0.000 A 
ENDBRANCH  19  22
ENDBRANCH  17  18
ENDBRANCH  16  17
ENDBRANCH  15  16
ENDBRANCH   1  15
TORSDOF 9
ENDMDL
MODEL 9
REMARK VINA RESULT:      -6.3      3.645      5.279
REMARK  Name = 
REMARK  12 active torsions:
REMARK  status: ('A' for Active; 'I' for Inactive)
REMARK    1  A    between atoms: C_1  and  O_2
REMARK    2  A    between atoms: O_2  and  C_3
REMARK    3  A    between atoms: C_5  and  C_6
REMARK    4  A    between atoms: C_6  and  O_8
REMARK    5  A    between atoms: O_8  and  C_9
REMARK    6  A    between atoms: C_9  and  C_10
REMARK    7  A    between atoms: C_10  and  N_11
REMARK    8  A    between atoms: C_12  and  C_14
REMARK    9  A    between atoms: C_21  and  O_22
REMARK   10  A    between atoms: O_22  and  C_23
REMARK   11  A    between atoms: C_24  and  O_25
REMARK   12  A    between atoms: O_25  and  C_26
REMARK                            x       y       z     vdW  Elec       q    Type
REMARK                         _______ _______ _______ _____ _____    ______ ____
ROOT
ATOM      1  C   UNL     1       2.364   6.844  19.151  0.00  0.00    +0.000 C 
ATOM      2  O   UNL     1       1.973   6.388  20.217  0.00  0.00    +0.000 OA
ENDROOT
BRANCH   1   5
ATOM      3  C   UNL     1       4.192   3.981  17.401  0.00  0.00    +0.000 A 
ATOM      4  C   UNL     1       3.251   4.727  18.129  0.00  0.00    +0.000 A 
ATOM      5  C   UNL     1       3.381   6.099  18.360  0.00  0.00    +0.000 A 
ATOM      6  C   UNL     1       4.481   6.762  17.833  0.00  0.00    +0.000 A 
ATOM      7  C   UNL     1       5.453   6.074  17.085  0.00  0.00    +0.000 A 
ATOM      8  C   UNL     1       5.340   4.682  16.854  0.00  0.00    +0.000 A 
BRANCH   3  10
ATOM      9  C   UNL     1       3.344   1.716  18.208  0.00  0.00    +0.000 C 
ATOM     10  O   UNL     1       3.845   2.659  17.340  0.00  0.00    +0.000 OA
ENDBRANCH   3  10
BRANCH   7  11
ATOM     11  O   UNL     1       6.522   6.732  16.552  0.00  0.00    +0.000 OA
ATOM     12  C   UNL     1       7.530   7.352  17.270  0.00  0.00    +0.000 C 
ENDBRANCH   7  11
BRANCH   8  13
ATOM     13  O   UNL     1       6.362   4.182  16.103  0.00  0.00    +0.000 OA
ATOM     14  C   UNL     1       6.531   3.972  14.764  0.00  0.00    +0.000 C 
ENDBRANCH   8  13
ENDBRANCH   1   5
BRANCH   1  15
ATOM     15  O   UNL     1       1.864   8.023  18.682  0.00  0.00    +0.000 OA
BRANCH  15  16
ATOM     16  C   UNL     1       1.433   9.080  19.467  0.00  0.00    +0.000 C 
BRANCH  16  17
ATOM     17  C   UNL     1       1.263  10.352  18.628  0.00  0.00    +0.000 C 
BRANCH  17  18
ATOM     18  N   UNL     1      -0.061  10.390  18.024  0.00  0.00    +0.000 N 
ATOM     19  C   UNL     1      -1.019  11.277  18.425  0.00  0.00    +0.000 C 
ATOM     20  O   UNL     1      -0.759  12.071  19.321  0.00  0.00    +0.000 OA
ATOM     21  H   UNL     1      -0.262   9.717  17.276  0.00  0.00    +0.000 HD
BRANCH  19  22
ATOM     22  C   UNL     1      -2.388  11.319  17.804  0.00  0.00    +0.000 A 
ATOM     23  C   UNL     1      -2.622  11.009  16.445  0.00  0.00    +0.000 A 
ATOM     24  C   UNL     1      -3.918  11.068  15.927  0.00  0.00    +0.000 A 
ATOM     25  N   UNL     1      -4.958  11.424  16.722  0.00  0.00    +0.000 NA
ATOM     26  C   UNL     1      -4.778  11.727  18.032  0.00  0.00    +0.000 A 
ATOM     27  C   UNL     1      -3.499  11.682  18.594  0.00  0.00    +0.000 A 
ENDBRANCH  19  22
ENDBRANCH  17  18
ENDBRANCH  16  17
ENDBRANCH  15  16
ENDBRANCH   1  15
TORSDOF 9
ENDMDL
