MODEL 1
REMARK VINA RESULT:      -9.1      0.000      0.000
REMARK  Name = 
REMARK  2 active torsions:
REMARK  status: ('A' for Active; 'I' for Inactive)
REMARK    1  A    between atoms: N_1  and  C_2
REMARK    2  A    between atoms: N_7  and  C_8
REMARK                            x       y       z     vdW  Elec       q    Type
REMARK                         _______ _______ _______ _____ _____    ______ ____
ROOT
ATOM      1  C   UNL     1       2.302   6.645  19.573  0.00  0.00    +0.000 A 
ATOM      2  C   UNL     1       1.871   5.724  20.451  0.00  0.00    +0.000 A 
ATOM      3  C   UNL     1       2.539   4.459  20.626  0.00  0.00    +0.000 A 
ATOM      4 CL   UNL     1       1.835   3.347  21.735  0.00  0.00    +0.000 Cl
ATOM      5  C   UNL     1       3.607   4.192  19.866  0.00  0.00    +0.000 A 
ATOM      6  N   UNL     1       4.144   5.125  18.983  0.00  0.00    +0.000 N 
ATOM      7  C   UNL     1       3.605   6.384  18.841  0.00  0.00    +0.000 A 
ATOM      8  O   UNL     1       4.045   7.301  18.148  0.00  0.00    +0.000 OA
ATOM      9  C   UNL     1       5.286   4.522  18.253  0.00  0.00    +0.000 C 
ATOM     10  C   UNL     1       5.035   4.373  16.743  0.00  0.00    +0.000 C 
ATOM     11  C   UNL     1       5.167   5.670  15.955  0.00  0.00    +0.000 C 
ATOM     12  C   UNL     1       6.441   6.451  16.271  0.00  0.00    +0.000 C 
ATOM     13  C   UNL     1       6.858   6.503  17.741  0.00  0.00    +0.000 C 
ATOM     14  C   UNL     1       6.644   5.200  18.500  0.00  0.00    +0.000 C 
ATOM     15  N   UNL     1       5.351   3.185  18.831  0.00  0.00    +0.000 N 
ATOM     16  C   UNL     1       4.385   2.937  19.777  0.00  0.00    +0.000 C 
ATOM     17  O   UNL     1       4.227   1.894  20.376  0.00  0.00    +0.000 OA
ATOM     18  H   UNL     1       6.006   2.463  18.562  0.00  0.00    +0.000 HD
ENDROOT
BRANCH   1  24
ATOM     19  C   UNL     1       0.186  10.734  20.938  0.00  0.00    +0.000 A 
ATOM     20  N   UNL     1       0.484  10.462  22.218  0.00  0.00    +0.000 NA
ATOM     21  C   UNL     1       1.126   9.313  22.443  0.00  0.00    +0.000 A 
ATOM     22  N   UNL     1       1.507   8.434  21.510  0.00  0.00    +0.000 NA
ATOM     23  C   UNL     1       1.191   8.713  20.226  0.00  0.00    +0.000 A 
ATOM     24  N   UNL     1       1.624   7.807  19.210  0.00  0.00    +0.000 N 
ATOM     25  C   UNL     1       0.497   9.873  19.890  0.00  0.00    +0.000 A 
ATOM     26 CL   UNL     1       0.061  10.237  18.259  0.00  0.00    +0.000 Cl
ATOM     27  H   UNL     1       0.806   7.565  18.638  0.00  0.00    +0.000 HD
BRANCH  19  28
ATOM     28  N   UNL     1      -0.509  11.931  20.747  0.00  0.00    +0.000 N 
ATOM     29  H   UNL     1      -0.198  12.339  19.869  0.00  0.00    +0.000 HD
ATOM     30  H   UNL     1      -1.515  11.800  20.784  0.00  0.00    +0.000 HD
ENDBRANCH  19  28
ENDBRANCH   1  24
TORSDOF 2
ENDMDL
MODEL 2
REMARK VINA RESULT:      -8.8      2.409      4.054
REMARK  Name = 
REMARK  2 active torsions:
REMARK  status: ('A' for Active; 'I' for Inactive)
REMARK    1  A    between atoms: N_1  and  C_2
REMARK    2  A    between atoms: N_7  and  C_8
REMARK                            x       y       z     vdW  Elec       q    Type
REMARK                         _______ _______ _______ _____ _____    ______ ____
ROOT
ATOM      1  C   UNL     1       2.611   6.981  19.191  0.00  0.00    +0.000 A 
ATOM      2  C   UNL     1       3.381   7.314  18.140  0.00  0.00    +0.000 A 
ATOM      3  C   UNL     1       4.035   6.323  17.324  0.00  0.00    +0.000 A 
ATOM      4 CL   UNL     1       5.046   6.896  16.056  0.00  0.00    +0.000 Cl
ATOM      5  C   UNL     1       3.887   5.034  17.646  0.00  0.00    +0.000 A 
ATOM      6  N   UNL     1       3.054   4.616  18.681  0.00  0.00    +0.000 N 
ATOM      7  C   UNL     1       2.330   5.511  19.436  0.00  0.00    +0.000 A 
ATOM      8  O   UNL     1       1.515   5.242  20.318  0.00  0.00    +0.000 OA
ATOM      9  C   UNL     1       3.136   3.142  18.824  0.00  0.00    +0.000 C 
ATOM     10  C   UNL     1       3.751   2.692  20.161  0.00  0.00    +0.000 C 
ATOM     11  C   UNL     1       2.805   2.793  21.351  0.00  0.00    +0.000 C 
ATOM     12  C   UNL     1       1.430   2.179  21.093  0.00  0.00    +0.000 C 
ATOM     13  C   UNL     1       0.820   2.437  19.715  0.00  0.00    +0.000 C 
ATOM     14  C   UNL     1       1.820   2.390  18.568  0.00  0.00    +0.000 C 
ATOM     15  N   UNL     1       4.065   2.779  17.761  0.00  0.00    +0.000 N 
ATOM     16  C   UNL     1       4.539   3.851  17.042  0.00  0.00    +0.000 C 
ATOM     17  O   UNL     1       5.335   3.798  16.129  0.00  0.00    +0.000 OA
ATOM     18  H   UNL     1       4.385   1.841  17.559  0.00  0.00    +0.000 HD
ENDROOT
BRANCH   1  24
ATOM     19  C   UNL     1      -0.106  10.829  20.121  0.00  0.00    +0.000 A 
ATOM     20  N   UNL     1      -0.395  10.943  18.816  0.00  0.00    +0.000 NA
ATOM     21  C   UNL     1       0.172  10.044  18.006  0.00  0.00    +0.000 A 
ATOM     22  N   UNL     1       0.975   9.045  18.386  0.00  0.00    +0.000 NA
ATOM     23  C   UNL     1       1.268   8.948  19.702  0.00  0.00    +0.000 A 
ATOM     24  N   UNL     1       2.091   7.865  20.134  0.00  0.00    +0.000 N 
ATOM     25  C   UNL     1       0.750   9.855  20.624  0.00  0.00    +0.000 A 
ATOM     26 CL   UNL     1       1.132   9.766  22.307  0.00  0.00    +0.000 Cl
ATOM     27  H   UNL     1       2.857   8.259  20.697  0.00  0.00    +0.000 HD
BRANCH  19  28
ATOM     28  N   UNL     1      -0.695  11.804  20.931  0.00  0.00    +0.000 N 
ATOM     29  H   UNL     1      -1.702  11.663  20.912  0.00  0.00    +0.000 HD
ATOM     30  H   UNL     1      -0.316  11.800  21.872  0.00  0.00    +0.000 HD
ENDBRANCH  19  28
ENDBRANCH   1  24
TORSDOF 2
ENDMDL
MODEL 3
REMARK VINA RESULT:      -8.5      2.246      3.589
REMARK  Name = 
REMARK  2 active torsions:
REMARK  status: ('A' for Active; 'I' for Inactive)
REMARK    1  A    between atoms: N_1  and  C_2
REMARK    2  A    between atoms: N_7  and  C_8
REMARK                            x       y       z     vdW  Elec       q    Type
REMARK                         _______ _______ _______ _____ _____    ______ ____
ROOT
ATOM      1  C   UNL     1       2.957   7.299  17.814  0.00  0.00    +0.000 A 
ATOM      2  C   UNL     1       4.237   7.602  17.539  0.00  0.00    +0.000 A 
ATOM      3  C   UNL     1       5.305   6.652  17.720  0.00  0.00    +0.000 A 
ATOM      4 CL   UNL     1       6.904   7.199  17.397  0.00  0.00    +0.000 Cl
ATOM      5  C   UNL     1       5.006   5.441  18.203  0.00  0.00    +0.000 A 
ATOM      6  N   UNL     1       3.695   5.040  18.448  0.00  0.00    +0.000 N 
ATOM      7  C   UNL     1       2.625   5.872  18.205  0.00  0.00    +0.000 A 
ATOM      8  O   UNL     1       1.432   5.591  18.317  0.00  0.00    +0.000 OA
ATOM      9  C   UNL     1       3.689   3.672  19.020  0.00  0.00    +0.000 C 
ATOM     10  C   UNL     1       3.168   3.618  20.467  0.00  0.00    +0.000 C 
ATOM     11  C   UNL     1       1.653   3.717  20.590  0.00  0.00    +0.000 C 
ATOM     12  C   UNL     1       0.900   2.776  19.651  0.00  0.00    +0.000 C 
ATOM     13  C   UNL     1       1.459   2.640  18.234  0.00  0.00    +0.000 C 
ATOM     14  C   UNL     1       2.980   2.613  18.161  0.00  0.00    +0.000 C 
ATOM     15  N   UNL     1       5.109   3.341  19.043  0.00  0.00    +0.000 N 
ATOM     16  C   UNL     1       5.926   4.345  18.580  0.00  0.00    +0.000 C 
ATOM     17  O   UNL     1       7.137   4.308  18.525  0.00  0.00    +0.000 OA
ATOM     18  H   UNL     1       5.502   2.478  19.394  0.00  0.00    +0.000 HD
ENDROOT
BRANCH   1  24
ATOM     19  C   UNL     1      -0.015  10.037  20.409  0.00  0.00    +0.000 A 
ATOM     20  N   UNL     1       0.597   9.637  21.534  0.00  0.00    +0.000 NA
ATOM     21  C   UNL     1       1.596   8.763  21.384  0.00  0.00    +0.000 A 
ATOM     22  N   UNL     1       2.041   8.276  20.221  0.00  0.00    +0.000 NA
ATOM     23  C   UNL     1       1.409   8.676  19.096  0.00  0.00    +0.000 A 
ATOM     24  N   UNL     1       1.893   8.200  17.840  0.00  0.00    +0.000 N 
ATOM     25  C   UNL     1       0.336   9.564  19.149  0.00  0.00    +0.000 A 
ATOM     26 CL   UNL     1      -0.504  10.069  17.726  0.00  0.00    +0.000 Cl
ATOM     27  H   UNL     1       1.095   7.806  17.326  0.00  0.00    +0.000 HD
BRANCH  19  28
ATOM     28  N   UNL     1      -1.072  10.928  20.611  0.00  0.00    +0.000 N 
ATOM     29  H   UNL     1      -1.258  10.975  21.610  0.00  0.00    +0.000 HD
ATOM     30  H   UNL     1      -0.887  11.840  20.204  0.00  0.00    +0.000 HD
ENDBRANCH  19  28
ENDBRANCH   1  24
TORSDOF 2
ENDMDL
MODEL 4
REMARK VINA RESULT:      -7.6      1.684      2.135
REMARK  Name = 
REMARK  2 active torsions:
REMARK  status: ('A' for Active; 'I' for Inactive)
REMARK    1  A    between atoms: N_1  and  C_2
REMARK    2  A    between atoms: N_7  and  C_8
REMARK                            x       y       z     vdW  Elec       q    Type
REMARK                         _______ _______ _______ _____ _____    ______ ____
ROOT
ATOM      1  C   UNL     1       2.427   5.696  20.164  0.00  0.00    +0.000 A 
ATOM      2  C   UNL     1       1.754   4.534  20.215  0.00  0.00    +0.000 A 
ATOM      3  C   UNL     1       2.169   3.374  19.468  0.00  0.00    +0.000 A 
ATOM      4 CL   UNL     1       1.171   1.976  19.572  0.00  0.00    +0.000 Cl
ATOM      5  C   UNL     1       3.245   3.475  18.681  0.00  0.00    +0.000 A 
ATOM      6  N   UNL     1       4.026   4.627  18.630  0.00  0.00    +0.000 N 
ATOM      7  C   UNL     1       3.733   5.735  19.393  0.00  0.00    +0.000 A 
ATOM      8  O   UNL     1       4.395   6.769  19.476  0.00  0.00    +0.000 OA
ATOM      9  C   UNL     1       5.114   4.451  17.638  0.00  0.00    +0.000 C 
ATOM     10  C   UNL     1       4.996   5.397  16.430  0.00  0.00    +0.000 C 
ATOM     11  C   UNL     1       5.433   6.829  16.711  0.00  0.00    +0.000 C 
ATOM     12  C   UNL     1       6.786   6.929  17.416  0.00  0.00    +0.000 C 
ATOM     13  C   UNL     1       7.052   5.906  18.521  0.00  0.00    +0.000 C 
ATOM     14  C   UNL     1       6.536   4.506  18.217  0.00  0.00    +0.000 C 
ATOM     15  N   UNL     1       4.883   3.091  17.165  0.00  0.00    +0.000 N 
ATOM     16  C   UNL     1       3.798   2.475  17.740  0.00  0.00    +0.000 C 
ATOM     17  O   UNL     1       3.399   1.357  17.490  0.00  0.00    +0.000 OA
ATOM     18  H   UNL     1       5.427   2.619  16.454  0.00  0.00    +0.000 HD
ENDROOT
BRANCH   1  24
ATOM     19  C   UNL     1       0.976  10.214  19.426  0.00  0.00    +0.000 A 
ATOM     20  N   UNL     1       1.082  10.032  18.100  0.00  0.00    +0.000 NA
ATOM     21  C   UNL     1       1.509   8.831  17.701  0.00  0.00    +0.000 A 
ATOM     22  N   UNL     1       1.817   7.805  18.501  0.00  0.00    +0.000 NA
ATOM     23  C   UNL     1       1.718   8.003  19.834  0.00  0.00    +0.000 A 
ATOM     24  N   UNL     1       2.004   6.908  20.705  0.00  0.00    +0.000 N 
ATOM     25  C   UNL     1       1.310   9.230  20.352  0.00  0.00    +0.000 A 
ATOM     26 CL   UNL     1       1.202   9.515  22.053  0.00  0.00    +0.000 Cl
ATOM     27  H   UNL     1       2.687   7.233  21.402  0.00  0.00    +0.000 HD
BRANCH  19  28
ATOM     28  N   UNL     1       0.554  11.491  19.803  0.00  0.00    +0.000 N 
ATOM     29  H   UNL     1       1.107  11.781  20.605  0.00  0.00    +0.000 HD
ATOM     30  H   UNL     1       0.601  12.152  19.034  0.00  0.00    +0.000 HD
ENDBRANCH  19  28
ENDBRANCH   1  24
TORSDOF 2
ENDMDL
MODEL 5
REMARK VINA RESULT:      -7.3      6.891     11.049
REMARK  Name = 
REMARK  2 active torsions:
REMARK  status: ('A' for Active; 'I' for Inactive)
REMARK    1  A    between atoms: N_1  and  C_2
REMARK    2  A    between atoms: N_7  and  C_8
REMARK                            x       y       z     vdW  Elec       q    Type
REMARK                         _______ _______ _______ _____ _____    ______ ____
ROOT
ATOM      1  C   UNL     1      -3.107  13.000  21.123  0.00  0.00    +0.000 A 
ATOM      2  C   UNL     1      -3.104  13.027  22.467  0.00  0.00    +0.000 A 
ATOM      3  C   UNL     1      -4.305  12.835  23.240  0.00  0.00    +0.000 A 
ATOM      4 CL   UNL     1      -4.167  12.966  24.950  0.00  0.00    +0.000 Cl
ATOM      5  C   UNL     1      -5.459  12.652  22.589  0.00  0.00    +0.000 A 
ATOM      6  N   UNL     1      -5.524  12.550  21.202  0.00  0.00    +0.000 N 
ATOM      7  C   UNL     1      -4.397  12.631  20.415  0.00  0.00    +0.000 A 
ATOM      8  O   UNL     1      -4.336  12.480  19.196  0.00  0.00    +0.000 OA
ATOM      9  C   UNL     1      -6.937  12.398  20.777  0.00  0.00    +0.000 C 
ATOM     10  C   UNL     1      -7.456  13.587  19.950  0.00  0.00    +0.000 C 
ATOM     11  C   UNL     1      -6.982  13.597  18.502  0.00  0.00    +0.000 C 
ATOM     12  C   UNL     1      -7.158  12.256  17.791  0.00  0.00    +0.000 C 
ATOM     13  C   UNL     1      -6.825  11.006  18.608  0.00  0.00    +0.000 C 
ATOM     14  C   UNL     1      -7.262  11.075  20.065  0.00  0.00    +0.000 C 
ATOM     15  N   UNL     1      -7.645  12.397  22.052  0.00  0.00    +0.000 N 
ATOM     16  C   UNL     1      -6.827  12.548  23.146  0.00  0.00    +0.000 C 
ATOM     17  O   UNL     1      -7.188  12.599  24.303  0.00  0.00    +0.000 OA
ATOM     18  H   UNL     1      -8.647  12.330  22.164  0.00  0.00    +0.000 HD
ENDROOT
BRANCH   1  24
ATOM     19  C   UNL     1       0.958  11.691  18.927  0.00  0.00    +0.000 A 
ATOM     20  N   UNL     1       0.835  10.454  19.432  0.00  0.00    +0.000 NA
ATOM     21  C   UNL     1      -0.224  10.241  20.219  0.00  0.00    +0.000 A 
ATOM     22  N   UNL     1      -1.166  11.140  20.523  0.00  0.00    +0.000 NA
ATOM     23  C   UNL     1      -1.024  12.386  20.018  0.00  0.00    +0.000 A 
ATOM     24  N   UNL     1      -2.040  13.349  20.299  0.00  0.00    +0.000 N 
ATOM     25  C   UNL     1       0.061  12.717  19.211  0.00  0.00    +0.000 A 
ATOM     26 CL   UNL     1       0.276  14.309  18.575  0.00  0.00    +0.000 Cl
ATOM     27  H   UNL     1      -1.579  14.191  20.669  0.00  0.00    +0.000 HD
BRANCH  19  28
ATOM     28  N   UNL     1       2.092  11.881  18.133  0.00  0.00    +0.000 N 
ATOM     29  H   UNL     1       2.901  11.561  18.659  0.00  0.00    +0.000 HD
ATOM     30  H   UNL     1       2.007  11.427  17.229  0.00  0.00    +0.000 HD
ENDBRANCH  19  28
ENDBRANCH   1  24
TORSDOF 2
ENDMDL
MODEL 6
REMARK VINA RESULT:      -7.2      8.440     10.050
REMARK  Name = 
REMARK  2 active torsions:
REMARK  status: ('A' for Active; 'I' for Inactive)
REMARK    1  A    between atoms: N_1  and  C_2
REMARK    2  A    between atoms: N_7  and  C_8
REMARK                            x       y       z     vdW  Elec       q    Type
REMARK                         _______ _______ _______ _____ _____    ______ ____
ROOT
ATOM      1  C   UNL     1       7.886  14.089  22.253  0.00  0.00    +0.000 A 
ATOM      2  C   UNL     1       6.836  14.779  21.775  0.00  0.00    +0.000 A 
ATOM      3  C   UNL     1       6.637  14.990  20.364  0.00  0.00    +0.000 A 
ATOM      4 CL   UNL     1       5.289  15.952  19.898  0.00  0.00    +0.000 Cl
ATOM      5  C   UNL     1       7.546  14.503  19.512  0.00  0.00    +0.000 A 
ATOM      6  N   UNL     1       8.621  13.726  19.934  0.00  0.00    +0.000 N 
ATOM      7  C   UNL     1       8.812  13.411  21.261  0.00  0.00    +0.000 A 
ATOM      8  O   UNL     1       9.682  12.676  21.727  0.00  0.00    +0.000 OA
ATOM      9  C   UNL     1       9.473  13.377  18.772  0.00  0.00    +0.000 C 
ATOM     10  C   UNL     1      10.880  13.996  18.838  0.00  0.00    +0.000 C 
ATOM     11  C   UNL     1      11.831  13.289  19.795  0.00  0.00    +0.000 C 
ATOM     12  C   UNL     1      11.857  11.771  19.622  0.00  0.00    +0.000 C 
ATOM     13  C   UNL     1      10.509  11.093  19.378  0.00  0.00    +0.000 C 
ATOM     14  C   UNL     1       9.571  11.873  18.467  0.00  0.00    +0.000 C 
ATOM     15  N   UNL     1       8.760  14.005  17.666  0.00  0.00    +0.000 N 
ATOM     16  C   UNL     1       7.626  14.682  18.045  0.00  0.00    +0.000 C 
ATOM     17  O   UNL     1       6.885  15.298  17.308  0.00  0.00    +0.000 OA
ATOM     18  H   UNL     1       9.056  13.997  16.699  0.00  0.00    +0.000 HD
ENDROOT
BRANCH   1  24
ATOM     19  C   UNL     1       7.255  11.967  26.515  0.00  0.00    +0.000 A 
ATOM     20  N   UNL     1       6.305  11.181  25.984  0.00  0.00    +0.000 NA
ATOM     21  C   UNL     1       6.031  11.377  24.692  0.00  0.00    +0.000 A 
ATOM     22  N   UNL     1       6.629  12.266  23.891  0.00  0.00    +0.000 NA
ATOM     23  C   UNL     1       7.575  13.060  24.440  0.00  0.00    +0.000 A 
ATOM     24  N   UNL     1       8.254  13.988  23.594  0.00  0.00    +0.000 N 
ATOM     25  C   UNL     1       7.912  12.954  25.787  0.00  0.00    +0.000 A 
ATOM     26 CL   UNL     1       9.100  13.976  26.516  0.00  0.00    +0.000 Cl
ATOM     27  H   UNL     1       8.198  14.915  24.037  0.00  0.00    +0.000 HD
BRANCH  19  28
ATOM     28  N   UNL     1       7.492  11.750  27.874  0.00  0.00    +0.000 N 
ATOM     29  H   UNL     1       6.762  12.224  28.401  0.00  0.00    +0.000 HD
ATOM     30  H   UNL     1       7.559  10.763  28.099  0.00  0.00    +0.000 HD
ENDBRANCH  19  28
ENDBRANCH   1  24
TORSDOF 2
ENDMDL
MODEL 7
REMARK VINA RESULT:      -7.2      5.605      8.113
REMARK  Name = 
REMARK  2 active torsions:
REMARK  status: ('A' for Active; 'I' for Inactive)
REMARK    1  A    between atoms: N_1  and  C_2
REMARK    2  A    between atoms: N_7  and  C_8
REMARK                            x       y       z     vdW  Elec       q    Type
REMARK                         _______ _______ _______ _____ _____    ______ ____
ROOT
ATOM      1  C   UNL     1      -0.838  12.190  22.553  0.00  0.00    +0.000 A 
ATOM      2  C   UNL     1      -0.793  10.846  22.546  0.00  0.00    +0.000 A 
ATOM      3  C   UNL     1      -0.134  10.107  21.499  0.00  0.00    +0.000 A 
ATOM      4 CL   UNL     1      -0.216   8.391  21.580  0.00  0.00    +0.000 Cl
ATOM      5  C   UNL     1       0.425  10.788  20.493  0.00  0.00    +0.000 A 
ATOM      6  N   UNL     1       0.470  12.180  20.470  0.00  0.00    +0.000 N 
ATOM      7  C   UNL     1      -0.061  12.940  21.489  0.00  0.00    +0.000 A 
ATOM      8  O   UNL     1      -0.008  14.164  21.600  0.00  0.00    +0.000 OA
ATOM      9  C   UNL     1       1.106  12.639  19.211  0.00  0.00    +0.000 C 
ATOM     10  C   UNL     1       0.148  13.417  18.291  0.00  0.00    +0.000 C 
ATOM     11  C   UNL     1      -0.112  14.852  18.728  0.00  0.00    +0.000 C 
ATOM     12  C   UNL     1       1.160  15.632  19.057  0.00  0.00    +0.000 C 
ATOM     13  C   UNL     1       2.242  14.872  19.825  0.00  0.00    +0.000 C 
ATOM     14  C   UNL     1       2.416  13.422  19.394  0.00  0.00    +0.000 C 
ATOM     15  N   UNL     1       1.434  11.380  18.553  0.00  0.00    +0.000 N 
ATOM     16  C   UNL     1       1.052  10.264  19.259  0.00  0.00    +0.000 C 
ATOM     17  O   UNL     1       1.198   9.113  18.904  0.00  0.00    +0.000 OA
ATOM     18  H   UNL     1       1.869  11.291  17.645  0.00  0.00    +0.000 HD
ENDROOT
BRANCH   1  24
ATOM     19  C   UNL     1      -5.086  14.166  23.610  0.00  0.00    +0.000 A 
ATOM     20  N   UNL     1      -5.620  13.609  22.512  0.00  0.00    +0.000 NA
ATOM     21  C   UNL     1      -4.790  12.886  21.754  0.00  0.00    +0.000 A 
ATOM     22  N   UNL     1      -3.497  12.660  22.006  0.00  0.00    +0.000 NA
ATOM     23  C   UNL     1      -2.967  13.236  23.108  0.00  0.00    +0.000 A 
ATOM     24  N   UNL     1      -1.598  12.975  23.417  0.00  0.00    +0.000 N 
ATOM     25  C   UNL     1      -3.743  14.033  23.948  0.00  0.00    +0.000 A 
ATOM     26 CL   UNL     1      -3.081  14.800  25.348  0.00  0.00    +0.000 Cl
ATOM     27  H   UNL     1      -1.132  13.881  23.561  0.00  0.00    +0.000 HD
BRANCH  19  28
ATOM     28  N   UNL     1      -5.978  14.936  24.360  0.00  0.00    +0.000 N 
ATOM     29  H   UNL     1      -5.522  15.816  24.586  0.00  0.00    +0.000 HD
ATOM     30  H   UNL     1      -6.866  15.065  23.885  0.00  0.00    +0.000 HD
ENDBRANCH  19  28
ENDBRANCH   1  24
TORSDOF 2
ENDMDL
MODEL 8
REMARK VINA RESULT:      -7.1      8.654     10.628
REMARK  Name = 
REMARK  2 active torsions:
REMARK  status: ('A' for Active; 'I' for Inactive)
REMARK    1  A    between atoms: N_1  and  C_2
REMARK    2  A    between atoms: N_7  and  C_8
REMARK                            x       y       z     vdW  Elec       q    Type
REMARK                         _______ _______ _______ _____ _____    ______ ____
ROOT
ATOM      1  C   UNL     1       7.845  15.555  19.379  0.00  0.00    +0.000 A 
ATOM      2  C   UNL     1       8.178  16.767  18.902  0.00  0.00    +0.000 A 
ATOM      3  C   UNL     1       9.440  17.014  18.251  0.00  0.00    +0.000 A 
ATOM      4 CL   UNL     1       9.762  18.630  17.754  0.00  0.00    +0.000 Cl
ATOM      5  C   UNL     1      10.312  16.005  18.147  0.00  0.00    +0.000 A 
ATOM      6  N   UNL     1      10.006  14.712  18.562  0.00  0.00    +0.000 N 
ATOM      7  C   UNL     1       8.781  14.394  19.105  0.00  0.00    +0.000 A 
ATOM      8  O   UNL     1       8.388  13.275  19.433  0.00  0.00    +0.000 OA
ATOM      9  C   UNL     1      11.183  13.831  18.362  0.00  0.00    +0.000 C 
ATOM     10  C   UNL     1      11.774  13.294  19.677  0.00  0.00    +0.000 C 
ATOM     11  C   UNL     1      10.979  12.154  20.301  0.00  0.00    +0.000 C 
ATOM     12  C   UNL     1      10.623  11.044  19.312  0.00  0.00    +0.000 C 
ATOM     13  C   UNL     1      10.188  11.493  17.917  0.00  0.00    +0.000 C 
ATOM     14  C   UNL     1      10.970  12.679  17.367  0.00  0.00    +0.000 C 
ATOM     15  N   UNL     1      12.156  14.745  17.775  0.00  0.00    +0.000 N 
ATOM     16  C   UNL     1      11.698  16.033  17.631  0.00  0.00    +0.000 C 
ATOM     17  O   UNL     1      12.332  16.968  17.190  0.00  0.00    +0.000 OA
ATOM     18  H   UNL     1      13.103  14.503  17.515  0.00  0.00    +0.000 HD
ENDROOT
BRANCH   1  24
ATOM     19  C   UNL     1       3.122  14.733  19.658  0.00  0.00    +0.000 A 
ATOM     20  N   UNL     1       3.018  14.873  18.327  0.00  0.00    +0.000 NA
ATOM     21  C   UNL     1       4.147  15.159  17.674  0.00  0.00    +0.000 A 
ATOM     22  N   UNL     1       5.357  15.296  18.226  0.00  0.00    +0.000 NA
ATOM     23  C   UNL     1       5.448  15.165  19.568  0.00  0.00    +0.000 A 
ATOM     24  N   UNL     1       6.737  15.268  20.173  0.00  0.00    +0.000 N 
ATOM     25  C   UNL     1       4.322  14.896  20.343  0.00  0.00    +0.000 A 
ATOM     26 CL   UNL     1       4.410  14.749  22.063  0.00  0.00    +0.000 Cl
ATOM     27  H   UNL     1       6.671  15.955  20.935  0.00  0.00    +0.000 HD
BRANCH  19  28
ATOM     28  N   UNL     1       1.915  14.462  20.307  0.00  0.00    +0.000 N 
ATOM     29  H   UNL     1       2.075  14.528  21.309  0.00  0.00    +0.000 HD
ATOM     30  H   UNL     1       1.165  15.067  19.989  0.00  0.00    +0.000 HD
ENDBRANCH  19  28
ENDBRANCH   1  24
TORSDOF 2
ENDMDL
MODEL 9
REMARK VINA RESULT:      -7.0      6.942      9.337
REMARK  Name = 
REMARK  2 active torsions:
REMARK  status: ('A' for Active; 'I' for Inactive)
REMARK    1  A    between atoms: N_1  and  C_2
REMARK    2  A    between atoms: N_7  and  C_8
REMARK                            x       y       z     vdW  Elec       q    Type
REMARK                         _______ _______ _______ _____ _____    ______ ____
ROOT
ATOM      1  C   UNL     1      -4.157  12.645  20.202  0.00  0.00    +0.000 A 
ATOM      2  C   UNL     1      -4.881  12.378  19.101  0.00  0.00    +0.000 A 
ATOM      3  C   UNL     1      -4.311  11.730  17.947  0.00  0.00    +0.000 A 
ATOM      4 CL   UNL     1      -5.336  11.517  16.582  0.00  0.00    +0.000 Cl
ATOM      5  C   UNL     1      -3.012  11.411  17.972  0.00  0.00    +0.000 A 
ATOM      6  N   UNL     1      -2.221  11.601  19.102  0.00  0.00    +0.000 N 
ATOM      7  C   UNL     1      -2.732  12.129  20.266  0.00  0.00    +0.000 A 
ATOM      8  O   UNL     1      -2.140  12.268  21.335  0.00  0.00    +0.000 OA
ATOM      9  C   UNL     1      -0.824  11.198  18.807  0.00  0.00    +0.000 C 
ATOM     10  C   UNL     1       0.172  12.371  18.851  0.00  0.00    +0.000 C 
ATOM     11  C   UNL     1       0.556  12.813  20.257  0.00  0.00    +0.000 C 
ATOM     12  C   UNL     1       0.957  11.658  21.173  0.00  0.00    +0.000 C 
ATOM     13  C   UNL     1       0.118  10.385  21.067  0.00  0.00    +0.000 C 
ATOM     14  C   UNL     1      -0.296  10.024  19.646  0.00  0.00    +0.000 C 
ATOM     15  N   UNL     1      -0.919  10.744  17.424  0.00  0.00    +0.000 N 
ATOM     16  C   UNL     1      -2.178  10.852  16.885  0.00  0.00    +0.000 C 
ATOM     17  O   UNL     1      -2.494  10.558  15.751  0.00  0.00    +0.000 OA
ATOM     18  H   UNL     1      -0.147  10.406  16.865  0.00  0.00    +0.000 HD
ENDROOT
BRANCH   1  24
ATOM     19  C   UNL     1      -7.274  13.312  23.794  0.00  0.00    +0.000 A 
ATOM     20  N   UNL     1      -7.916  12.185  23.447  0.00  0.00    +0.000 NA
ATOM     21  C   UNL     1      -7.433  11.533  22.386  0.00  0.00    +0.000 A 
ATOM     22  N   UNL     1      -6.367  11.894  21.664  0.00  0.00    +0.000 NA
ATOM     23  C   UNL     1      -5.736  13.037  22.016  0.00  0.00    +0.000 A 
ATOM     24  N   UNL     1      -4.572  13.420  21.283  0.00  0.00    +0.000 N 
ATOM     25  C   UNL     1      -6.180  13.805  23.089  0.00  0.00    +0.000 A 
ATOM     26 CL   UNL     1      -5.404  15.282  23.540  0.00  0.00    +0.000 Cl
ATOM     27  H   UNL     1      -4.699  14.394  20.980  0.00  0.00    +0.000 HD
BRANCH  19  28
ATOM     28  N   UNL     1      -7.827  13.979  24.890  0.00  0.00    +0.000 N 
ATOM     29  H   UNL     1      -7.140  14.646  25.231  0.00  0.00    +0.000 HD
ATOM     30  H   UNL     1      -8.717  14.412  24.666  0.00  0.00    +0.000 HD
ENDBRANCH  19  28
ENDBRANCH   1  24
TORSDOF 2
ENDMDL
