MODEL 1
REMARK VINA RESULT:      -7.0      0.000      0.000
REMARK  Name = 
REMARK  6 active torsions:
REMARK  status: ('A' for Active; 'I' for Inactive)
REMARK    1  A    between atoms: C_1  and  O_2
REMARK    2  A    between atoms: O_2  and  C_3
REMARK    3  A    between atoms: C_6  and  C_7
REMARK    4  A    between atoms: C_10  and  C_11
REMARK    5  A    between atoms: C_14  and  S_15
REMARK    6  A    between atoms: S_15  and  N_16
REMARK                            x       y       z     vdW  Elec       q    Type
REMARK                         _______ _______ _______ _____ _____    ______ ____
ROOT
ATOM      1  C   UNL     1       5.551   6.645  17.089  0.00  0.00    +0.000 A 
ATOM      2  C   UNL     1       4.542   7.178  17.902  0.00  0.00    +0.000 A 
ATOM      3  C   UNL     1       3.547   6.360  18.449  0.00  0.00    +0.000 A 
ATOM      4  C   UNL     1       3.527   4.984  18.198  0.00  0.00    +0.000 A 
ATOM      5  C   UNL     1       4.551   4.443  17.414  0.00  0.00    +0.000 A 
ATOM      6  C   UNL     1       5.563   5.261  16.877  0.00  0.00    +0.000 A 
ENDROOT
BRANCH   4   7
ATOM      7  C   UNL     1       2.487   4.124  18.741  0.00  0.00    +0.000 A 
ATOM      8  C   UNL     1       1.366   3.498  18.238  0.00  0.00    +0.000 A 
ATOM      9  N   UNL     1       0.721   2.803  19.229  0.00  0.00    +0.000 NA
ATOM     10  C   UNL     1       1.459   3.026  20.295  0.00  0.00    +0.000 A 
ATOM     11  C   UNL     1       1.259   2.546  21.675  0.00  0.00    +0.000 C 
ATOM     12  O   UNL     1       2.552   3.819  20.076  0.00  0.00    +0.000 OA
ENDBRANCH   4   7
BRANCH   6  13
ATOM     13  S   UNL     1       6.873   4.462  15.998  0.00  0.00    +0.000 S 
ATOM     14  O   UNL     1       8.035   4.362  16.848  0.00  0.00    +0.000 OA
ATOM     15  O   UNL     1       6.334   3.303  15.318  0.00  0.00    +0.000 OA
BRANCH  13  16
ATOM     16  N   UNL     1       7.262   5.521  14.755  0.00  0.00    +0.000 NA
ATOM     17  H   UNL     1       6.584   6.285  14.755  0.00  0.00    +0.000 HD
ATOM     18  H   UNL     1       8.228   5.828  14.863  0.00  0.00    +0.000 HD
ENDBRANCH  13  16
ENDBRANCH   6  13
BRANCH   1  20
ATOM     19  C   UNL     1       7.522   7.925  17.406  0.00  0.00    +0.000 C 
ATOM     20  O   UNL     1       6.533   7.405  16.519  0.00  0.00    +0.000 OA
ENDBRANCH   1  20
TORSDOF 4
ENDMDL
MODEL 2
REMARK VINA RESULT:      -6.9      2.479      6.015
REMARK  Name = 
REMARK  6 active torsions:
REMARK  status: ('A' for Active; 'I' for Inactive)
REMARK    1  A    between atoms: C_1  and  O_2
REMARK    2  A    between atoms: O_2  and  C_3
REMARK    3  A    between atoms: C_6  and  C_7
REMARK    4  A    between atoms: C_10  and  C_11
REMARK    5  A    between atoms: C_14  and  S_15
REMARK    6  A    between atoms: S_15  and  N_16
REMARK                            x       y       z     vdW  Elec       q    Type
REMARK                         _______ _______ _______ _____ _____    ______ ____
ROOT
ATOM      1  C   UNL     1       2.614   5.187  18.855  0.00  0.00    +0.000 A 
ATOM      2  C   UNL     1       3.196   6.349  18.333  0.00  0.00    +0.000 A 
ATOM      3  C   UNL     1       4.180   6.281  17.339  0.00  0.00    +0.000 A 
ATOM      4  C   UNL     1       4.615   5.049  16.840  0.00  0.00    +0.000 A 
ATOM      5  C   UNL     1       4.012   3.888  17.336  0.00  0.00    +0.000 A 
ATOM      6  C   UNL     1       3.010   3.955  18.323  0.00  0.00    +0.000 A 
ENDROOT
BRANCH   4   7
ATOM      7  C   UNL     1       5.651   4.961  15.824  0.00  0.00    +0.000 A 
ATOM      8  C   UNL     1       6.939   5.435  15.688  0.00  0.00    +0.000 A 
ATOM      9  N   UNL     1       7.466   5.051  14.482  0.00  0.00    +0.000 NA
ATOM     10  C   UNL     1       6.494   4.362  13.924  0.00  0.00    +0.000 A 
ATOM     11  C   UNL     1       6.466   3.703  12.605  0.00  0.00    +0.000 C 
ATOM     12  O   UNL     1       5.359   4.262  14.681  0.00  0.00    +0.000 OA
ENDBRANCH   4   7
BRANCH   6  13
ATOM     13  S   UNL     1       2.233   2.439  18.796  0.00  0.00    +0.000 S 
ATOM     14  O   UNL     1       0.876   2.416  18.304  0.00  0.00    +0.000 OA
ATOM     15  O   UNL     1       3.149   1.348  18.533  0.00  0.00    +0.000 OA
BRANCH  13  16
ATOM     16  N   UNL     1       2.149   2.507  20.471  0.00  0.00    +0.000 NA
ATOM     17  H   UNL     1       2.726   3.284  20.794  0.00  0.00    +0.000 HD
ATOM     18  H   UNL     1       1.173   2.572  20.758  0.00  0.00    +0.000 HD
ENDBRANCH  13  16
ENDBRANCH   6  13
BRANCH   1  20
ATOM     19  C   UNL     1       1.706   6.310  20.736  0.00  0.00    +0.000 C 
ATOM     20  O   UNL     1       1.664   5.203  19.838  0.00  0.00    +0.000 OA
ENDBRANCH   1  20
TORSDOF 4
ENDMDL
MODEL 3
REMARK VINA RESULT:      -6.9      2.507      5.905
REMARK  Name = 
REMARK  6 active torsions:
REMARK  status: ('A' for Active; 'I' for Inactive)
REMARK    1  A    between atoms: C_1  and  O_2
REMARK    2  A    between atoms: O_2  and  C_3
REMARK    3  A    between atoms: C_6  and  C_7
REMARK    4  A    between atoms: C_10  and  C_11
REMARK    5  A    between atoms: C_14  and  S_15
REMARK    6  A    between atoms: S_15  and  N_16
REMARK                            x       y       z     vdW  Elec       q    Type
REMARK                         _______ _______ _______ _____ _____    ______ ____
ROOT
ATOM      1  C   UNL     1       2.589   5.381  19.047  0.00  0.00    +0.000 A 
ATOM      2  C   UNL     1       3.211   6.516  18.510  0.00  0.00    +0.000 A 
ATOM      3  C   UNL     1       4.182   6.401  17.508  0.00  0.00    +0.000 A 
ATOM      4  C   UNL     1       4.563   5.149  17.015  0.00  0.00    +0.000 A 
ATOM      5  C   UNL     1       3.921   4.016  17.526  0.00  0.00    +0.000 A 
ATOM      6  C   UNL     1       2.932   4.130  18.521  0.00  0.00    +0.000 A 
ENDROOT
BRANCH   4   7
ATOM      7  C   UNL     1       5.586   5.012  15.989  0.00  0.00    +0.000 A 
ATOM      8  C   UNL     1       6.885   5.447  15.832  0.00  0.00    +0.000 A 
ATOM      9  N   UNL     1       7.388   5.026  14.628  0.00  0.00    +0.000 NA
ATOM     10  C   UNL     1       6.391   4.355  14.092  0.00  0.00    +0.000 A 
ATOM     11  C   UNL     1       6.330   3.672  12.787  0.00  0.00    +0.000 C 
ATOM     12  O   UNL     1       5.262   4.301  14.863  0.00  0.00    +0.000 OA
ENDBRANCH   4   7
BRANCH   6  13
ATOM     13  S   UNL     1       2.102   2.649  19.014  0.00  0.00    +0.000 S 
ATOM     14  O   UNL     1       2.234   2.471  20.440  0.00  0.00    +0.000 OA
ATOM     15  O   UNL     1       0.807   2.607  18.366  0.00  0.00    +0.000 OA
BRANCH  13  16
ATOM     16  N   UNL     1       2.966   1.411  18.282  0.00  0.00    +0.000 NA
ATOM     17  H   UNL     1       3.295   1.737  17.372  0.00  0.00    +0.000 HD
ATOM     18  H   UNL     1       3.713   1.106  18.904  0.00  0.00    +0.000 HD
ENDBRANCH  13  16
ENDBRANCH   6  13
BRANCH   1  20
ATOM     19  C   UNL     1       1.552   6.680  20.738  0.00  0.00    +0.000 C 
ATOM     20  O   UNL     1       1.650   5.441  20.038  0.00  0.00    +0.000 OA
ENDBRANCH   1  20
TORSDOF 4
ENDMDL
MODEL 4
REMARK VINA RESULT:      -6.9      2.437      5.942
REMARK  Name = 
REMARK  6 active torsions:
REMARK  status: ('A' for Active; 'I' for Inactive)
REMARK    1  A    between atoms: C_1  and  O_2
REMARK    2  A    between atoms: O_2  and  C_3
REMARK    3  A    between atoms: C_6  and  C_7
REMARK    4  A    between atoms: C_10  and  C_11
REMARK    5  A    between atoms: C_14  and  S_15
REMARK    6  A    between atoms: S_15  and  N_16
REMARK                            x       y       z     vdW  Elec       q    Type
REMARK                         _______ _______ _______ _____ _____    ______ ____
ROOT
ATOM      1  C   UNL     1       2.551   5.654  19.387  0.00  0.00    +0.000 A 
ATOM      2  C   UNL     1       3.055   6.711  18.617  0.00  0.00    +0.000 A 
ATOM      3  C   UNL     1       4.017   6.487  17.625  0.00  0.00    +0.000 A 
ATOM      4  C   UNL     1       4.507   5.202  17.374  0.00  0.00    +0.000 A 
ATOM      5  C   UNL     1       3.983   4.140  18.119  0.00  0.00    +0.000 A 
ATOM      6  C   UNL     1       3.003   4.360  19.106  0.00  0.00    +0.000 A 
ENDROOT
BRANCH   4   7
ATOM      7  C   UNL     1       5.523   4.957  16.362  0.00  0.00    +0.000 A 
ATOM      8  C   UNL     1       6.876   5.197  16.248  0.00  0.00    +0.000 A 
ATOM      9  N   UNL     1       7.339   4.757  15.035  0.00  0.00    +0.000 NA
ATOM     10  C   UNL     1       6.265   4.269  14.451  0.00  0.00    +0.000 A 
ATOM     11  C   UNL     1       6.135   3.660  13.114  0.00  0.00    +0.000 C 
ATOM     12  O   UNL     1       5.123   4.352  15.198  0.00  0.00    +0.000 OA
ENDBRANCH   4   7
BRANCH   6  13
ATOM     13  S   UNL     1       2.323   2.938  19.907  0.00  0.00    +0.000 S 
ATOM     14  O   UNL     1       2.524   1.773  19.079  0.00  0.00    +0.000 OA
ATOM     15  O   UNL     1       2.727   2.953  21.298  0.00  0.00    +0.000 OA
BRANCH  13  16
ATOM     16  N   UNL     1       0.671   3.226  19.958  0.00  0.00    +0.000 NA
ATOM     17  H   UNL     1       0.182   2.332  19.891  0.00  0.00    +0.000 HD
ATOM     18  H   UNL     1       0.446   3.754  20.801  0.00  0.00    +0.000 HD
ENDBRANCH  13  16
ENDBRANCH   6  13
BRANCH   1  20
ATOM     19  C   UNL     1       1.480   7.152  20.881  0.00  0.00    +0.000 C 
ATOM     20  O   UNL     1       1.625   5.826  20.378  0.00  0.00    +0.000 OA
ENDBRANCH   1  20
TORSDOF 4
ENDMDL
MODEL 5
REMARK VINA RESULT:      -6.8      2.019      2.488
REMARK  Name = 
REMARK  6 active torsions:
REMARK  status: ('A' for Active; 'I' for Inactive)
REMARK    1  A    between atoms: C_1  and  O_2
REMARK    2  A    between atoms: O_2  and  C_3
REMARK    3  A    between atoms: C_6  and  C_7
REMARK    4  A    between atoms: C_10  and  C_11
REMARK    5  A    between atoms: C_14  and  S_15
REMARK    6  A    between atoms: S_15  and  N_16
REMARK                            x       y       z     vdW  Elec       q    Type
REMARK                         _______ _______ _______ _____ _____    ______ ____
ROOT
ATOM      1  C   UNL     1       6.148   4.530  16.434  0.00  0.00    +0.000 A 
ATOM      2  C   UNL     1       4.955   4.151  15.805  0.00  0.00    +0.000 A 
ATOM      3  C   UNL     1       3.817   3.821  16.552  0.00  0.00    +0.000 A 
ATOM      4  C   UNL     1       3.839   3.855  17.950  0.00  0.00    +0.000 A 
ATOM      5  C   UNL     1       5.018   4.265  18.580  0.00  0.00    +0.000 A 
ATOM      6  C   UNL     1       6.158   4.614  17.832  0.00  0.00    +0.000 A 
ENDROOT
BRANCH   4   7
ATOM      7  C   UNL     1       2.672   3.494  18.739  0.00  0.00    +0.000 A 
ATOM      8  C   UNL     1       1.316   3.404  18.506  0.00  0.00    +0.000 A 
ATOM      9  N   UNL     1       0.659   3.016  19.646  0.00  0.00    +0.000 NA
ATOM     10  C   UNL     1       1.624   2.884  20.531  0.00  0.00    +0.000 A 
ATOM     11  C   UNL     1       1.531   2.497  21.951  0.00  0.00    +0.000 C 
ATOM     12  O   UNL     1       2.877   3.155  20.052  0.00  0.00    +0.000 OA
ENDBRANCH   4   7
BRANCH   6  13
ATOM     13  S   UNL     1       7.557   5.228  18.721  0.00  0.00    +0.000 S 
ATOM     14  O   UNL     1       7.198   5.441  20.102  0.00  0.00    +0.000 OA
ATOM     15  O   UNL     1       8.718   4.443  18.355  0.00  0.00    +0.000 OA
BRANCH  13  16
ATOM     16  N   UNL     1       7.858   6.738  18.052  0.00  0.00    +0.000 NA
ATOM     17  H   UNL     1       7.723   7.446  18.774  0.00  0.00    +0.000 HD
ATOM     18  H   UNL     1       8.790   6.745  17.639  0.00  0.00    +0.000 HD
ENDBRANCH  13  16
ENDBRANCH   6  13
BRANCH   1  20
ATOM     19  C   UNL     1       7.163   4.944  14.332  0.00  0.00    +0.000 C 
ATOM     20  O   UNL     1       7.288   4.844  15.749  0.00  0.00    +0.000 OA
ENDBRANCH   1  20
TORSDOF 4
ENDMDL
MODEL 6
REMARK VINA RESULT:      -6.8      0.844      1.027
REMARK  Name = 
REMARK  6 active torsions:
REMARK  status: ('A' for Active; 'I' for Inactive)
REMARK    1  A    between atoms: C_1  and  O_2
REMARK    2  A    between atoms: O_2  and  C_3
REMARK    3  A    between atoms: C_6  and  C_7
REMARK    4  A    between atoms: C_10  and  C_11
REMARK    5  A    between atoms: C_14  and  S_15
REMARK    6  A    between atoms: S_15  and  N_16
REMARK                            x       y       z     vdW  Elec       q    Type
REMARK                         _______ _______ _______ _____ _____    ______ ____
ROOT
ATOM      1  C   UNL     1       5.592   6.759  17.121  0.00  0.00    +0.000 A 
ATOM      2  C   UNL     1       4.547   7.269  17.902  0.00  0.00    +0.000 A 
ATOM      3  C   UNL     1       3.559   6.427  18.426  0.00  0.00    +0.000 A 
ATOM      4  C   UNL     1       3.584   5.050  18.182  0.00  0.00    +0.000 A 
ATOM      5  C   UNL     1       4.644   4.533  17.430  0.00  0.00    +0.000 A 
ATOM      6  C   UNL     1       5.648   5.375  16.917  0.00  0.00    +0.000 A 
ENDROOT
BRANCH   4   7
ATOM      7  C   UNL     1       2.552   4.165  18.701  0.00  0.00    +0.000 A 
ATOM      8  C   UNL     1       1.453   3.521  18.175  0.00  0.00    +0.000 A 
ATOM      9  N   UNL     1       0.806   2.805  19.149  0.00  0.00    +0.000 NA
ATOM     10  C   UNL     1       1.521   3.035  20.229  0.00  0.00    +0.000 A 
ATOM     11  C   UNL     1       1.307   2.540  21.602  0.00  0.00    +0.000 C 
ATOM     12  O   UNL     1       2.601   3.851  20.035  0.00  0.00    +0.000 OA
ENDBRANCH   4   7
BRANCH   6  13
ATOM     13  S   UNL     1       7.003   4.607  16.080  0.00  0.00    +0.000 S 
ATOM     14  O   UNL     1       7.366   5.392  14.924  0.00  0.00    +0.000 OA
ATOM     15  O   UNL     1       7.990   4.213  17.064  0.00  0.00    +0.000 OA
BRANCH  13  16
ATOM     16  N   UNL     1       6.386   3.153  15.514  0.00  0.00    +0.000 NA
ATOM     17  H   UNL     1       6.917   2.874  14.688  0.00  0.00    +0.000 HD
ATOM     18  H   UNL     1       6.403   2.463  16.265  0.00  0.00    +0.000 HD
ENDBRANCH  13  16
ENDBRANCH   6  13
BRANCH   1  20
ATOM     19  C   UNL     1       7.583   8.000  17.467  0.00  0.00    +0.000 C 
ATOM     20  O   UNL     1       6.569   7.543  16.574  0.00  0.00    +0.000 OA
ENDBRANCH   1  20
TORSDOF 4
ENDMDL
MODEL 7
REMARK VINA RESULT:      -6.8      2.889      5.801
REMARK  Name = 
REMARK  6 active torsions:
REMARK  status: ('A' for Active; 'I' for Inactive)
REMARK    1  A    between atoms: C_1  and  O_2
REMARK    2  A    between atoms: O_2  and  C_3
REMARK    3  A    between atoms: C_6  and  C_7
REMARK    4  A    between atoms: C_10  and  C_11
REMARK    5  A    between atoms: C_14  and  S_15
REMARK    6  A    between atoms: S_15  and  N_16
REMARK                            x       y       z     vdW  Elec       q    Type
REMARK                         _______ _______ _______ _____ _____    ______ ____
ROOT
ATOM      1  C   UNL     1       4.287   5.459  18.390  0.00  0.00    +0.000 A 
ATOM      2  C   UNL     1       4.610   6.465  17.470  0.00  0.00    +0.000 A 
ATOM      3  C   UNL     1       5.115   6.150  16.203  0.00  0.00    +0.000 A 
ATOM      4  C   UNL     1       5.315   4.820  15.817  0.00  0.00    +0.000 A 
ATOM      5  C   UNL     1       4.963   3.812  16.721  0.00  0.00    +0.000 A 
ATOM      6  C   UNL     1       4.439   4.126  17.990  0.00  0.00    +0.000 A 
ENDROOT
BRANCH   4   7
ATOM      7  C   UNL     1       5.859   4.478  14.512  0.00  0.00    +0.000 A 
ATOM      8  C   UNL     1       7.012   4.777  13.819  0.00  0.00    +0.000 A 
ATOM      9  N   UNL     1       6.997   4.178  12.585  0.00  0.00    +0.000 NA
ATOM     10  C   UNL     1       5.846   3.541  12.563  0.00  0.00    +0.000 A 
ATOM     11  C   UNL     1       5.263   2.722  11.485  0.00  0.00    +0.000 C 
ATOM     12  O   UNL     1       5.100   3.674  13.702  0.00  0.00    +0.000 OA
ENDBRANCH   4   7
BRANCH   6  13
ATOM     13  S   UNL     1       3.918   2.778  19.009  0.00  0.00    +0.000 S 
ATOM     14  O   UNL     1       4.858   2.597  20.089  0.00  0.00    +0.000 OA
ATOM     15  O   UNL     1       2.498   2.910  19.260  0.00  0.00    +0.000 OA
BRANCH  13  16
ATOM     16  N   UNL     1       4.035   1.426  18.022  0.00  0.00    +0.000 NA
ATOM     17  H   UNL     1       4.985   1.058  18.085  0.00  0.00    +0.000 HD
ATOM     18  H   UNL     1       3.315   0.753  18.284  0.00  0.00    +0.000 HD
ENDBRANCH  13  16
ENDBRANCH   6  13
BRANCH   1  20
ATOM     19  C   UNL     1       2.562   6.406  19.713  0.00  0.00    +0.000 C 
ATOM     20  O   UNL     1       3.809   5.717  19.644  0.00  0.00    +0.000 OA
ENDBRANCH   1  20
TORSDOF 4
ENDMDL
MODEL 8
REMARK VINA RESULT:      -6.8      2.404      6.019
REMARK  Name = 
REMARK  6 active torsions:
REMARK  status: ('A' for Active; 'I' for Inactive)
REMARK    1  A    between atoms: C_1  and  O_2
REMARK    2  A    between atoms: O_2  and  C_3
REMARK    3  A    between atoms: C_6  and  C_7
REMARK    4  A    between atoms: C_10  and  C_11
REMARK    5  A    between atoms: C_14  and  S_15
REMARK    6  A    between atoms: S_15  and  N_16
REMARK                            x       y       z     vdW  Elec       q    Type
REMARK                         _______ _______ _______ _____ _____    ______ ____
ROOT
ATOM      1  C   UNL     1       2.616   4.891  18.778  0.00  0.00    +0.000 A 
ATOM      2  C   UNL     1       2.952   6.066  18.094  0.00  0.00    +0.000 A 
ATOM      3  C   UNL     1       3.957   6.071  17.119  0.00  0.00    +0.000 A 
ATOM      4  C   UNL     1       4.658   4.904  16.801  0.00  0.00    +0.000 A 
ATOM      5  C   UNL     1       4.302   3.722  17.459  0.00  0.00    +0.000 A 
ATOM      6  C   UNL     1       3.281   3.710  18.428  0.00  0.00    +0.000 A 
ENDROOT
BRANCH   4   7
ATOM      7  C   UNL     1       5.719   4.899  15.806  0.00  0.00    +0.000 A 
ATOM      8  C   UNL     1       6.994   5.418  15.725  0.00  0.00    +0.000 A 
ATOM      9  N   UNL     1       7.560   5.112  14.514  0.00  0.00    +0.000 NA
ATOM     10  C   UNL     1       6.621   4.425  13.898  0.00  0.00    +0.000 A 
ATOM     11  C   UNL     1       6.643   3.833  12.548  0.00  0.00    +0.000 C 
ATOM     12  O   UNL     1       5.474   4.251  14.622  0.00  0.00    +0.000 OA
ENDBRANCH   4   7
BRANCH   6  13
ATOM     13  S   UNL     1       2.831   2.144  19.115  0.00  0.00    +0.000 S 
ATOM     14  O   UNL     1       3.584   1.097  18.467  0.00  0.00    +0.000 OA
ATOM     15  O   UNL     1       2.795   2.265  20.557  0.00  0.00    +0.000 OA
BRANCH  13  16
ATOM     16  N   UNL     1       1.223   1.935  18.682  0.00  0.00    +0.000 NA
ATOM     17  H   UNL     1       1.045   0.937  18.566  0.00  0.00    +0.000 HD
ATOM     18  H   UNL     1       0.625   2.380  19.378  0.00  0.00    +0.000 HD
ENDBRANCH  13  16
ENDBRANCH   6  13
BRANCH   1  20
ATOM     19  C   UNL     1       1.773   5.794  20.803  0.00  0.00    +0.000 C 
ATOM     20  O   UNL     1       1.655   4.839  19.750  0.00  0.00    +0.000 OA
ENDBRANCH   1  20
TORSDOF 4
ENDMDL
MODEL 9
REMARK VINA RESULT:      -6.7      2.488      3.582
REMARK  Name = 
REMARK  6 active torsions:
REMARK  status: ('A' for Active; 'I' for Inactive)
REMARK    1  A    between atoms: C_1  and  O_2
REMARK    2  A    between atoms: O_2  and  C_3
REMARK    3  A    between atoms: C_6  and  C_7
REMARK    4  A    between atoms: C_10  and  C_11
REMARK    5  A    between atoms: C_14  and  S_15
REMARK    6  A    between atoms: S_15  and  N_16
REMARK                            x       y       z     vdW  Elec       q    Type
REMARK                         _______ _______ _______ _____ _____    ______ ____
ROOT
ATOM      1  C   UNL     1       5.122   4.171  16.748  0.00  0.00    +0.000 A 
ATOM      2  C   UNL     1       3.740   3.937  16.739  0.00  0.00    +0.000 A 
ATOM      3  C   UNL     1       2.893   4.584  17.647  0.00  0.00    +0.000 A 
ATOM      4  C   UNL     1       3.400   5.480  18.593  0.00  0.00    +0.000 A 
ATOM      5  C   UNL     1       4.775   5.741  18.583  0.00  0.00    +0.000 A 
ATOM      6  C   UNL     1       5.627   5.106  17.660  0.00  0.00    +0.000 A 
ENDROOT
BRANCH   4   7
ATOM      7  C   UNL     1       2.535   6.142  19.557  0.00  0.00    +0.000 A 
ATOM      8  C   UNL     1       1.784   5.742  20.642  0.00  0.00    +0.000 A 
ATOM      9  N   UNL     1       1.133   6.815  21.196  0.00  0.00    +0.000 NA
ATOM     10  C   UNL     1       1.501   7.826  20.438  0.00  0.00    +0.000 A 
ATOM     11  C   UNL     1       1.112   9.245  20.535  0.00  0.00    +0.000 C 
ATOM     12  O   UNL     1       2.356   7.495  19.422  0.00  0.00    +0.000 OA
ENDBRANCH   4   7
BRANCH   6  13
ATOM     13  S   UNL     1       7.326   5.593  17.655  0.00  0.00    +0.000 S 
ATOM     14  O   UNL     1       7.627   6.287  16.426  0.00  0.00    +0.000 OA
ATOM     15  O   UNL     1       7.646   6.168  18.945  0.00  0.00    +0.000 OA
BRANCH  13  16
ATOM     16  N   UNL     1       8.183   4.150  17.628  0.00  0.00    +0.000 NA
ATOM     17  H   UNL     1       8.952   4.215  18.297  0.00  0.00    +0.000 HD
ATOM     18  H   UNL     1       7.546   3.375  17.809  0.00  0.00    +0.000 HD
ENDBRANCH  13  16
ENDBRANCH   6  13
BRANCH   1  20
ATOM     19  C   UNL     1       5.921   3.951  14.526  0.00  0.00    +0.000 C 
ATOM     20  O   UNL     1       5.991   3.552  15.894  0.00  0.00    +0.000 OA
ENDBRANCH   1  20
TORSDOF 4
ENDMDL
