MODEL 1
REMARK VINA RESULT:      -7.5      0.000      0.000
REMARK  Name = 
REMARK  6 active torsions:
REMARK  status: ('A' for Active; 'I' for Inactive)
REMARK    1  A    between atoms: C_2  and  C_3
REMARK    2  A    between atoms: C_3  and  N_4
REMARK    3  A    between atoms: C_14  and  S_15
REMARK    4  A    between atoms: S_15  and  C_16
REMARK    5  A    between atoms: C_16  and  C_17
REMARK    6  A    between atoms: N_19  and  C_20
REMARK                            x       y       z     vdW  Elec       q    Type
REMARK                         _______ _______ _______ _____ _____    ______ ____
ROOT
ATOM      1  N   UNL     1       2.470   7.587  18.925  0.00  0.00    +0.000 N 
ATOM      2  C   UNL     1       2.001   6.848  20.006  0.00  0.00    +0.000 A 
ATOM      3  O   UNL     1       1.318   7.331  20.907  0.00  0.00    +0.000 OA
ATOM      4  C   UNL     1       2.346   5.400  20.067  0.00  0.00    +0.000 A 
ATOM      5  C   UNL     1       1.795   4.632  21.107  0.00  0.00    +0.000 A 
ATOM      6  C   UNL     1       2.094   3.276  21.211  0.00  0.00    +0.000 A 
ATOM      7  C   UNL     1       2.948   2.690  20.290  0.00  0.00    +0.000 A 
ATOM      8  C   UNL     1       3.501   3.445  19.248  0.00  0.00    +0.000 A 
ATOM      9  C   UNL     1       3.197   4.805  19.129  0.00  0.00    +0.000 A 
ATOM     10  N   UNL     1       3.699   5.645  18.107  0.00  0.00    +0.000 N 
ATOM     11  C   UNL     1       4.576   5.471  17.055  0.00  0.00    +0.000 A 
ATOM     12  N   UNL     1       4.755   6.608  16.420  0.00  0.00    +0.000 NA
ATOM     13  N   UNL     1       3.959   7.550  17.017  0.00  0.00    +0.000 NA
ATOM     14  C   UNL     1       3.335   6.981  18.027  0.00  0.00    +0.000 A 
ENDROOT
BRANCH   1  15
ATOM     15  C   UNL     1       2.124   9.003  18.841  0.00  0.00    +0.000 C 
BRANCH  15  17
ATOM     16  C   UNL     1      -0.102   9.999  18.216  0.00  0.00    +0.000 C 
ATOM     17  C   UNL     1       0.937   9.201  17.934  0.00  0.00    +0.000 C 
ENDBRANCH  15  17
ENDBRANCH   1  15
BRANCH  11  18
ATOM     18  S   UNL     1       5.358   3.999  16.571  0.00  0.00    +0.000 S 
BRANCH  18  19
ATOM     19  C   UNL     1       6.989   4.586  16.036  0.00  0.00    +0.000 C 
BRANCH  19  20
ATOM     20  C   UNL     1       7.090   4.613  14.521  0.00  0.00    +0.000 C 
ATOM     21  O   UNL     1       7.758   5.456  13.927  0.00  0.00    +0.000 OA
ATOM     22  N   UNL     1       6.356   3.637  13.886  0.00  0.00    +0.000 N 
ATOM     23  C   UNL     1       6.309   3.513  12.450  0.00  0.00    +0.000 C 
ATOM     24  H   UNL     1       5.764   3.023  14.438  0.00  0.00    +0.000 HD
ENDBRANCH  19  20
ENDBRANCH  18  19
ENDBRANCH  11  18
TORSDOF 5
ENDMDL
MODEL 2
REMARK VINA RESULT:      -7.3      1.574      2.102
REMARK  Name = 
REMARK  6 active torsions:
REMARK  status: ('A' for Active; 'I' for Inactive)
REMARK    1  A    between atoms: C_2  and  C_3
REMARK    2  A    between atoms: C_3  and  N_4
REMARK    3  A    between atoms: C_14  and  S_15
REMARK    4  A    between atoms: S_15  and  C_16
REMARK    5  A    between atoms: C_16  and  C_17
REMARK    6  A    between atoms: N_19  and  C_20
REMARK                            x       y       z     vdW  Elec       q    Type
REMARK                         _______ _______ _______ _____ _____    ______ ____
ROOT
ATOM      1  N   UNL     1       2.521   7.604  18.807  0.00  0.00    +0.000 N 
ATOM      2  C   UNL     1       2.091   6.895  19.924  0.00  0.00    +0.000 A 
ATOM      3  O   UNL     1       1.451   7.405  20.841  0.00  0.00    +0.000 OA
ATOM      4  C   UNL     1       2.426   5.446  20.004  0.00  0.00    +0.000 A 
ATOM      5  C   UNL     1       1.912   4.707  21.084  0.00  0.00    +0.000 A 
ATOM      6  C   UNL     1       2.203   3.350  21.206  0.00  0.00    +0.000 A 
ATOM      7  C   UNL     1       3.013   2.735  20.264  0.00  0.00    +0.000 A 
ATOM      8  C   UNL     1       3.528   3.461  19.182  0.00  0.00    +0.000 A 
ATOM      9  C   UNL     1       3.232   4.821  19.045  0.00  0.00    +0.000 A 
ATOM     10  N   UNL     1       3.698   5.632  17.984  0.00  0.00    +0.000 N 
ATOM     11  C   UNL     1       4.528   5.426  16.900  0.00  0.00    +0.000 A 
ATOM     12  N   UNL     1       4.690   6.547  16.232  0.00  0.00    +0.000 NA
ATOM     13  N   UNL     1       3.928   7.510  16.840  0.00  0.00    +0.000 NA
ATOM     14  C   UNL     1       3.343   6.970  17.888  0.00  0.00    +0.000 A 
ENDROOT
BRANCH   1  15
ATOM     15  C   UNL     1       2.184   9.021  18.705  0.00  0.00    +0.000 C 
BRANCH  15  17
ATOM     16  C   UNL     1      -0.082   9.997  18.207  0.00  0.00    +0.000 C 
ATOM     17  C   UNL     1       0.947   9.208  17.867  0.00  0.00    +0.000 C 
ENDBRANCH  15  17
ENDBRANCH   1  15
BRANCH  11  18
ATOM     18  S   UNL     1       5.276   3.936  16.418  0.00  0.00    +0.000 S 
BRANCH  18  19
ATOM     19  C   UNL     1       7.014   4.419  16.232  0.00  0.00    +0.000 C 
BRANCH  19  20
ATOM     20  C   UNL     1       7.459   5.313  17.377  0.00  0.00    +0.000 C 
ATOM     21  O   UNL     1       7.676   4.870  18.502  0.00  0.00    +0.000 OA
ATOM     22  N   UNL     1       7.571   6.644  17.047  0.00  0.00    +0.000 N 
ATOM     23  C   UNL     1       7.961   7.650  18.004  0.00  0.00    +0.000 C 
ATOM     24  H   UNL     1       7.299   6.950  16.117  0.00  0.00    +0.000 HD
ENDBRANCH  19  20
ENDBRANCH  18  19
ENDBRANCH  11  18
TORSDOF 5
ENDMDL
MODEL 3
REMARK VINA RESULT:      -7.2      3.011      6.590
REMARK  Name = 
REMARK  6 active torsions:
REMARK  status: ('A' for Active; 'I' for Inactive)
REMARK    1  A    between atoms: C_2  and  C_3
REMARK    2  A    between atoms: C_3  and  N_4
REMARK    3  A    between atoms: C_14  and  S_15
REMARK    4  A    between atoms: S_15  and  C_16
REMARK    5  A    between atoms: C_16  and  C_17
REMARK    6  A    between atoms: N_19  and  C_20
REMARK                            x       y       z     vdW  Elec       q    Type
REMARK                         _______ _______ _______ _____ _____    ______ ____
ROOT
ATOM      1  N   UNL     1       2.985   4.481  20.116  0.00  0.00    +0.000 N 
ATOM      2  C   UNL     1       3.975   4.034  19.248  0.00  0.00    +0.000 A 
ATOM      3  O   UNL     1       4.558   2.960  19.387  0.00  0.00    +0.000 OA
ATOM      4  C   UNL     1       4.343   4.904  18.097  0.00  0.00    +0.000 A 
ATOM      5  C   UNL     1       5.275   4.411  17.167  0.00  0.00    +0.000 A 
ATOM      6  C   UNL     1       5.656   5.191  16.077  0.00  0.00    +0.000 A 
ATOM      7  C   UNL     1       5.120   6.460  15.921  0.00  0.00    +0.000 A 
ATOM      8  C   UNL     1       4.188   6.959  16.839  0.00  0.00    +0.000 A 
ATOM      9  C   UNL     1       3.791   6.179  17.930  0.00  0.00    +0.000 A 
ATOM     10  N   UNL     1       2.851   6.594  18.903  0.00  0.00    +0.000 N 
ATOM     11  C   UNL     1       2.138   7.755  19.128  0.00  0.00    +0.000 A 
ATOM     12  N   UNL     1       1.426   7.646  20.228  0.00  0.00    +0.000 NA
ATOM     13  N   UNL     1       1.622   6.386  20.729  0.00  0.00    +0.000 NA
ATOM     14  C   UNL     1       2.476   5.760  19.947  0.00  0.00    +0.000 A 
ENDROOT
BRANCH   1  15
ATOM     15  C   UNL     1       2.600   3.631  21.239  0.00  0.00    +0.000 C 
BRANCH  15  17
ATOM     16  C   UNL     1       0.838   2.736  19.680  0.00  0.00    +0.000 C 
ATOM     17  C   UNL     1       1.342   2.869  20.915  0.00  0.00    +0.000 C 
ENDBRANCH  15  17
ENDBRANCH   1  15
BRANCH  11  18
ATOM     18  S   UNL     1       2.122   9.184  18.144  0.00  0.00    +0.000 S 
BRANCH  18  19
ATOM     19  C   UNL     1       1.245  10.370  19.200  0.00  0.00    +0.000 C 
BRANCH  19  20
ATOM     20  C   UNL     1      -0.234  10.420  18.854  0.00  0.00    +0.000 C 
ATOM     21  O   UNL     1      -1.083  10.765  19.672  0.00  0.00    +0.000 OA
ATOM     22  N   UNL     1      -0.529  10.028  17.569  0.00  0.00    +0.000 N 
ATOM     23  C   UNL     1      -1.878   9.989  17.061  0.00  0.00    +0.000 C 
ATOM     24  H   UNL     1       0.216   9.679  16.972  0.00  0.00    +0.000 HD
ENDBRANCH  19  20
ENDBRANCH  18  19
ENDBRANCH  11  18
TORSDOF 5
ENDMDL
MODEL 4
REMARK VINA RESULT:      -7.1      2.968      6.543
REMARK  Name = 
REMARK  6 active torsions:
REMARK  status: ('A' for Active; 'I' for Inactive)
REMARK    1  A    between atoms: C_2  and  C_3
REMARK    2  A    between atoms: C_3  and  N_4
REMARK    3  A    between atoms: C_14  and  S_15
REMARK    4  A    between atoms: S_15  and  C_16
REMARK    5  A    between atoms: C_16  and  C_17
REMARK    6  A    between atoms: N_19  and  C_20
REMARK                            x       y       z     vdW  Elec       q    Type
REMARK                         _______ _______ _______ _____ _____    ______ ____
ROOT
ATOM      1  N   UNL     1       3.000   4.446  20.083  0.00  0.00    +0.000 N 
ATOM      2  C   UNL     1       3.972   3.916  19.242  0.00  0.00    +0.000 A 
ATOM      3  O   UNL     1       4.503   2.822  19.430  0.00  0.00    +0.000 OA
ATOM      4  C   UNL     1       4.385   4.717  18.056  0.00  0.00    +0.000 A 
ATOM      5  C   UNL     1       5.298   4.142  17.155  0.00  0.00    +0.000 A 
ATOM      6  C   UNL     1       5.720   4.856  16.035  0.00  0.00    +0.000 A 
ATOM      7  C   UNL     1       5.245   6.140  15.821  0.00  0.00    +0.000 A 
ATOM      8  C   UNL     1       4.333   6.721  16.711  0.00  0.00    +0.000 A 
ATOM      9  C   UNL     1       3.894   6.009  17.832  0.00  0.00    +0.000 A 
ATOM     10  N   UNL     1       2.971   6.508  18.780  0.00  0.00    +0.000 N 
ATOM     11  C   UNL     1       2.313   7.710  18.950  0.00  0.00    +0.000 A 
ATOM     12  N   UNL     1       1.591   7.681  20.049  0.00  0.00    +0.000 NA
ATOM     13  N   UNL     1       1.725   6.436  20.605  0.00  0.00    +0.000 NA
ATOM     14  C   UNL     1       2.552   5.738  19.856  0.00  0.00    +0.000 A 
ENDROOT
BRANCH   1  15
ATOM     15  C   UNL     1       2.570   3.663  21.239  0.00  0.00    +0.000 C 
BRANCH  15  17
ATOM     16  C   UNL     1       0.825   2.607  19.764  0.00  0.00    +0.000 C 
ATOM     17  C   UNL     1       1.235   3.019  20.971  0.00  0.00    +0.000 C 
ENDBRANCH  15  17
ENDBRANCH   1  15
BRANCH  11  18
ATOM     18  S   UNL     1       2.367   9.094  17.906  0.00  0.00    +0.000 S 
BRANCH  18  19
ATOM     19  C   UNL     1       0.914  10.039  18.441  0.00  0.00    +0.000 C 
BRANCH  19  20
ATOM     20  C   UNL     1       1.304  11.441  18.878  0.00  0.00    +0.000 C 
ATOM     21  O   UNL     1       0.867  11.947  19.908  0.00  0.00    +0.000 OA
ATOM     22  N   UNL     1       2.158  12.087  18.014  0.00  0.00    +0.000 N 
ATOM     23  C   UNL     1       2.624  13.431  18.246  0.00  0.00    +0.000 C 
ATOM     24  H   UNL     1       2.416  11.636  17.140  0.00  0.00    +0.000 HD
ENDBRANCH  19  20
ENDBRANCH  18  19
ENDBRANCH  11  18
TORSDOF 5
ENDMDL
MODEL 5
REMARK VINA RESULT:      -7.0      3.001      6.717
REMARK  Name = 
REMARK  6 active torsions:
REMARK  status: ('A' for Active; 'I' for Inactive)
REMARK    1  A    between atoms: C_2  and  C_3
REMARK    2  A    between atoms: C_3  and  N_4
REMARK    3  A    between atoms: C_14  and  S_15
REMARK    4  A    between atoms: S_15  and  C_16
REMARK    5  A    between atoms: C_16  and  C_17
REMARK    6  A    between atoms: N_19  and  C_20
REMARK                            x       y       z     vdW  Elec       q    Type
REMARK                         _______ _______ _______ _____ _____    ______ ____
ROOT
ATOM      1  N   UNL     1       3.013   4.432  20.119  0.00  0.00    +0.000 N 
ATOM      2  C   UNL     1       3.983   3.914  19.268  0.00  0.00    +0.000 A 
ATOM      3  O   UNL     1       4.517   2.820  19.440  0.00  0.00    +0.000 OA
ATOM      4  C   UNL     1       4.388   4.731  18.090  0.00  0.00    +0.000 A 
ATOM      5  C   UNL     1       5.298   4.169  17.178  0.00  0.00    +0.000 A 
ATOM      6  C   UNL     1       5.713   4.896  16.064  0.00  0.00    +0.000 A 
ATOM      7  C   UNL     1       5.234   6.182  15.868  0.00  0.00    +0.000 A 
ATOM      8  C   UNL     1       4.325   6.750  16.769  0.00  0.00    +0.000 A 
ATOM      9  C   UNL     1       3.893   6.024  17.883  0.00  0.00    +0.000 A 
ATOM     10  N   UNL     1       2.973   6.509  18.842  0.00  0.00    +0.000 N 
ATOM     11  C   UNL     1       2.313   7.707  19.028  0.00  0.00    +0.000 A 
ATOM     12  N   UNL     1       1.596   7.664  20.131  0.00  0.00    +0.000 NA
ATOM     13  N   UNL     1       1.736   6.413  20.671  0.00  0.00    +0.000 NA
ATOM     14  C   UNL     1       2.561   5.726  19.910  0.00  0.00    +0.000 A 
ENDROOT
BRANCH   1  15
ATOM     15  C   UNL     1       2.590   3.635  21.268  0.00  0.00    +0.000 C 
BRANCH  15  17
ATOM     16  C   UNL     1       0.687   2.892  19.798  0.00  0.00    +0.000 C 
ATOM     17  C   UNL     1       1.450   2.728  20.887  0.00  0.00    +0.000 C 
ENDBRANCH  15  17
ENDBRANCH   1  15
BRANCH  11  18
ATOM     18  S   UNL     1       2.359   9.104  18.000  0.00  0.00    +0.000 S 
BRANCH  18  19
ATOM     19  C   UNL     1       0.679   9.765  18.171  0.00  0.00    +0.000 C 
BRANCH  19  20
ATOM     20  C   UNL     1       0.629  10.871  19.212  0.00  0.00    +0.000 C 
ATOM     21  O   UNL     1       1.049  12.002  18.982  0.00  0.00    +0.000 OA
ATOM     22  N   UNL     1       0.100  10.486  20.423  0.00  0.00    +0.000 N 
ATOM     23  C   UNL     1      -0.012  11.388  21.542  0.00  0.00    +0.000 C 
ATOM     24  H   UNL     1      -0.155   9.512  20.567  0.00  0.00    +0.000 HD
ENDBRANCH  19  20
ENDBRANCH  18  19
ENDBRANCH  11  18
TORSDOF 5
ENDMDL
MODEL 6
REMARK VINA RESULT:      -7.0      1.218      3.772
REMARK  Name = 
REMARK  6 active torsions:
REMARK  status: ('A' for Active; 'I' for Inactive)
REMARK    1  A    between atoms: C_2  and  C_3
REMARK    2  A    between atoms: C_3  and  N_4
REMARK    3  A    between atoms: C_14  and  S_15
REMARK    4  A    between atoms: S_15  and  C_16
REMARK    5  A    between atoms: C_16  and  C_17
REMARK    6  A    between atoms: N_19  and  C_20
REMARK                            x       y       z     vdW  Elec       q    Type
REMARK                         _______ _______ _______ _____ _____    ______ ____
ROOT
ATOM      1  N   UNL     1       2.690   4.939  20.338  0.00  0.00    +0.000 N 
ATOM      2  C   UNL     1       1.913   6.088  20.442  0.00  0.00    +0.000 A 
ATOM      3  O   UNL     1       1.061   6.249  21.315  0.00  0.00    +0.000 OA
ATOM      4  C   UNL     1       2.129   7.173  19.445  0.00  0.00    +0.000 A 
ATOM      5  C   UNL     1       1.413   8.371  19.605  0.00  0.00    +0.000 A 
ATOM      6  C   UNL     1       1.576   9.413  18.694  0.00  0.00    +0.000 A 
ATOM      7  C   UNL     1       2.439   9.255  17.621  0.00  0.00    +0.000 A 
ATOM      8  C   UNL     1       3.160   8.067  17.453  0.00  0.00    +0.000 A 
ATOM      9  C   UNL     1       3.012   7.020  18.369  0.00  0.00    +0.000 A 
ATOM     10  N   UNL     1       3.703   5.788  18.287  0.00  0.00    +0.000 N 
ATOM     11  C   UNL     1       4.591   5.235  17.387  0.00  0.00    +0.000 A 
ATOM     12  N   UNL     1       4.902   4.010  17.750  0.00  0.00    +0.000 NA
ATOM     13  N   UNL     1       4.255   3.746  18.928  0.00  0.00    +0.000 NA
ATOM     14  C   UNL     1       3.534   4.800  19.247  0.00  0.00    +0.000 A 
ENDROOT
BRANCH   1  15
ATOM     15  C   UNL     1       2.503   3.875  21.320  0.00  0.00    +0.000 C 
BRANCH  15  17
ATOM     16  C   UNL     1       0.712   3.045  19.757  0.00  0.00    +0.000 C 
ATOM     17  C   UNL     1       1.523   2.853  20.807  0.00  0.00    +0.000 C 
ENDBRANCH  15  17
ENDBRANCH   1  15
BRANCH  11  18
ATOM     18  S   UNL     1       5.256   5.985  15.971  0.00  0.00    +0.000 S 
BRANCH  18  19
ATOM     19  C   UNL     1       6.822   5.094  15.760  0.00  0.00    +0.000 C 
BRANCH  19  20
ATOM     20  C   UNL     1       7.098   4.813  14.293  0.00  0.00    +0.000 C 
ATOM     21  O   UNL     1       7.950   5.431  13.660  0.00  0.00    +0.000 OA
ATOM     22  N   UNL     1       6.300   3.835  13.744  0.00  0.00    +0.000 N 
ATOM     23  C   UNL     1       6.399   3.441  12.360  0.00  0.00    +0.000 C 
ATOM     24  H   UNL     1       5.562   3.421  14.306  0.00  0.00    +0.000 HD
ENDBRANCH  19  20
ENDBRANCH  18  19
ENDBRANCH  11  18
TORSDOF 5
ENDMDL
MODEL 7
REMARK VINA RESULT:      -7.0      1.913      2.451
REMARK  Name = 
REMARK  6 active torsions:
REMARK  status: ('A' for Active; 'I' for Inactive)
REMARK    1  A    between atoms: C_2  and  C_3
REMARK    2  A    between atoms: C_3  and  N_4
REMARK    3  A    between atoms: C_14  and  S_15
REMARK    4  A    between atoms: S_15  and  C_16
REMARK    5  A    between atoms: C_16  and  C_17
REMARK    6  A    between atoms: N_19  and  C_20
REMARK                            x       y       z     vdW  Elec       q    Type
REMARK                         _______ _______ _______ _____ _____    ______ ____
ROOT
ATOM      1  N   UNL     1       2.493   6.668  19.054  0.00  0.00    +0.000 N 
ATOM      2  C   UNL     1       2.099   5.502  19.701  0.00  0.00    +0.000 A 
ATOM      3  O   UNL     1       1.396   5.496  20.711  0.00  0.00    +0.000 OA
ATOM      4  C   UNL     1       2.554   4.201  19.139  0.00  0.00    +0.000 A 
ATOM      5  C   UNL     1       2.080   3.020  19.736  0.00  0.00    +0.000 A 
ATOM      6  C   UNL     1       2.483   1.778  19.249  0.00  0.00    +0.000 A 
ATOM      7  C   UNL     1       3.365   1.713  18.181  0.00  0.00    +0.000 A 
ATOM      8  C   UNL     1       3.841   2.883  17.577  0.00  0.00    +0.000 A 
ATOM      9  C   UNL     1       3.433   4.134  18.051  0.00  0.00    +0.000 A 
ATOM     10  N   UNL     1       3.853   5.368  17.501  0.00  0.00    +0.000 N 
ATOM     11  C   UNL     1       4.724   5.732  16.493  0.00  0.00    +0.000 A 
ATOM     12  N   UNL     1       4.804   7.043  16.414  0.00  0.00    +0.000 NA
ATOM     13  N   UNL     1       3.949   7.572  17.344  0.00  0.00    +0.000 NA
ATOM     14  C   UNL     1       3.387   6.577  17.998  0.00  0.00    +0.000 A 
ENDROOT
BRANCH   1  15
ATOM     15  C   UNL     1       2.038   7.951  19.582  0.00  0.00    +0.000 C 
BRANCH  15  17
ATOM     16  C   UNL     1       1.091  10.075  18.619  0.00  0.00    +0.000 C 
ATOM     17  C   UNL     1       1.428   8.785  18.486  0.00  0.00    +0.000 C 
ENDBRANCH  15  17
ENDBRANCH   1  15
BRANCH  11  18
ATOM     18  S   UNL     1       5.607   4.678  15.436  0.00  0.00    +0.000 S 
BRANCH  18  19
ATOM     19  C   UNL     1       7.081   4.292  16.419  0.00  0.00    +0.000 C 
BRANCH  19  20
ATOM     20  C   UNL     1       7.332   5.360  17.470  0.00  0.00    +0.000 C 
ATOM     21  O   UNL     1       7.244   5.126  18.672  0.00  0.00    +0.000 OA
ATOM     22  N   UNL     1       7.640   6.599  16.956  0.00  0.00    +0.000 N 
ATOM     23  C   UNL     1       7.891   7.745  17.794  0.00  0.00    +0.000 C 
ATOM     24  H   UNL     1       7.618   6.739  15.949  0.00  0.00    +0.000 HD
ENDBRANCH  19  20
ENDBRANCH  18  19
ENDBRANCH  11  18
TORSDOF 5
ENDMDL
MODEL 8
REMARK VINA RESULT:      -7.0      2.912      6.909
REMARK  Name = 
REMARK  6 active torsions:
REMARK  status: ('A' for Active; 'I' for Inactive)
REMARK    1  A    between atoms: C_2  and  C_3
REMARK    2  A    between atoms: C_3  and  N_4
REMARK    3  A    between atoms: C_14  and  S_15
REMARK    4  A    between atoms: S_15  and  C_16
REMARK    5  A    between atoms: C_16  and  C_17
REMARK    6  A    between atoms: N_19  and  C_20
REMARK                            x       y       z     vdW  Elec       q    Type
REMARK                         _______ _______ _______ _____ _____    ______ ____
ROOT
ATOM      1  N   UNL     1       4.185   5.726  17.522  0.00  0.00    +0.000 N 
ATOM      2  C   UNL     1       4.185   4.419  17.998  0.00  0.00    +0.000 A 
ATOM      3  O   UNL     1       4.752   3.492  17.422  0.00  0.00    +0.000 OA
ATOM      4  C   UNL     1       3.462   4.136  19.269  0.00  0.00    +0.000 A 
ATOM      5  C   UNL     1       3.541   2.837  19.799  0.00  0.00    +0.000 A 
ATOM      6  C   UNL     1       2.875   2.522  20.982  0.00  0.00    +0.000 A 
ATOM      7  C   UNL     1       2.124   3.493  21.626  0.00  0.00    +0.000 A 
ATOM      8  C   UNL     1       2.042   4.792  21.108  0.00  0.00    +0.000 A 
ATOM      9  C   UNL     1       2.716   5.121  19.927  0.00  0.00    +0.000 A 
ATOM     10  N   UNL     1       2.698   6.404  19.333  0.00  0.00    +0.000 N 
ATOM     11  C   UNL     1       2.066   7.597  19.624  0.00  0.00    +0.000 A 
ATOM     12  N   UNL     1       2.345   8.495  18.705  0.00  0.00    +0.000 NA
ATOM     13  N   UNL     1       3.208   7.922  17.808  0.00  0.00    +0.000 NA
ATOM     14  C   UNL     1       3.414   6.675  18.176  0.00  0.00    +0.000 A 
ENDROOT
BRANCH   1  15
ATOM     15  C   UNL     1       4.906   6.023  16.288  0.00  0.00    +0.000 C 
BRANCH  15  17
ATOM     16  C   UNL     1       6.935   7.046  17.372  0.00  0.00    +0.000 C 
ATOM     17  C   UNL     1       6.384   6.136  16.556  0.00  0.00    +0.000 C 
ENDBRANCH  15  17
ENDBRANCH   1  15
BRANCH  11  18
ATOM     18  S   UNL     1       1.050   7.942  20.987  0.00  0.00    +0.000 S 
BRANCH  18  19
ATOM     19  C   UNL     1       0.723   9.714  20.786  0.00  0.00    +0.000 C 
BRANCH  19  20
ATOM     20  C   UNL     1       0.163  10.316  22.064  0.00  0.00    +0.000 C 
ATOM     21  O   UNL     1       0.496   9.912  23.175  0.00  0.00    +0.000 OA
ATOM     22  N   UNL     1      -0.755  11.321  21.863  0.00  0.00    +0.000 N 
ATOM     23  C   UNL     1      -1.411  12.000  22.952  0.00  0.00    +0.000 C 
ATOM     24  H   UNL     1      -1.042  11.550  20.915  0.00  0.00    +0.000 HD
ENDBRANCH  19  20
ENDBRANCH  18  19
ENDBRANCH  11  18
TORSDOF 5
ENDMDL
MODEL 9
REMARK VINA RESULT:      -6.9      2.391      6.226
REMARK  Name = 
REMARK  6 active torsions:
REMARK  status: ('A' for Active; 'I' for Inactive)
REMARK    1  A    between atoms: C_2  and  C_3
REMARK    2  A    between atoms: C_3  and  N_4
REMARK    3  A    between atoms: C_14  and  S_15
REMARK    4  A    between atoms: S_15  and  C_16
REMARK    5  A    between atoms: C_16  and  C_17
REMARK    6  A    between atoms: N_19  and  C_20
REMARK                            x       y       z     vdW  Elec       q    Type
REMARK                         _______ _______ _______ _____ _____    ______ ____
ROOT
ATOM      1  N   UNL     1       4.727   4.306  17.165  0.00  0.00    +0.000 N 
ATOM      2  C   UNL     1       4.088   3.204  17.722  0.00  0.00    +0.000 A 
ATOM      3  O   UNL     1       4.380   2.042  17.442  0.00  0.00    +0.000 OA
ATOM      4  C   UNL     1       2.999   3.450  18.707  0.00  0.00    +0.000 A 
ATOM      5  C   UNL     1       2.417   2.339  19.342  0.00  0.00    +0.000 A 
ATOM      6  C   UNL     1       1.389   2.518  20.265  0.00  0.00    +0.000 A 
ATOM      7  C   UNL     1       0.935   3.797  20.546  0.00  0.00    +0.000 A 
ATOM      8  C   UNL     1       1.510   4.911  19.922  0.00  0.00    +0.000 A 
ATOM      9  C   UNL     1       2.550   4.743  19.002  0.00  0.00    +0.000 A 
ATOM     10  N   UNL     1       3.196   5.806  18.330  0.00  0.00    +0.000 N 
ATOM     11  C   UNL     1       3.028   7.176  18.298  0.00  0.00    +0.000 A 
ATOM     12  N   UNL     1       3.872   7.718  17.448  0.00  0.00    +0.000 NA
ATOM     13  N   UNL     1       4.649   6.714  16.932  0.00  0.00    +0.000 NA
ATOM     14  C   UNL     1       4.244   5.574  17.450  0.00  0.00    +0.000 A 
ENDROOT
BRANCH   1  15
ATOM     15  C   UNL     1       5.811   4.081  16.212  0.00  0.00    +0.000 C 
BRANCH  15  17
ATOM     16  C   UNL     1       5.989   3.868  13.710  0.00  0.00    +0.000 C 
ATOM     17  C   UNL     1       5.315   4.258  14.801  0.00  0.00    +0.000 C 
ENDBRANCH  15  17
ENDBRANCH   1  15
BRANCH  11  18
ATOM     18  S   UNL     1       1.901   8.118  19.222  0.00  0.00    +0.000 S 
BRANCH  18  19
ATOM     19  C   UNL     1       1.437   9.422  18.051  0.00  0.00    +0.000 C 
BRANCH  19  20
ATOM     20  C   UNL     1       0.134  10.088  18.463  0.00  0.00    +0.000 C 
ATOM     21  O   UNL     1      -0.049  10.516  19.600  0.00  0.00    +0.000 OA
ATOM     22  N   UNL     1      -0.813  10.143  17.466  0.00  0.00    +0.000 N 
ATOM     23  C   UNL     1      -2.119  10.719  17.670  0.00  0.00    +0.000 C 
ATOM     24  H   UNL     1      -0.621   9.698  16.573  0.00  0.00    +0.000 HD
ENDBRANCH  19  20
ENDBRANCH  18  19
ENDBRANCH  11  18
TORSDOF 5
ENDMDL
