MODEL 1
REMARK VINA RESULT:      -9.7      0.000      0.000
REMARK  Name = 
REMARK  6 active torsions:
REMARK  status: ('A' for Active; 'I' for Inactive)
REMARK    1  A    between atoms: C_2  and  O_3
REMARK    2  A    between atoms: C_2  and  C_4
REMARK    3  A    between atoms: C_10  and  C_11
REMARK    4  A    between atoms: C_17  and  O_18
REMARK    5  A    between atoms: C_22  and  O_23
REMARK    6  A    between atoms: C_24  and  O_25
REMARK                            x       y       z     vdW  Elec       q    Type
REMARK                         _______ _______ _______ _____ _____    ______ ____
ROOT
ATOM      1  C   UNL     1       3.495   5.384  19.074  0.00  0.00    +0.000 A 
ATOM      2  C   UNL     1       4.278   5.254  17.950  0.00  0.00    +0.000 A 
ATOM      3  C   UNL     1       5.018   4.017  17.625  0.00  0.00    +0.000 A 
ATOM      4  C   UNL     1       5.706   3.859  16.485  0.00  0.00    +0.000 A 
ATOM      5  C   UNL     1       5.772   4.938  15.489  0.00  0.00    +0.000 A 
ATOM      6  O   UNL     1       6.388   4.820  14.434  0.00  0.00    +0.000 OA
ATOM      7  C   UNL     1       5.055   6.201  15.794  0.00  0.00    +0.000 A 
ATOM      8  C   UNL     1       4.371   6.341  16.942  0.00  0.00    +0.000 A 
ATOM      9  O   UNL     1       3.674   7.521  17.119  0.00  0.00    +0.000 OA
ATOM     10  C   UNL     1       2.886   7.678  18.218  0.00  0.00    +0.000 A 
ATOM     11  C   UNL     1       2.158   8.882  18.273  0.00  0.00    +0.000 A 
ATOM     12  C   UNL     1       1.347   9.174  19.344  0.00  0.00    +0.000 A 
ATOM     13  C   UNL     1       1.262   8.282  20.379  0.00  0.00    +0.000 A 
ATOM     14  C   UNL     1       1.986   7.084  20.305  0.00  0.00    +0.000 A 
ATOM     15  C   UNL     1       2.796   6.708  19.229  0.00  0.00    +0.000 A 
ENDROOT
BRANCH   1  22
ATOM     16  C   UNL     1       3.009   2.797  19.236  0.00  0.00    +0.000 C 
ATOM     17  C   UNL     1       1.801   2.117  19.949  0.00  0.00    +0.000 C 
ATOM     18  C   UNL     1       0.508   2.900  19.814  0.00  0.00    +0.000 C 
ATOM     19  C   UNL     1       0.629   4.029  20.535  0.00  0.00    +0.000 C 
ATOM     20  C   UNL     1       2.012   4.040  21.104  0.00  0.00    +0.000 C 
ATOM     21  C   UNL     1       2.068   2.513  21.402  0.00  0.00    +0.000 C 
ATOM     22  C   UNL     1       3.139   4.167  20.004  0.00  0.00    +0.000 C 
BRANCH  16  24
ATOM     23  O   UNL     1       5.188   2.212  20.220  0.00  0.00    +0.000 OA
ATOM     24  C   UNL     1       4.295   1.972  19.419  0.00  0.00    +0.000 C 
BRANCH  24  25
ATOM     25  O   UNL     1       4.367   0.908  18.591  0.00  0.00    +0.000 OA
ATOM     26  H   UNL     1       3.788   0.164  18.832  0.00  0.00    +0.000 HD
ENDBRANCH  24  25
ENDBRANCH  16  24
ENDBRANCH   1  22
BRANCH   7  27
ATOM     27  O   UNL     1       5.099   7.199  14.828  0.00  0.00    +0.000 OA
ATOM     28  H   UNL     1       4.697   7.984  15.261  0.00  0.00    +0.000 HD
ENDBRANCH   7  27
BRANCH  11  29
ATOM     29  O   UNL     1       2.233   9.809  17.257  0.00  0.00    +0.000 OA
ATOM     30  H   UNL     1       1.652  10.551  17.520  0.00  0.00    +0.000 HD
ENDBRANCH  11  29
BRANCH  12  31
ATOM     31  O   UNL     1       0.623  10.325  19.395  0.00  0.00    +0.000 OA
ATOM     32  H   UNL     1       0.210  10.321  20.281  0.00  0.00    +0.000 HD
ENDBRANCH  12  31
TORSDOF 6
ENDMDL
MODEL 2
REMARK VINA RESULT:      -8.5      1.862      5.135
REMARK  Name = 
REMARK  6 active torsions:
REMARK  status: ('A' for Active; 'I' for Inactive)
REMARK    1  A    between atoms: C_2  and  O_3
REMARK    2  A    between atoms: C_2  and  C_4
REMARK    3  A    between atoms: C_10  and  C_11
REMARK    4  A    between atoms: C_17  and  O_18
REMARK    5  A    between atoms: C_22  and  O_23
REMARK    6  A    between atoms: C_24  and  O_25
REMARK                            x       y       z     vdW  Elec       q    Type
REMARK                         _______ _______ _______ _____ _____    ______ ____
ROOT
ATOM      1  C   UNL     1       4.097   6.019  18.289  0.00  0.00    +0.000 A 
ATOM      2  C   UNL     1       3.886   4.911  19.077  0.00  0.00    +0.000 A 
ATOM      3  C   UNL     1       4.756   3.717  19.034  0.00  0.00    +0.000 A 
ATOM      4  C   UNL     1       4.605   2.677  19.866  0.00  0.00    +0.000 A 
ATOM      5  C   UNL     1       3.533   2.665  20.871  0.00  0.00    +0.000 A 
ATOM      6  O   UNL     1       3.374   1.730  21.650  0.00  0.00    +0.000 OA
ATOM      7  C   UNL     1       2.629   3.841  20.928  0.00  0.00    +0.000 A 
ATOM      8  C   UNL     1       2.796   4.875  20.086  0.00  0.00    +0.000 A 
ATOM      9  O   UNL     1       1.957   5.961  20.248  0.00  0.00    +0.000 OA
ATOM     10  C   UNL     1       2.143   7.074  19.488  0.00  0.00    +0.000 A 
ATOM     11  C   UNL     1       1.288   8.154  19.778  0.00  0.00    +0.000 A 
ATOM     12  C   UNL     1       1.356   9.327  19.063  0.00  0.00    +0.000 A 
ATOM     13  C   UNL     1       2.263   9.434  18.042  0.00  0.00    +0.000 A 
ATOM     14  C   UNL     1       3.113   8.353  17.773  0.00  0.00    +0.000 A 
ATOM     15  C   UNL     1       3.124   7.150  18.486  0.00  0.00    +0.000 A 
ENDROOT
BRANCH   1  22
ATOM     16  C   UNL     1       5.762   4.965  16.536  0.00  0.00    +0.000 C 
ATOM     17  C   UNL     1       7.316   4.906  16.645  0.00  0.00    +0.000 C 
ATOM     18  C   UNL     1       7.810   4.677  18.061  0.00  0.00    +0.000 C 
ATOM     19  C   UNL     1       7.545   5.784  18.777  0.00  0.00    +0.000 C 
ATOM     20  C   UNL     1       6.825   6.732  17.870  0.00  0.00    +0.000 C 
ATOM     21  C   UNL     1       7.661   6.395  16.602  0.00  0.00    +0.000 C 
ATOM     22  C   UNL     1       5.400   6.212  17.429  0.00  0.00    +0.000 C 
BRANCH  16  24
ATOM     23  O   UNL     1       5.225   4.364  14.211  0.00  0.00    +0.000 OA
ATOM     24  C   UNL     1       5.318   5.215  15.085  0.00  0.00    +0.000 C 
BRANCH  24  25
ATOM     25  O   UNL     1       5.018   6.508  14.835  0.00  0.00    +0.000 OA
ATOM     26  H   UNL     1       4.137   6.654  14.446  0.00  0.00    +0.000 HD
ENDBRANCH  24  25
ENDBRANCH  16  24
ENDBRANCH   1  22
BRANCH   7  27
ATOM     27  O   UNL     1       1.642   3.830  21.905  0.00  0.00    +0.000 OA
ATOM     28  H   UNL     1       0.904   3.315  21.511  0.00  0.00    +0.000 HD
ENDBRANCH   7  27
BRANCH  11  29
ATOM     29  O   UNL     1       0.354   8.075  20.786  0.00  0.00    +0.000 OA
ATOM     30  H   UNL     1       0.755   8.507  21.568  0.00  0.00    +0.000 HD
ENDBRANCH  11  29
BRANCH  12  31
ATOM     31  O   UNL     1       0.549  10.383  19.350  0.00  0.00    +0.000 OA
ATOM     32  H   UNL     1      -0.175  10.005  19.887  0.00  0.00    +0.000 HD
ENDBRANCH  12  31
TORSDOF 6
ENDMDL
MODEL 3
REMARK VINA RESULT:      -8.4      0.805      1.047
REMARK  Name = 
REMARK  6 active torsions:
REMARK  status: ('A' for Active; 'I' for Inactive)
REMARK    1  A    between atoms: C_2  and  O_3
REMARK    2  A    between atoms: C_2  and  C_4
REMARK    3  A    between atoms: C_10  and  C_11
REMARK    4  A    between atoms: C_17  and  O_18
REMARK    5  A    between atoms: C_22  and  O_23
REMARK    6  A    between atoms: C_24  and  O_25
REMARK                            x       y       z     vdW  Elec       q    Type
REMARK                         _______ _______ _______ _____ _____    ______ ____
ROOT
ATOM      1  C   UNL     1       3.759   5.178  18.722  0.00  0.00    +0.000 A 
ATOM      2  C   UNL     1       4.532   5.186  17.583  0.00  0.00    +0.000 A 
ATOM      3  C   UNL     1       5.335   4.025  17.149  0.00  0.00    +0.000 A 
ATOM      4  C   UNL     1       6.015   4.002  15.993  0.00  0.00    +0.000 A 
ATOM      5  C   UNL     1       6.007   5.162  15.091  0.00  0.00    +0.000 A 
ATOM      6  O   UNL     1       6.615   5.168  14.024  0.00  0.00    +0.000 OA
ATOM      7  C   UNL     1       5.227   6.353  15.508  0.00  0.00    +0.000 A 
ATOM      8  C   UNL     1       4.551   6.358  16.670  0.00  0.00    +0.000 A 
ATOM      9  O   UNL     1       3.793   7.478  16.953  0.00  0.00    +0.000 OA
ATOM     10  C   UNL     1       3.013   7.497  18.067  0.00  0.00    +0.000 A 
ATOM     11  C   UNL     1       2.220   8.650  18.231  0.00  0.00    +0.000 A 
ATOM     12  C   UNL     1       1.408   8.805  19.330  0.00  0.00    +0.000 A 
ATOM     13  C   UNL     1       1.388   7.825  20.287  0.00  0.00    +0.000 A 
ATOM     14  C   UNL     1       2.175   6.680  20.105  0.00  0.00    +0.000 A 
ATOM     15  C   UNL     1       2.990   6.442  18.994  0.00  0.00    +0.000 A 
ENDROOT
BRANCH   1  22
ATOM     16  C   UNL     1       2.294   3.000  18.987  0.00  0.00    +0.000 C 
ATOM     17  C   UNL     1       1.591   2.502  20.286  0.00  0.00    +0.000 C 
ATOM     18  C   UNL     1       1.039   3.629  21.139  0.00  0.00    +0.000 C 
ATOM     19  C   UNL     1       2.079   4.306  21.656  0.00  0.00    +0.000 C 
ATOM     20  C   UNL     1       3.325   3.682  21.109  0.00  0.00    +0.000 C 
ATOM     21  C   UNL     1       2.802   2.217  21.174  0.00  0.00    +0.000 C 
ATOM     22  C   UNL     1       3.483   3.868  19.548  0.00  0.00    +0.000 C 
BRANCH  16  24
ATOM     23  O   UNL     1       3.770   1.090  18.509  0.00  0.00    +0.000 OA
ATOM     24  C   UNL     1       2.848   1.821  18.170  0.00  0.00    +0.000 C 
BRANCH  24  25
ATOM     25  O   UNL     1       2.209   1.639  16.995  0.00  0.00    +0.000 OA
ATOM     26  H   UNL     1       1.401   1.098  17.051  0.00  0.00    +0.000 HD
ENDBRANCH  24  25
ENDBRANCH  16  24
ENDBRANCH   1  22
BRANCH   7  27
ATOM     27  O   UNL     1       5.202   7.429  14.630  0.00  0.00    +0.000 OA
ATOM     28  H   UNL     1       4.278   7.761  14.665  0.00  0.00    +0.000 HD
ENDBRANCH   7  27
BRANCH  11  29
ATOM     29  O   UNL     1       2.230   9.661  17.297  0.00  0.00    +0.000 OA
ATOM     30  H   UNL     1       1.678  10.381  17.665  0.00  0.00    +0.000 HD
ENDBRANCH  11  29
BRANCH  12  31
ATOM     31  O   UNL     1       0.623   9.904  19.485  0.00  0.00    +0.000 OA
ATOM     32  H   UNL     1       1.043  10.412  20.207  0.00  0.00    +0.000 HD
ENDBRANCH  12  31
TORSDOF 6
ENDMDL
MODEL 4
REMARK VINA RESULT:      -8.4      7.979     11.366
REMARK  Name = 
REMARK  6 active torsions:
REMARK  status: ('A' for Active; 'I' for Inactive)
REMARK    1  A    between atoms: C_2  and  O_3
REMARK    2  A    between atoms: C_2  and  C_4
REMARK    3  A    between atoms: C_10  and  C_11
REMARK    4  A    between atoms: C_17  and  O_18
REMARK    5  A    between atoms: C_22  and  O_23
REMARK    6  A    between atoms: C_24  and  O_25
REMARK                            x       y       z     vdW  Elec       q    Type
REMARK                         _______ _______ _______ _____ _____    ______ ____
ROOT
ATOM      1  C   UNL     1      -4.159  12.670  19.541  0.00  0.00    +0.000 A 
ATOM      2  C   UNL     1      -3.197  12.841  20.511  0.00  0.00    +0.000 A 
ATOM      3  C   UNL     1      -3.451  13.560  21.776  0.00  0.00    +0.000 A 
ATOM      4  C   UNL     1      -2.542  13.646  22.759  0.00  0.00    +0.000 A 
ATOM      5  C   UNL     1      -1.215  13.031  22.614  0.00  0.00    +0.000 A 
ATOM      6  O   UNL     1      -0.366  13.088  23.498  0.00  0.00    +0.000 OA
ATOM      7  C   UNL     1      -0.922  12.318  21.347  0.00  0.00    +0.000 A 
ATOM      8  C   UNL     1      -1.845  12.241  20.373  0.00  0.00    +0.000 A 
ATOM      9  O   UNL     1      -1.519  11.500  19.253  0.00  0.00    +0.000 OA
ATOM     10  C   UNL     1      -2.450  11.309  18.280  0.00  0.00    +0.000 A 
ATOM     11  C   UNL     1      -2.050  10.479  17.215  0.00  0.00    +0.000 A 
ATOM     12  C   UNL     1      -2.889  10.228  16.154  0.00  0.00    +0.000 A 
ATOM     13  C   UNL     1      -4.128  10.811  16.132  0.00  0.00    +0.000 A 
ATOM     14  C   UNL     1      -4.514  11.627  17.204  0.00  0.00    +0.000 A 
ATOM     15  C   UNL     1      -3.727  11.890  18.329  0.00  0.00    +0.000 A 
ENDROOT
BRANCH   1  22
ATOM     16  C   UNL     1      -6.676  11.936  19.250  0.00  0.00    +0.000 C 
ATOM     17  C   UNL     1      -7.834  12.792  18.653  0.00  0.00    +0.000 C 
ATOM     18  C   UNL     1      -7.394  13.673  17.499  0.00  0.00    +0.000 C 
ATOM     19  C   UNL     1      -6.594  14.635  17.993  0.00  0.00    +0.000 C 
ATOM     20  C   UNL     1      -6.444  14.372  19.458  0.00  0.00    +0.000 C 
ATOM     21  C   UNL     1      -7.916  13.919  19.683  0.00  0.00    +0.000 C 
ATOM     22  C   UNL     1      -5.672  13.031  19.776  0.00  0.00    +0.000 C 
BRANCH  16  24
ATOM     23  O   UNL     1      -6.951  11.291  21.609  0.00  0.00    +0.000 OA
ATOM     24  C   UNL     1      -7.172  11.076  20.425  0.00  0.00    +0.000 C 
BRANCH  24  25
ATOM     25  O   UNL     1      -7.911  10.015  20.034  0.00  0.00    +0.000 OA
ATOM     26  H   UNL     1      -8.392   9.568  20.752  0.00  0.00    +0.000 HD
ENDBRANCH  24  25
ENDBRANCH  16  24
ENDBRANCH   1  22
BRANCH   7  27
ATOM     27  O   UNL     1       0.324  11.712  21.238  0.00  0.00    +0.000 OA
ATOM     28  H   UNL     1       0.288  11.214  20.393  0.00  0.00    +0.000 HD
ENDBRANCH   7  27
BRANCH  11  29
ATOM     29  O   UNL     1      -0.805   9.890  17.197  0.00  0.00    +0.000 OA
ATOM     30  H   UNL     1      -0.958   8.924  17.224  0.00  0.00    +0.000 HD
ENDBRANCH  11  29
BRANCH  12  31
ATOM     31  O   UNL     1      -2.518   9.411  15.132  0.00  0.00    +0.000 OA
ATOM     32  H   UNL     1      -2.521   8.513  15.517  0.00  0.00    +0.000 HD
ENDBRANCH  12  31
TORSDOF 6
ENDMDL
MODEL 5
REMARK VINA RESULT:      -8.3      0.662      4.487
REMARK  Name = 
REMARK  6 active torsions:
REMARK  status: ('A' for Active; 'I' for Inactive)
REMARK    1  A    between atoms: C_2  and  O_3
REMARK    2  A    between atoms: C_2  and  C_4
REMARK    3  A    between atoms: C_10  and  C_11
REMARK    4  A    between atoms: C_17  and  O_18
REMARK    5  A    between atoms: C_22  and  O_23
REMARK    6  A    between atoms: C_24  and  O_25
REMARK                            x       y       z     vdW  Elec       q    Type
REMARK                         _______ _______ _______ _____ _____    ______ ____
ROOT
ATOM      1  C   UNL     1       2.912   5.668  18.915  0.00  0.00    +0.000 A 
ATOM      2  C   UNL     1       2.340   6.907  19.093  0.00  0.00    +0.000 A 
ATOM      3  C   UNL     1       1.502   7.245  20.262  0.00  0.00    +0.000 A 
ATOM      4  C   UNL     1       1.022   8.478  20.480  0.00  0.00    +0.000 A 
ATOM      5  C   UNL     1       1.297   9.571  19.539  0.00  0.00    +0.000 A 
ATOM      6  O   UNL     1       0.876  10.711  19.716  0.00  0.00    +0.000 OA
ATOM      7  C   UNL     1       2.119   9.261  18.343  0.00  0.00    +0.000 A 
ATOM      8  C   UNL     1       2.593   8.019  18.141  0.00  0.00    +0.000 A 
ATOM      9  O   UNL     1       3.407   7.828  17.041  0.00  0.00    +0.000 OA
ATOM     10  C   UNL     1       3.992   6.616  16.841  0.00  0.00    +0.000 A 
ATOM     11  C   UNL     1       4.864   6.540  15.737  0.00  0.00    +0.000 A 
ATOM     12  C   UNL     1       5.497   5.363  15.410  0.00  0.00    +0.000 A 
ATOM     13  C   UNL     1       5.259   4.246  16.166  0.00  0.00    +0.000 A 
ATOM     14  C   UNL     1       4.396   4.341  17.267  0.00  0.00    +0.000 A 
ATOM     15  C   UNL     1       3.754   5.513  17.677  0.00  0.00    +0.000 A 
ENDROOT
BRANCH   1  22
ATOM     16  C   UNL     1       3.390   3.150  19.537  0.00  0.00    +0.000 C 
ATOM     17  C   UNL     1       2.433   2.178  20.293  0.00  0.00    +0.000 C 
ATOM     18  C   UNL     1       0.972   2.376  19.934  0.00  0.00    +0.000 C 
ATOM     19  C   UNL     1       0.579   3.561  20.433  0.00  0.00    +0.000 C 
ATOM     20  C   UNL     1       1.778   4.189  21.071  0.00  0.00    +0.000 C 
ATOM     21  C   UNL     1       2.350   2.864  21.657  0.00  0.00    +0.000 C 
ATOM     22  C   UNL     1       2.911   4.566  20.036  0.00  0.00    +0.000 C 
BRANCH  16  24
ATOM     23  O   UNL     1       5.667   3.793  20.213  0.00  0.00    +0.000 OA
ATOM     24  C   UNL     1       4.854   2.918  19.950  0.00  0.00    +0.000 C 
BRANCH  24  25
ATOM     25  O   UNL     1       5.191   1.612  20.007  0.00  0.00    +0.000 OA
ATOM     26  H   UNL     1       4.908   1.084  19.240  0.00  0.00    +0.000 HD
ENDBRANCH  24  25
ENDBRANCH  16  24
ENDBRANCH   1  22
BRANCH   7  27
ATOM     27  O   UNL     1       2.399  10.313  17.480  0.00  0.00    +0.000 OA
ATOM     28  H   UNL     1       3.311  10.139  17.161  0.00  0.00    +0.000 HD
ENDBRANCH   7  27
BRANCH  11  29
ATOM     29  O   UNL     1       5.112   7.639  14.947  0.00  0.00    +0.000 OA
ATOM     30  H   UNL     1       5.896   8.083  15.331  0.00  0.00    +0.000 HD
ENDBRANCH  11  29
BRANCH  12  31
ATOM     31  O   UNL     1       6.357   5.287  14.359  0.00  0.00    +0.000 OA
ATOM     32  H   UNL     1       7.100   5.873  14.601  0.00  0.00    +0.000 HD
ENDBRANCH  12  31
TORSDOF 6
ENDMDL
MODEL 6
REMARK VINA RESULT:      -8.2      7.815     11.150
REMARK  Name = 
REMARK  6 active torsions:
REMARK  status: ('A' for Active; 'I' for Inactive)
REMARK    1  A    between atoms: C_2  and  O_3
REMARK    2  A    between atoms: C_2  and  C_4
REMARK    3  A    between atoms: C_10  and  C_11
REMARK    4  A    between atoms: C_17  and  O_18
REMARK    5  A    between atoms: C_22  and  O_23
REMARK    6  A    between atoms: C_24  and  O_25
REMARK                            x       y       z     vdW  Elec       q    Type
REMARK                         _______ _______ _______ _____ _____    ______ ____
ROOT
ATOM      1  C   UNL     1      -2.217  12.399  20.028  0.00  0.00    +0.000 A 
ATOM      2  C   UNL     1      -3.163  12.780  20.953  0.00  0.00    +0.000 A 
ATOM      3  C   UNL     1      -2.816  13.394  22.251  0.00  0.00    +0.000 A 
ATOM      4  C   UNL     1      -3.739  13.848  23.111  0.00  0.00    +0.000 A 
ATOM      5  C   UNL     1      -5.172  13.738  22.805  0.00  0.00    +0.000 A 
ATOM      6  O   UNL     1      -6.040  14.150  23.571  0.00  0.00    +0.000 OA
ATOM      7  C   UNL     1      -5.556  13.108  21.518  0.00  0.00    +0.000 A 
ATOM      8  C   UNL     1      -4.616  12.659  20.668  0.00  0.00    +0.000 A 
ATOM      9  O   UNL     1      -5.052  12.149  19.460  0.00  0.00    +0.000 OA
ATOM     10  C   UNL     1      -4.142  11.769  18.523  0.00  0.00    +0.000 A 
ATOM     11  C   UNL     1      -4.682  11.333  17.298  0.00  0.00    +0.000 A 
ATOM     12  C   UNL     1      -3.868  10.897  16.277  0.00  0.00    +0.000 A 
ATOM     13  C   UNL     1      -2.513  10.874  16.469  0.00  0.00    +0.000 A 
ATOM     14  C   UNL     1      -1.991  11.321  17.691  0.00  0.00    +0.000 A 
ATOM     15  C   UNL     1      -2.757  11.813  18.752  0.00  0.00    +0.000 A 
ENDROOT
BRANCH   1  22
ATOM     16  C   UNL     1      -0.066  13.367  18.849  0.00  0.00    +0.000 C 
ATOM     17  C   UNL     1       1.357  12.730  18.836  0.00  0.00    +0.000 C 
ATOM     18  C   UNL     1       1.335  11.215  18.755  0.00  0.00    +0.000 C 
ATOM     19  C   UNL     1       0.854  10.744  19.919  0.00  0.00    +0.000 C 
ATOM     20  C   UNL     1       0.497  11.930  20.759  0.00  0.00    +0.000 C 
ATOM     21  C   UNL     1       1.713  12.798  20.321  0.00  0.00    +0.000 C 
ATOM     22  C   UNL     1      -0.697  12.778  20.167  0.00  0.00    +0.000 C 
BRANCH  16  24
ATOM     23  O   UNL     1       0.984  15.584  18.646  0.00  0.00    +0.000 OA
ATOM     24  C   UNL     1       0.015  14.900  18.949  0.00  0.00    +0.000 C 
BRANCH  24  25
ATOM     25  O   UNL     1      -1.119  15.464  19.415  0.00  0.00    +0.000 OA
ATOM     26  H   UNL     1      -1.599  14.931  20.073  0.00  0.00    +0.000 HD
ENDBRANCH  24  25
ENDBRANCH  16  24
ENDBRANCH   1  22
BRANCH   7  27
ATOM     27  O   UNL     1      -6.913  13.042  21.228  0.00  0.00    +0.000 OA
ATOM     28  H   UNL     1      -7.134  13.926  20.863  0.00  0.00    +0.000 HD
ENDBRANCH   7  27
BRANCH  11  29
ATOM     29  O   UNL     1      -6.040  11.327  17.078  0.00  0.00    +0.000 OA
ATOM     30  H   UNL     1      -6.379  12.176  17.428  0.00  0.00    +0.000 HD
ENDBRANCH  11  29
BRANCH  12  31
ATOM     31  O   UNL     1      -4.380  10.494  15.083  0.00  0.00    +0.000 OA
ATOM     32  H   UNL     1      -3.598  10.300  14.530  0.00  0.00    +0.000 HD
ENDBRANCH  12  31
TORSDOF 6
ENDMDL
MODEL 7
REMARK VINA RESULT:      -8.2      7.529     11.825
REMARK  Name = 
REMARK  6 active torsions:
REMARK  status: ('A' for Active; 'I' for Inactive)
REMARK    1  A    between atoms: C_2  and  O_3
REMARK    2  A    between atoms: C_2  and  C_4
REMARK    3  A    between atoms: C_10  and  C_11
REMARK    4  A    between atoms: C_17  and  O_18
REMARK    5  A    between atoms: C_22  and  O_23
REMARK    6  A    between atoms: C_24  and  O_25
REMARK                            x       y       z     vdW  Elec       q    Type
REMARK                         _______ _______ _______ _____ _____    ______ ____
ROOT
ATOM      1  C   UNL     1      -4.278  13.007  20.276  0.00  0.00    +0.000 A 
ATOM      2  C   UNL     1      -3.873  13.533  21.480  0.00  0.00    +0.000 A 
ATOM      3  C   UNL     1      -4.780  14.276  22.379  0.00  0.00    +0.000 A 
ATOM      4  C   UNL     1      -4.408  14.709  23.593  0.00  0.00    +0.000 A 
ATOM      5  C   UNL     1      -3.046  14.475  24.092  0.00  0.00    +0.000 A 
ATOM      6  O   UNL     1      -2.679  14.854  25.200  0.00  0.00    +0.000 OA
ATOM      7  C   UNL     1      -2.103  13.749  23.205  0.00  0.00    +0.000 A 
ATOM      8  C   UNL     1      -2.494  13.322  21.992  0.00  0.00    +0.000 A 
ATOM      9  O   UNL     1      -1.579  12.594  21.256  0.00  0.00    +0.000 OA
ATOM     10  C   UNL     1      -1.951  12.055  20.064  0.00  0.00    +0.000 A 
ATOM     11  C   UNL     1      -0.974  11.268  19.424  0.00  0.00    +0.000 A 
ATOM     12  C   UNL     1      -1.217  10.690  18.200  0.00  0.00    +0.000 A 
ATOM     13  C   UNL     1      -2.425  10.900  17.591  0.00  0.00    +0.000 A 
ATOM     14  C   UNL     1      -3.390  11.679  18.245  0.00  0.00    +0.000 A 
ATOM     15  C   UNL     1      -3.223  12.261  19.505  0.00  0.00    +0.000 A 
ENDROOT
BRANCH   1  22
ATOM     16  C   UNL     1      -6.231  11.563  19.246  0.00  0.00    +0.000 C 
ATOM     17  C   UNL     1      -7.180  11.975  18.080  0.00  0.00    +0.000 C 
ATOM     18  C   UNL     1      -6.488  12.790  17.003  0.00  0.00    +0.000 C 
ATOM     19  C   UNL     1      -6.185  13.993  17.523  0.00  0.00    +0.000 C 
ATOM     20  C   UNL     1      -6.613  13.972  18.956  0.00  0.00    +0.000 C 
ATOM     21  C   UNL     1      -7.916  13.155  18.715  0.00  0.00    +0.000 C 
ATOM     22  C   UNL     1      -5.788  12.955  19.840  0.00  0.00    +0.000 C 
BRANCH  16  24
ATOM     23  O   UNL     1      -7.083  11.055  21.498  0.00  0.00    +0.000 OA
ATOM     24  C   UNL     1      -6.987  10.756  20.316  0.00  0.00    +0.000 C 
BRANCH  24  25
ATOM     25  O   UNL     1      -7.568   9.639  19.828  0.00  0.00    +0.000 OA
ATOM     26  H   UNL     1      -6.970   9.051  19.335  0.00  0.00    +0.000 HD
ENDBRANCH  24  25
ENDBRANCH  16  24
ENDBRANCH   1  22
BRANCH   7  27
ATOM     27  O   UNL     1      -0.830  13.506  23.704  0.00  0.00    +0.000 OA
ATOM     28  H   UNL     1      -0.431  12.867  23.074  0.00  0.00    +0.000 HD
ENDBRANCH   7  27
BRANCH  11  29
ATOM     29  O   UNL     1       0.257  11.050  20.001  0.00  0.00    +0.000 OA
ATOM     30  H   UNL     1       0.107  10.425  20.739  0.00  0.00    +0.000 HD
ENDBRANCH  11  29
BRANCH  12  31
ATOM     31  O   UNL     1      -0.287   9.910  17.585  0.00  0.00    +0.000 OA
ATOM     32  H   UNL     1      -0.788   9.139  17.252  0.00  0.00    +0.000 HD
ENDBRANCH  12  31
TORSDOF 6
ENDMDL
MODEL 8
REMARK VINA RESULT:      -8.0      2.145      5.288
REMARK  Name = 
REMARK  6 active torsions:
REMARK  status: ('A' for Active; 'I' for Inactive)
REMARK    1  A    between atoms: C_2  and  O_3
REMARK    2  A    between atoms: C_2  and  C_4
REMARK    3  A    between atoms: C_10  and  C_11
REMARK    4  A    between atoms: C_17  and  O_18
REMARK    5  A    between atoms: C_22  and  O_23
REMARK    6  A    between atoms: C_24  and  O_25
REMARK                            x       y       z     vdW  Elec       q    Type
REMARK                         _______ _______ _______ _____ _____    ______ ____
ROOT
ATOM      1  C   UNL     1       4.272   4.918  18.445  0.00  0.00    +0.000 A 
ATOM      2  C   UNL     1       3.917   3.971  19.379  0.00  0.00    +0.000 A 
ATOM      3  C   UNL     1       4.609   2.672  19.510  0.00  0.00    +0.000 A 
ATOM      4  C   UNL     1       4.323   1.791  20.479  0.00  0.00    +0.000 A 
ATOM      5  C   UNL     1       3.273   2.072  21.468  0.00  0.00    +0.000 A 
ATOM      6  O   UNL     1       2.993   1.286  22.370  0.00  0.00    +0.000 OA
ATOM      7  C   UNL     1       2.545   3.360  21.353  0.00  0.00    +0.000 A 
ATOM      8  C   UNL     1       2.846   4.232  20.375  0.00  0.00    +0.000 A 
ATOM      9  O   UNL     1       2.170   5.437  20.378  0.00  0.00    +0.000 OA
ATOM     10  C   UNL     1       2.502   6.395  19.470  0.00  0.00    +0.000 A 
ATOM     11  C   UNL     1       1.812   7.616  19.600  0.00  0.00    +0.000 A 
ATOM     12  C   UNL     1       2.036   8.656  18.727  0.00  0.00    +0.000 A 
ATOM     13  C   UNL     1       2.935   8.489  17.708  0.00  0.00    +0.000 A 
ATOM     14  C   UNL     1       3.621   7.271  17.599  0.00  0.00    +0.000 A 
ATOM     15  C   UNL     1       3.470   6.191  18.474  0.00  0.00    +0.000 A 
ENDROOT
BRANCH   1  22
ATOM     16  C   UNL     1       6.330   6.172  17.374  0.00  0.00    +0.000 C 
ATOM     17  C   UNL     1       6.808   6.085  15.893  0.00  0.00    +0.000 C 
ATOM     18  C   UNL     1       5.665   5.982  14.900  0.00  0.00    +0.000 C 
ATOM     19  C   UNL     1       5.088   4.777  15.054  0.00  0.00    +0.000 C 
ATOM     20  C   UNL     1       5.795   4.093  16.181  0.00  0.00    +0.000 C 
ATOM     21  C   UNL     1       7.214   4.613  15.810  0.00  0.00    +0.000 C 
ATOM     22  C   UNL     1       5.577   4.802  17.576  0.00  0.00    +0.000 C 
BRANCH  16  24
ATOM     23  O   UNL     1       8.238   7.238  18.505  0.00  0.00    +0.000 OA
ATOM     24  C   UNL     1       7.527   6.257  18.337  0.00  0.00    +0.000 C 
BRANCH  24  25
ATOM     25  O   UNL     1       7.743   5.112  19.021  0.00  0.00    +0.000 OA
ATOM     26  H   UNL     1       7.060   4.430  18.900  0.00  0.00    +0.000 HD
ENDBRANCH  24  25
ENDBRANCH  16  24
ENDBRANCH   1  22
BRANCH   7  27
ATOM     27  O   UNL     1       1.579   3.626  22.315  0.00  0.00    +0.000 OA
ATOM     28  H   UNL     1       2.005   4.263  22.928  0.00  0.00    +0.000 HD
ENDBRANCH   7  27
BRANCH  11  29
ATOM     29  O   UNL     1       0.889   7.811  20.602  0.00  0.00    +0.000 OA
ATOM     30  H   UNL     1       1.031   8.721  20.933  0.00  0.00    +0.000 HD
ENDBRANCH  11  29
BRANCH  12  31
ATOM     31  O   UNL     1       1.389   9.845  18.858  0.00  0.00    +0.000 OA
ATOM     32  H   UNL     1       0.683   9.821  18.183  0.00  0.00    +0.000 HD
ENDBRANCH  12  31
TORSDOF 6
ENDMDL
MODEL 9
REMARK VINA RESULT:      -8.0      9.531     12.103
REMARK  Name = 
REMARK  6 active torsions:
REMARK  status: ('A' for Active; 'I' for Inactive)
REMARK    1  A    between atoms: C_2  and  O_3
REMARK    2  A    between atoms: C_2  and  C_4
REMARK    3  A    between atoms: C_10  and  C_11
REMARK    4  A    between atoms: C_17  and  O_18
REMARK    5  A    between atoms: C_22  and  O_23
REMARK    6  A    between atoms: C_24  and  O_25
REMARK                            x       y       z     vdW  Elec       q    Type
REMARK                         _______ _______ _______ _____ _____    ______ ____
ROOT
ATOM      1  C   UNL     1       9.213  14.583  19.995  0.00  0.00    +0.000 A 
ATOM      2  C   UNL     1       9.462  15.518  20.973  0.00  0.00    +0.000 A 
ATOM      3  C   UNL     1      10.720  15.556  21.747  0.00  0.00    +0.000 A 
ATOM      4  C   UNL     1      10.999  16.522  22.634  0.00  0.00    +0.000 A 
ATOM      5  C   UNL     1      10.039  17.603  22.898  0.00  0.00    +0.000 A 
ATOM      6  O   UNL     1      10.270  18.504  23.700  0.00  0.00    +0.000 OA
ATOM      7  C   UNL     1       8.757  17.583  22.152  0.00  0.00    +0.000 A 
ATOM      8  C   UNL     1       8.495  16.608  21.266  0.00  0.00    +0.000 A 
ATOM      9  O   UNL     1       7.310  16.699  20.561  0.00  0.00    +0.000 OA
ATOM     10  C   UNL     1       7.037  15.792  19.584  0.00  0.00    +0.000 A 
ATOM     11  C   UNL     1       5.842  16.011  18.872  0.00  0.00    +0.000 A 
ATOM     12  C   UNL     1       5.439  15.151  17.877  0.00  0.00    +0.000 A 
ATOM     13  C   UNL     1       6.209  14.056  17.590  0.00  0.00    +0.000 A 
ATOM     14  C   UNL     1       7.401  13.858  18.301  0.00  0.00    +0.000 A 
ATOM     15  C   UNL     1       7.888  14.713  19.294  0.00  0.00    +0.000 A 
ENDROOT
BRANCH   1  22
ATOM     16  C   UNL     1      10.216  13.313  17.912  0.00  0.00    +0.000 C 
ATOM     17  C   UNL     1      10.568  11.797  17.824  0.00  0.00    +0.000 C 
ATOM     18  C   UNL     1       9.593  10.911  18.576  0.00  0.00    +0.000 C 
ATOM     19  C   UNL     1       9.756  11.136  19.892  0.00  0.00    +0.000 C 
ATOM     20  C   UNL     1      10.790  12.209  20.029  0.00  0.00    +0.000 C 
ATOM     21  C   UNL     1      11.688  11.705  18.861  0.00  0.00    +0.000 C 
ATOM     22  C   UNL     1      10.321  13.605  19.457  0.00  0.00    +0.000 C 
BRANCH  16  24
ATOM     23  O   UNL     1      11.964  15.023  17.640  0.00  0.00    +0.000 OA
ATOM     24  C   UNL     1      11.244  14.165  17.148  0.00  0.00    +0.000 C 
BRANCH  24  25
ATOM     25  O   UNL     1      11.299  13.879  15.830  0.00  0.00    +0.000 OA
ATOM     26  H   UNL     1      12.172  14.013  15.420  0.00  0.00    +0.000 HD
ENDBRANCH  24  25
ENDBRANCH  16  24
ENDBRANCH   1  22
BRANCH   7  27
ATOM     27  O   UNL     1       7.875  18.630  22.387  0.00  0.00    +0.000 OA
ATOM     28  H   UNL     1       8.237  19.384  21.872  0.00  0.00    +0.000 HD
ENDBRANCH   7  27
BRANCH  11  29
ATOM     29  O   UNL     1       5.036  17.093  19.146  0.00  0.00    +0.000 OA
ATOM     30  H   UNL     1       4.274  17.030  18.534  0.00  0.00    +0.000 HD
ENDBRANCH  11  29
BRANCH  12  31
ATOM     31  O   UNL     1       4.297  15.367  17.170  0.00  0.00    +0.000 OA
ATOM     32  H   UNL     1       3.624  15.585  17.843  0.00  0.00    +0.000 HD
ENDBRANCH  12  31
TORSDOF 6
ENDMDL
