MODEL 1
REMARK VINA RESULT:      -7.5      0.000      0.000
REMARK  Name = 
REMARK  8 active torsions:
REMARK  status: ('A' for Active; 'I' for Inactive)
REMARK    1  A    between atoms: C_4  and  C_5
REMARK    2  A    between atoms: C_10  and  O_11
REMARK    3  A    between atoms: O_11  and  C_12
REMARK    4  A    between atoms: C_12  and  C_13
REMARK    5  A    between atoms: C_13  and  N_14
REMARK    6  A    between atoms: N_14  and  C_15
REMARK    7  A    between atoms: C_15  and  C_16
REMARK    8  A    between atoms: C_16  and  N_17
REMARK                            x       y       z     vdW  Elec       q    Type
REMARK                         _______ _______ _______ _____ _____    ______ ____
ROOT
ATOM      1  O   UNL     1       1.467   3.911  17.816  0.00  0.00    +0.000 OA
ENDROOT
BRANCH   1   7
ATOM      2  C   UNL     1       1.918   4.887  19.987  0.00  0.00    +0.000 A 
ATOM      3  C   UNL     1       2.133   4.641  21.369  0.00  0.00    +0.000 A 
ATOM      4  C   UNL     1       2.074   3.366  21.932  0.00  0.00    +0.000 A 
ATOM      5  C   UNL     1       1.846   2.275  21.120  0.00  0.00    +0.000 A 
ATOM      6  C   UNL     1       1.670   2.465  19.752  0.00  0.00    +0.000 A 
ATOM      7  C   UNL     1       1.662   3.751  19.173  0.00  0.00    +0.000 A 
BRANCH   2  11
ATOM      8  C   UNL     1       2.092   9.035  18.698  0.00  0.00    +0.000 A 
ATOM      9  C   UNL     1       2.542   8.023  17.856  0.00  0.00    +0.000 A 
ATOM     10  C   UNL     1       2.488   6.679  18.262  0.00  0.00    +0.000 A 
ATOM     11  C   UNL     1       1.963   6.307  19.511  0.00  0.00    +0.000 A 
ATOM     12  C   UNL     1       1.515   7.364  20.338  0.00  0.00    +0.000 A 
ATOM     13  C   UNL     1       1.585   8.707  19.946  0.00  0.00    +0.000 A 
ENDBRANCH   2  11
ENDBRANCH   1   7
BRANCH   1  14
ATOM     14  C   UNL     1       2.374   3.196  16.961  0.00  0.00    +0.000 C 
BRANCH  14  15
ATOM     15  C   UNL     1       3.763   3.858  16.946  0.00  0.00    +0.000 C 
BRANCH  15  16
ATOM     16  N   UNL     1       4.817   3.174  17.720  0.00  0.00    +0.000 NA
ATOM     17  H   UNL     1       5.684   3.246  17.183  0.00  0.00    +0.000 HD
BRANCH  16  18
ATOM     18  C   UNL     1       5.080   3.735  19.060  0.00  0.00    +0.000 C 
BRANCH  18  19
ATOM     19  C   UNL     1       5.823   5.094  19.062  0.00  0.00    +0.000 C 
BRANCH  19  20
ATOM     20  N   UNL     1       7.259   5.031  18.708  0.00  0.00    +0.000 NA
ATOM     21  C   UNL     1       7.871   6.383  18.777  0.00  0.00    +0.000 C 
ATOM     22  C   UNL     1       7.462   7.320  17.620  0.00  0.00    +0.000 C 
ATOM     23  O   UNL     1       7.711   6.729  16.338  0.00  0.00    +0.000 OA
ATOM     24  C   UNL     1       7.068   5.455  16.226  0.00  0.00    +0.000 C 
ATOM     25  C   UNL     1       7.519   4.506  17.348  0.00  0.00    +0.000 C 
ENDBRANCH  19  20
ENDBRANCH  18  19
ENDBRANCH  16  18
ENDBRANCH  15  16
ENDBRANCH  14  15
ENDBRANCH   1  14
TORSDOF 8
ENDMDL
MODEL 2
REMARK VINA RESULT:      -7.4      3.589      6.793
REMARK  Name = 
REMARK  8 active torsions:
REMARK  status: ('A' for Active; 'I' for Inactive)
REMARK    1  A    between atoms: C_4  and  C_5
REMARK    2  A    between atoms: C_10  and  O_11
REMARK    3  A    between atoms: O_11  and  C_12
REMARK    4  A    between atoms: C_12  and  C_13
REMARK    5  A    between atoms: C_13  and  N_14
REMARK    6  A    between atoms: N_14  and  C_15
REMARK    7  A    between atoms: C_15  and  C_16
REMARK    8  A    between atoms: C_16  and  N_17
REMARK                            x       y       z     vdW  Elec       q    Type
REMARK                         _______ _______ _______ _____ _____    ______ ____
ROOT
ATOM      1  O   UNL     1       3.255   6.838  18.641  0.00  0.00    +0.000 OA
ENDROOT
BRANCH   1   7
ATOM      2  C   UNL     1       3.914   4.530  18.967  0.00  0.00    +0.000 A 
ATOM      3  C   UNL     1       3.686   3.329  19.689  0.00  0.00    +0.000 A 
ATOM      4  C   UNL     1       2.745   3.226  20.715  0.00  0.00    +0.000 A 
ATOM      5  C   UNL     1       1.956   4.314  21.024  0.00  0.00    +0.000 A 
ATOM      6  C   UNL     1       2.117   5.501  20.313  0.00  0.00    +0.000 A 
ATOM      7  C   UNL     1       3.106   5.644  19.318  0.00  0.00    +0.000 A 
BRANCH   2  11
ATOM      8  C   UNL     1       7.079   4.456  15.987  0.00  0.00    +0.000 A 
ATOM      9  C   UNL     1       5.758   4.243  15.607  0.00  0.00    +0.000 A 
ATOM     10  C   UNL     1       4.726   4.268  16.562  0.00  0.00    +0.000 A 
ATOM     11  C   UNL     1       4.985   4.526  17.918  0.00  0.00    +0.000 A 
ATOM     12  C   UNL     1       6.340   4.737  18.266  0.00  0.00    +0.000 A 
ATOM     13  C   UNL     1       7.373   4.695  17.320  0.00  0.00    +0.000 A 
ENDBRANCH   2  11
ENDBRANCH   1   7
BRANCH   1  14
ATOM     14  C   UNL     1       2.105   7.699  18.621  0.00  0.00    +0.000 C 
BRANCH  14  15
ATOM     15  C   UNL     1       2.334   8.910  17.697  0.00  0.00    +0.000 C 
BRANCH  15  16
ATOM     16  N   UNL     1       1.569  10.129  18.023  0.00  0.00    +0.000 NA
ATOM     17  H   UNL     1       1.652  10.761  17.224  0.00  0.00    +0.000 HD
BRANCH  16  18
ATOM     18  C   UNL     1       0.130   9.922  18.275  0.00  0.00    +0.000 C 
BRANCH  18  19
ATOM     19  C   UNL     1      -0.290  10.014  19.764  0.00  0.00    +0.000 C 
BRANCH  19  20
ATOM     20  N   UNL     1       0.733  10.574  20.676  0.00  0.00    +0.000 NA
ATOM     21  C   UNL     1       1.041   9.609  21.764  0.00  0.00    +0.000 C 
ATOM     22  C   UNL     1      -0.071   9.483  22.827  0.00  0.00    +0.000 C 
ATOM     23  O   UNL     1      -0.429  10.756  23.381  0.00  0.00    +0.000 OA
ATOM     24  C   UNL     1      -0.800  11.679  22.351  0.00  0.00    +0.000 C 
ATOM     25  C   UNL     1       0.330  11.843  21.323  0.00  0.00    +0.000 C 
ENDBRANCH  19  20
ENDBRANCH  18  19
ENDBRANCH  16  18
ENDBRANCH  15  16
ENDBRANCH  14  15
ENDBRANCH   1  14
TORSDOF 8
ENDMDL
MODEL 3
REMARK VINA RESULT:      -7.3      3.639      6.933
REMARK  Name = 
REMARK  8 active torsions:
REMARK  status: ('A' for Active; 'I' for Inactive)
REMARK    1  A    between atoms: C_4  and  C_5
REMARK    2  A    between atoms: C_10  and  O_11
REMARK    3  A    between atoms: O_11  and  C_12
REMARK    4  A    between atoms: C_12  and  C_13
REMARK    5  A    between atoms: C_13  and  N_14
REMARK    6  A    between atoms: N_14  and  C_15
REMARK    7  A    between atoms: C_15  and  C_16
REMARK    8  A    between atoms: C_16  and  N_17
REMARK                            x       y       z     vdW  Elec       q    Type
REMARK                         _______ _______ _______ _____ _____    ______ ____
ROOT
ATOM      1  O   UNL     1       2.952   6.725  19.348  0.00  0.00    +0.000 OA
ENDROOT
BRANCH   1   7
ATOM      2  C   UNL     1       4.165   5.117  18.001  0.00  0.00    +0.000 A 
ATOM      3  C   UNL     1       4.090   3.921  17.239  0.00  0.00    +0.000 A 
ATOM      4  C   UNL     1       2.915   3.180  17.103  0.00  0.00    +0.000 A 
ATOM      5  C   UNL     1       1.752   3.638  17.685  0.00  0.00    +0.000 A 
ATOM      6  C   UNL     1       1.770   4.828  18.408  0.00  0.00    +0.000 A 
ATOM      7  C   UNL     1       2.960   5.557  18.612  0.00  0.00    +0.000 A 
BRANCH   2  11
ATOM      8  C   UNL     1       8.072   6.998  18.315  0.00  0.00    +0.000 A 
ATOM      9  C   UNL     1       7.152   7.452  17.376  0.00  0.00    +0.000 A 
ATOM     10  C   UNL     1       5.885   6.853  17.267  0.00  0.00    +0.000 A 
ATOM     11  C   UNL     1       5.496   5.798  18.109  0.00  0.00    +0.000 A 
ATOM     12  C   UNL     1       6.458   5.365  19.051  0.00  0.00    +0.000 A 
ATOM     13  C   UNL     1       7.728   5.946  19.150  0.00  0.00    +0.000 A 
ENDBRANCH   2  11
ENDBRANCH   1   7
BRANCH   1  14
ATOM     14  C   UNL     1       1.865   7.627  19.088  0.00  0.00    +0.000 C 
BRANCH  14  15
ATOM     15  C   UNL     1       2.292   8.749  18.124  0.00  0.00    +0.000 C 
BRANCH  15  16
ATOM     16  N   UNL     1       1.274   9.776  17.832  0.00  0.00    +0.000 NA
ATOM     17  H   UNL     1       0.359   9.352  17.995  0.00  0.00    +0.000 HD
BRANCH  16  18
ATOM     18  C   UNL     1       1.351  10.994  18.663  0.00  0.00    +0.000 C 
BRANCH  18  19
ATOM     19  C   UNL     1       1.055  10.776  20.167  0.00  0.00    +0.000 C 
BRANCH  19  20
ATOM     20  N   UNL     1      -0.315  10.310  20.482  0.00  0.00    +0.000 NA
ATOM     21  C   UNL     1      -1.138  11.434  20.999  0.00  0.00    +0.000 C 
ATOM     22  C   UNL     1      -0.782  11.865  22.438  0.00  0.00    +0.000 C 
ATOM     23  O   UNL     1      -0.818  10.762  23.353  0.00  0.00    +0.000 OA
ATOM     24  C   UNL     1       0.027   9.696  22.907  0.00  0.00    +0.000 C 
ATOM     25  C   UNL     1      -0.365   9.232  21.495  0.00  0.00    +0.000 C 
ENDBRANCH  19  20
ENDBRANCH  18  19
ENDBRANCH  16  18
ENDBRANCH  15  16
ENDBRANCH  14  15
ENDBRANCH   1  14
TORSDOF 8
ENDMDL
MODEL 4
REMARK VINA RESULT:      -7.3      3.648      7.047
REMARK  Name = 
REMARK  8 active torsions:
REMARK  status: ('A' for Active; 'I' for Inactive)
REMARK    1  A    between atoms: C_4  and  C_5
REMARK    2  A    between atoms: C_10  and  O_11
REMARK    3  A    between atoms: O_11  and  C_12
REMARK    4  A    between atoms: C_12  and  C_13
REMARK    5  A    between atoms: C_13  and  N_14
REMARK    6  A    between atoms: N_14  and  C_15
REMARK    7  A    between atoms: C_15  and  C_16
REMARK    8  A    between atoms: C_16  and  N_17
REMARK                            x       y       z     vdW  Elec       q    Type
REMARK                         _______ _______ _______ _____ _____    ______ ____
ROOT
ATOM      1  O   UNL     1       3.262   7.033  17.299  0.00  0.00    +0.000 OA
ENDROOT
BRANCH   1   7
ATOM      2  C   UNL     1       4.438   5.180  18.325  0.00  0.00    +0.000 A 
ATOM      3  C   UNL     1       5.699   4.577  18.574  0.00  0.00    +0.000 A 
ATOM      4  C   UNL     1       6.899   5.092  18.080  0.00  0.00    +0.000 A 
ATOM      5  C   UNL     1       6.887   6.267  17.358  0.00  0.00    +0.000 A 
ATOM      6  C   UNL     1       5.677   6.915  17.125  0.00  0.00    +0.000 A 
ATOM      7  C   UNL     1       4.448   6.377  17.559  0.00  0.00    +0.000 A 
BRANCH   2  11
ATOM      8  C   UNL     1       0.865   3.316  19.955  0.00  0.00    +0.000 A 
ATOM      9  C   UNL     1       1.221   3.100  18.628  0.00  0.00    +0.000 A 
ATOM     10  C   UNL     1       2.376   3.696  18.091  0.00  0.00    +0.000 A 
ATOM     11  C   UNL     1       3.217   4.506  18.872  0.00  0.00    +0.000 A 
ATOM     12  C   UNL     1       2.822   4.701  20.217  0.00  0.00    +0.000 A 
ATOM     13  C   UNL     1       1.662   4.125  20.750  0.00  0.00    +0.000 A 
ENDBRANCH   2  11
ENDBRANCH   1   7
BRANCH   1  14
ATOM     14  C   UNL     1       2.797   7.926  18.324  0.00  0.00    +0.000 C 
BRANCH  14  15
ATOM     15  C   UNL     1       1.625   8.788  17.820  0.00  0.00    +0.000 C 
BRANCH  15  16
ATOM     16  N   UNL     1       1.892  10.233  17.690  0.00  0.00    +0.000 NA
ATOM     17  H   UNL     1       1.623  10.507  16.742  0.00  0.00    +0.000 HD
BRANCH  16  18
ATOM     18  C   UNL     1       1.150  11.098  18.628  0.00  0.00    +0.000 C 
BRANCH  18  19
ATOM     19  C   UNL     1       1.028  10.543  20.069  0.00  0.00    +0.000 C 
BRANCH  19  20
ATOM     20  N   UNL     1      -0.333  10.124  20.472  0.00  0.00    +0.000 NA
ATOM     21  C   UNL     1      -1.099  11.284  20.997  0.00  0.00    +0.000 C 
ATOM     22  C   UNL     1      -0.654  11.751  22.399  0.00  0.00    +0.000 C 
ATOM     23  O   UNL     1      -0.666  10.678  23.350  0.00  0.00    +0.000 OA
ATOM     24  C   UNL     1       0.127   9.578  22.894  0.00  0.00    +0.000 C 
ATOM     25  C   UNL     1      -0.354   9.080  21.522  0.00  0.00    +0.000 C 
ENDBRANCH  19  20
ENDBRANCH  18  19
ENDBRANCH  16  18
ENDBRANCH  15  16
ENDBRANCH  14  15
ENDBRANCH   1  14
TORSDOF 8
ENDMDL
MODEL 5
REMARK VINA RESULT:      -7.2      3.711      7.006
REMARK  Name = 
REMARK  8 active torsions:
REMARK  status: ('A' for Active; 'I' for Inactive)
REMARK    1  A    between atoms: C_4  and  C_5
REMARK    2  A    between atoms: C_10  and  O_11
REMARK    3  A    between atoms: O_11  and  C_12
REMARK    4  A    between atoms: C_12  and  C_13
REMARK    5  A    between atoms: C_13  and  N_14
REMARK    6  A    between atoms: N_14  and  C_15
REMARK    7  A    between atoms: C_15  and  C_16
REMARK    8  A    between atoms: C_16  and  N_17
REMARK                            x       y       z     vdW  Elec       q    Type
REMARK                         _______ _______ _______ _____ _____    ______ ____
ROOT
ATOM      1  O   UNL     1       2.866   7.124  18.792  0.00  0.00    +0.000 OA
ENDROOT
BRANCH   1   7
ATOM      2  C   UNL     1       4.078   5.204  17.946  0.00  0.00    +0.000 A 
ATOM      3  C   UNL     1       3.984   3.892  17.411  0.00  0.00    +0.000 A 
ATOM      4  C   UNL     1       2.771   3.224  17.246  0.00  0.00    +0.000 A 
ATOM      5  C   UNL     1       1.592   3.866  17.565  0.00  0.00    +0.000 A 
ATOM      6  C   UNL     1       1.634   5.169  18.055  0.00  0.00    +0.000 A 
ATOM      7  C   UNL     1       2.854   5.838  18.289  0.00  0.00    +0.000 A 
BRANCH   2  11
ATOM      8  C   UNL     1       8.079   6.828  18.448  0.00  0.00    +0.000 A 
ATOM      9  C   UNL     1       7.265   7.286  17.417  0.00  0.00    +0.000 A 
ATOM     10  C   UNL     1       5.968   6.769  17.247  0.00  0.00    +0.000 A 
ATOM     11  C   UNL     1       5.444   5.798  18.115  0.00  0.00    +0.000 A 
ATOM     12  C   UNL     1       6.301   5.358  19.151  0.00  0.00    +0.000 A 
ATOM     13  C   UNL     1       7.601   5.856  19.313  0.00  0.00    +0.000 A 
ENDBRANCH   2  11
ENDBRANCH   1   7
BRANCH   1  14
ATOM     14  C   UNL     1       2.772   8.180  17.823  0.00  0.00    +0.000 C 
BRANCH  14  15
ATOM     15  C   UNL     1       1.358   8.788  17.798  0.00  0.00    +0.000 C 
BRANCH  15  16
ATOM     16  N   UNL     1       1.284  10.261  17.777  0.00  0.00    +0.000 NA
ATOM     17  H   UNL     1       0.929  10.534  16.858  0.00  0.00    +0.000 HD
BRANCH  16  18
ATOM     18  C   UNL     1       0.395  10.862  18.790  0.00  0.00    +0.000 C 
BRANCH  18  19
ATOM     19  C   UNL     1       0.255  10.046  20.099  0.00  0.00    +0.000 C 
BRANCH  19  20
ATOM     20  N   UNL     1       0.940  10.619  21.279  0.00  0.00    +0.000 NA
ATOM     21  C   UNL     1       0.741   9.750  22.468  0.00  0.00    +0.000 C 
ATOM     22  C   UNL     1      -0.681   9.813  23.064  0.00  0.00    +0.000 C 
ATOM     23  O   UNL     1      -1.078  11.158  23.362  0.00  0.00    +0.000 OA
ATOM     24  C   UNL     1      -0.962  11.996  22.207  0.00  0.00    +0.000 C 
ATOM     25  C   UNL     1       0.469  11.973  21.648  0.00  0.00    +0.000 C 
ENDBRANCH  19  20
ENDBRANCH  18  19
ENDBRANCH  16  18
ENDBRANCH  15  16
ENDBRANCH  14  15
ENDBRANCH   1  14
TORSDOF 8
ENDMDL
MODEL 6
REMARK VINA RESULT:      -7.2      3.718      7.134
REMARK  Name = 
REMARK  8 active torsions:
REMARK  status: ('A' for Active; 'I' for Inactive)
REMARK    1  A    between atoms: C_4  and  C_5
REMARK    2  A    between atoms: C_10  and  O_11
REMARK    3  A    between atoms: O_11  and  C_12
REMARK    4  A    between atoms: C_12  and  C_13
REMARK    5  A    between atoms: C_13  and  N_14
REMARK    6  A    between atoms: N_14  and  C_15
REMARK    7  A    between atoms: C_15  and  C_16
REMARK    8  A    between atoms: C_16  and  N_17
REMARK                            x       y       z     vdW  Elec       q    Type
REMARK                         _______ _______ _______ _____ _____    ______ ____
ROOT
ATOM      1  O   UNL     1       2.916   7.037  18.593  0.00  0.00    +0.000 OA
ENDROOT
BRANCH   1   7
ATOM      2  C   UNL     1       3.554   4.795  17.931  0.00  0.00    +0.000 A 
ATOM      3  C   UNL     1       4.347   4.004  17.059  0.00  0.00    +0.000 A 
ATOM      4  C   UNL     1       5.154   4.551  16.060  0.00  0.00    +0.000 A 
ATOM      5  C   UNL     1       5.239   5.921  15.930  0.00  0.00    +0.000 A 
ATOM      6  C   UNL     1       4.510   6.737  16.791  0.00  0.00    +0.000 A 
ATOM      7  C   UNL     1       3.639   6.204  17.764  0.00  0.00    +0.000 A 
BRANCH   2  11
ATOM      8  C   UNL     1       1.060   2.830  20.900  0.00  0.00    +0.000 A 
ATOM      9  C   UNL     1       0.717   2.774  19.554  0.00  0.00    +0.000 A 
ATOM     10  C   UNL     1       1.517   3.404  18.585  0.00  0.00    +0.000 A 
ATOM     11  C   UNL     1       2.693   4.088  18.934  0.00  0.00    +0.000 A 
ATOM     12  C   UNL     1       3.010   4.122  20.312  0.00  0.00    +0.000 A 
ATOM     13  C   UNL     1       2.204   3.512  21.283  0.00  0.00    +0.000 A 
ENDBRANCH   2  11
ENDBRANCH   1   7
BRANCH   1  14
ATOM     14  C   UNL     1       2.749   8.389  18.138  0.00  0.00    +0.000 C 
BRANCH  14  15
ATOM     15  C   UNL     1       1.290   8.661  17.728  0.00  0.00    +0.000 C 
BRANCH  15  16
ATOM     16  N   UNL     1       0.841  10.064  17.816  0.00  0.00    +0.000 NA
ATOM     17  H   UNL     1      -0.133  10.052  18.126  0.00  0.00    +0.000 HD
BRANCH  16  18
ATOM     18  C   UNL     1       1.596  10.909  18.762  0.00  0.00    +0.000 C 
BRANCH  18  19
ATOM     19  C   UNL     1       0.763  11.470  19.942  0.00  0.00    +0.000 C 
BRANCH  19  20
ATOM     20  N   UNL     1      -0.381  10.630  20.364  0.00  0.00    +0.000 NA
ATOM     21  C   UNL     1      -1.311  11.413  21.219  0.00  0.00    +0.000 C 
ATOM     22  C   UNL     1      -0.779  11.687  22.642  0.00  0.00    +0.000 C 
ATOM     23  O   UNL     1      -0.390  10.480  23.310  0.00  0.00    +0.000 OA
ATOM     24  C   UNL     1       0.563   9.747  22.533  0.00  0.00    +0.000 C 
ATOM     25  C   UNL     1       0.010   9.428  21.135  0.00  0.00    +0.000 C 
ENDBRANCH  19  20
ENDBRANCH  18  19
ENDBRANCH  16  18
ENDBRANCH  15  16
ENDBRANCH  14  15
ENDBRANCH   1  14
TORSDOF 8
ENDMDL
MODEL 7
REMARK VINA RESULT:      -7.2      3.976      7.391
REMARK  Name = 
REMARK  8 active torsions:
REMARK  status: ('A' for Active; 'I' for Inactive)
REMARK    1  A    between atoms: C_4  and  C_5
REMARK    2  A    between atoms: C_10  and  O_11
REMARK    3  A    between atoms: O_11  and  C_12
REMARK    4  A    between atoms: C_12  and  C_13
REMARK    5  A    between atoms: C_13  and  N_14
REMARK    6  A    between atoms: N_14  and  C_15
REMARK    7  A    between atoms: C_15  and  C_16
REMARK    8  A    between atoms: C_16  and  N_17
REMARK                            x       y       z     vdW  Elec       q    Type
REMARK                         _______ _______ _______ _____ _____    ______ ____
ROOT
ATOM      1  O   UNL     1       3.349   6.950  18.282  0.00  0.00    +0.000 OA
ENDROOT
BRANCH   1   7
ATOM      2  C   UNL     1       3.846   4.645  17.728  0.00  0.00    +0.000 A 
ATOM      3  C   UNL     1       4.559   3.765  16.871  0.00  0.00    +0.000 A 
ATOM      4  C   UNL     1       5.347   4.212  15.809  0.00  0.00    +0.000 A 
ATOM      5  C   UNL     1       5.494   5.566  15.595  0.00  0.00    +0.000 A 
ATOM      6  C   UNL     1       4.845   6.466  16.437  0.00  0.00    +0.000 A 
ATOM      7  C   UNL     1       3.993   6.035  17.474  0.00  0.00    +0.000 A 
BRANCH   2  11
ATOM      8  C   UNL     1       1.328   2.842  20.779  0.00  0.00    +0.000 A 
ATOM      9  C   UNL     1       2.711   2.842  20.926  0.00  0.00    +0.000 A 
ATOM     10  C   UNL     1       3.534   3.424  19.947  0.00  0.00    +0.000 A 
ATOM     11  C   UNL     1       2.997   4.041  18.805  0.00  0.00    +0.000 A 
ATOM     12  C   UNL     1       1.587   4.021  18.691  0.00  0.00    +0.000 A 
ATOM     13  C   UNL     1       0.763   3.425  19.654  0.00  0.00    +0.000 A 
ENDBRANCH   2  11
ENDBRANCH   1   7
BRANCH   1  14
ATOM     14  C   UNL     1       2.698   8.039  17.608  0.00  0.00    +0.000 C 
BRANCH  14  15
ATOM     15  C   UNL     1       1.786   8.822  18.570  0.00  0.00    +0.000 C 
BRANCH  15  16
ATOM     16  N   UNL     1       1.048   9.958  17.985  0.00  0.00    +0.000 NA
ATOM     17  H   UNL     1       0.913   9.753  16.993  0.00  0.00    +0.000 HD
BRANCH  16  18
ATOM     18  C   UNL     1      -0.282  10.214  18.570  0.00  0.00    +0.000 C 
BRANCH  18  19
ATOM     19  C   UNL     1      -0.376  11.490  19.443  0.00  0.00    +0.000 C 
BRANCH  19  20
ATOM     20  N   UNL     1       0.670  11.624  20.482  0.00  0.00    +0.000 NA
ATOM     21  C   UNL     1       0.517  10.563  21.511  0.00  0.00    +0.000 C 
ATOM     22  C   UNL     1      -0.680  10.775  22.462  0.00  0.00    +0.000 C 
ATOM     23  O   UNL     1      -0.649  12.066  23.083  0.00  0.00    +0.000 OA
ATOM     24  C   UNL     1      -0.575  13.107  22.103  0.00  0.00    +0.000 C 
ATOM     25  C   UNL     1       0.649  12.923  21.192  0.00  0.00    +0.000 C 
ENDBRANCH  19  20
ENDBRANCH  18  19
ENDBRANCH  16  18
ENDBRANCH  15  16
ENDBRANCH  14  15
ENDBRANCH   1  14
TORSDOF 8
ENDMDL
MODEL 8
REMARK VINA RESULT:      -7.2      3.749      7.216
REMARK  Name = 
REMARK  8 active torsions:
REMARK  status: ('A' for Active; 'I' for Inactive)
REMARK    1  A    between atoms: C_4  and  C_5
REMARK    2  A    between atoms: C_10  and  O_11
REMARK    3  A    between atoms: O_11  and  C_12
REMARK    4  A    between atoms: C_12  and  C_13
REMARK    5  A    between atoms: C_13  and  N_14
REMARK    6  A    between atoms: N_14  and  C_15
REMARK    7  A    between atoms: C_15  and  C_16
REMARK    8  A    between atoms: C_16  and  N_17
REMARK                            x       y       z     vdW  Elec       q    Type
REMARK                         _______ _______ _______ _____ _____    ______ ____
ROOT
ATOM      1  O   UNL     1       3.399   7.324  18.108  0.00  0.00    +0.000 OA
ENDROOT
BRANCH   1   7
ATOM      2  C   UNL     1       3.744   4.979  17.606  0.00  0.00    +0.000 A 
ATOM      3  C   UNL     1       4.411   4.036  16.782  0.00  0.00    +0.000 A 
ATOM      4  C   UNL     1       5.252   4.405  15.730  0.00  0.00    +0.000 A 
ATOM      5  C   UNL     1       5.498   5.742  15.495  0.00  0.00    +0.000 A 
ATOM      6  C   UNL     1       4.897   6.701  16.306  0.00  0.00    +0.000 A 
ATOM      7  C   UNL     1       3.994   6.350  17.331  0.00  0.00    +0.000 A 
BRANCH   2  11
ATOM      8  C   UNL     1       1.099   3.561  20.751  0.00  0.00    +0.000 A 
ATOM      9  C   UNL     1       0.811   3.284  19.419  0.00  0.00    +0.000 A 
ATOM     10  C   UNL     1       1.660   3.735  18.394  0.00  0.00    +0.000 A 
ATOM     11  C   UNL     1       2.832   4.457  18.674  0.00  0.00    +0.000 A 
ATOM     12  C   UNL     1       3.092   4.719  20.040  0.00  0.00    +0.000 A 
ATOM     13  C   UNL     1       2.238   4.287  21.064  0.00  0.00    +0.000 A 
ENDBRANCH   2  11
ENDBRANCH   1   7
BRANCH   1  14
ATOM     14  C   UNL     1       2.170   7.870  17.604  0.00  0.00    +0.000 C 
BRANCH  14  15
ATOM     15  C   UNL     1       1.669   9.024  18.491  0.00  0.00    +0.000 C 
BRANCH  15  16
ATOM     16  N   UNL     1       1.750  10.376  17.905  0.00  0.00    +0.000 NA
ATOM     17  H   UNL     1       1.247  10.352  17.015  0.00  0.00    +0.000 HD
BRANCH  16  18
ATOM     18  C   UNL     1       1.156  11.453  18.720  0.00  0.00    +0.000 C 
BRANCH  18  19
ATOM     19  C   UNL     1       0.262  10.968  19.888  0.00  0.00    +0.000 C 
BRANCH  19  20
ATOM     20  N   UNL     1       0.790  11.240  21.244  0.00  0.00    +0.000 NA
ATOM     21  C   UNL     1       0.960   9.971  21.998  0.00  0.00    +0.000 C 
ATOM     22  C   UNL     1      -0.365   9.333  22.468  0.00  0.00    +0.000 C 
ATOM     23  O   UNL     1      -1.164  10.254  23.222  0.00  0.00    +0.000 OA
ATOM     24  C   UNL     1      -1.401  11.456  22.481  0.00  0.00    +0.000 C 
ATOM     25  C   UNL     1      -0.079  12.117  22.062  0.00  0.00    +0.000 C 
ENDBRANCH  19  20
ENDBRANCH  18  19
ENDBRANCH  16  18
ENDBRANCH  15  16
ENDBRANCH  14  15
ENDBRANCH   1  14
TORSDOF 8
ENDMDL
MODEL 9
REMARK VINA RESULT:      -7.1      3.818      7.114
REMARK  Name = 
REMARK  8 active torsions:
REMARK  status: ('A' for Active; 'I' for Inactive)
REMARK    1  A    between atoms: C_4  and  C_5
REMARK    2  A    between atoms: C_10  and  O_11
REMARK    3  A    between atoms: O_11  and  C_12
REMARK    4  A    between atoms: C_12  and  C_13
REMARK    5  A    between atoms: C_13  and  N_14
REMARK    6  A    between atoms: N_14  and  C_15
REMARK    7  A    between atoms: C_15  and  C_16
REMARK    8  A    between atoms: C_16  and  N_17
REMARK                            x       y       z     vdW  Elec       q    Type
REMARK                         _______ _______ _______ _____ _____    ______ ____
ROOT
ATOM      1  O   UNL     1       3.414   7.072  18.614  0.00  0.00    +0.000 OA
ENDROOT
BRANCH   1   7
ATOM      2  C   UNL     1       3.657   4.821  17.752  0.00  0.00    +0.000 A 
ATOM      3  C   UNL     1       4.268   3.992  16.775  0.00  0.00    +0.000 A 
ATOM      4  C   UNL     1       5.097   4.488  15.768  0.00  0.00    +0.000 A 
ATOM      5  C   UNL     1       5.388   5.836  15.731  0.00  0.00    +0.000 A 
ATOM      6  C   UNL     1       4.843   6.680  16.695  0.00  0.00    +0.000 A 
ATOM      7  C   UNL     1       3.952   6.209  17.681  0.00  0.00    +0.000 A 
BRANCH   2  11
ATOM      8  C   UNL     1       1.023   3.036  20.715  0.00  0.00    +0.000 A 
ATOM      9  C   UNL     1       0.783   2.839  19.359  0.00  0.00    +0.000 A 
ATOM     10  C   UNL     1       1.629   3.410  18.393  0.00  0.00    +0.000 A 
ATOM     11  C   UNL     1       2.751   4.174  18.756  0.00  0.00    +0.000 A 
ATOM     12  C   UNL     1       2.962   4.351  20.143  0.00  0.00    +0.000 A 
ATOM     13  C   UNL     1       2.110   3.800  21.110  0.00  0.00    +0.000 A 
ENDBRANCH   2  11
ENDBRANCH   1   7
BRANCH   1  14
ATOM     14  C   UNL     1       2.466   8.029  18.114  0.00  0.00    +0.000 C 
BRANCH  14  15
ATOM     15  C   UNL     1       1.567   8.562  19.244  0.00  0.00    +0.000 C 
BRANCH  15  16
ATOM     16  N   UNL     1       1.730   7.921  20.562  0.00  0.00    +0.000 NA
ATOM     17  H   UNL     1       2.729   7.749  20.694  0.00  0.00    +0.000 HD
BRANCH  16  18
ATOM     18  C   UNL     1       1.262   8.717  21.713  0.00  0.00    +0.000 C 
BRANCH  18  19
ATOM     19  C   UNL     1       0.180   9.773  21.378  0.00  0.00    +0.000 C 
BRANCH  19  20
ATOM     20  N   UNL     1       0.512  11.163  21.764  0.00  0.00    +0.000 NA
ATOM     21  C   UNL     1      -0.684  11.845  22.324  0.00  0.00    +0.000 C 
ATOM     22  C   UNL     1      -1.746  12.221  21.270  0.00  0.00    +0.000 C 
ATOM     23  O   UNL     1      -1.189  12.997  20.201  0.00  0.00    +0.000 OA
ATOM     24  C   UNL     1      -0.080  12.322  19.600  0.00  0.00    +0.000 C 
ATOM     25  C   UNL     1       1.001  11.997  20.643  0.00  0.00    +0.000 C 
ENDBRANCH  19  20
ENDBRANCH  18  19
ENDBRANCH  16  18
ENDBRANCH  15  16
ENDBRANCH  14  15
ENDBRANCH   1  14
TORSDOF 8
ENDMDL
