MODEL 1
REMARK VINA RESULT:      -7.5      0.000      0.000
REMARK  Name = 
REMARK  4 active torsions:
REMARK  status: ('A' for Active; 'I' for Inactive)
REMARK    1  A    between atoms: C_1  and  C_2
REMARK    2  A    between atoms: C_4  and  C_5
REMARK    3  A    between atoms: N_7  and  C_8
REMARK    4  A    between atoms: C_14  and  C_15
REMARK                            x       y       z     vdW  Elec       q    Type
REMARK                         _______ _______ _______ _____ _____    ______ ____
ROOT
ATOM      1  C   UNL     1       0.754   9.678  18.757  0.00  0.00    +0.000 C 
ATOM      2  C   UNL     1       0.526   8.867  20.042  0.00  0.00    +0.000 C 
ATOM      3  C   UNL     1       1.751   8.095  20.527  0.00  0.00    +0.000 C 
ATOM      4  N   UNL     1       2.387   7.359  19.435  0.00  0.00    +0.000 N 
ATOM      5  C   UNL     1       2.388   5.977  19.347  0.00  0.00    +0.000 A 
ATOM      6  C   UNL     1       2.318   5.177  20.486  0.00  0.00    +0.000 A 
ATOM      7  C   UNL     1       2.309   3.782  20.382  0.00  0.00    +0.000 A 
ATOM      8  C   UNL     1       2.417   3.198  19.129  0.00  0.00    +0.000 A 
ATOM      9  C   UNL     1       2.522   4.049  18.056  0.00  0.00    +0.000 A 
ATOM     10 CL   UNL     1       2.693   3.431  16.463  0.00  0.00    +0.000 Cl
ATOM     11  N   UNL     1       2.504   5.398  18.135  0.00  0.00    +0.000 NA
ATOM     12  C   UNL     1       2.727   8.155  18.257  0.00  0.00    +0.000 C 
ATOM     13  C   UNL     1       1.475   8.826  17.700  0.00  0.00    +0.000 C 
ENDROOT
BRANCH   7  14
ATOM     14  C   UNL     1       2.189   2.888  21.566  0.00  0.00    +0.000 C 
ATOM     15  N   UNL     1       0.959   2.701  22.130  0.00  0.00    +0.000 N 
ATOM     16  O   UNL     1       3.168   2.312  22.024  0.00  0.00    +0.000 OA
ATOM     17  H   UNL     1       0.090   3.091  21.807  0.00  0.00    +0.000 HD
ATOM     18  H   UNL     1       0.915   2.065  22.916  0.00  0.00    +0.000 HD
ENDBRANCH   7  14
BRANCH   1  21
ATOM     19  C   UNL     1       0.806  12.164  18.708  0.00  0.00    +0.000 C 
ATOM     20  O   UNL     1      -0.386  12.246  18.431  0.00  0.00    +0.000 OA
ATOM     21  N   UNL     1       1.426  10.959  18.987  0.00  0.00    +0.000 N 
ATOM     22  H   UNL     1       2.435  10.968  18.980  0.00  0.00    +0.000 HD
BRANCH  19  26
ATOM     23  C   UNL     1       4.904  14.820  17.808  0.00  0.00    +0.000 C 
ATOM     24  C   UNL     1       3.542  14.543  18.329  0.00  0.00    +0.000 A 
ATOM     25  N   UNL     1       2.906  13.340  18.133  0.00  0.00    +0.000 N 
ATOM     26  C   UNL     1       1.659  13.338  18.740  0.00  0.00    +0.000 A 
ATOM     27  C   UNL     1       1.502  14.590  19.311  0.00  0.00    +0.000 A 
ATOM     28  C   UNL     1       2.678  15.324  19.057  0.00  0.00    +0.000 A 
ATOM     29 BR   UNL     1       2.956  17.079  19.658  0.00  0.00    +0.000 Br
ATOM     30  H   UNL     1       3.277  12.544  17.628  0.00  0.00    +0.000 HD
ENDBRANCH  19  26
ENDBRANCH   1  21
TORSDOF 3
ENDMDL
MODEL 2
REMARK VINA RESULT:      -7.3      0.868      1.205
REMARK  Name = 
REMARK  4 active torsions:
REMARK  status: ('A' for Active; 'I' for Inactive)
REMARK    1  A    between atoms: C_1  and  C_2
REMARK    2  A    between atoms: C_4  and  C_5
REMARK    3  A    between atoms: N_7  and  C_8
REMARK    4  A    between atoms: C_14  and  C_15
REMARK                            x       y       z     vdW  Elec       q    Type
REMARK                         _______ _______ _______ _____ _____    ______ ____
ROOT
ATOM      1  C   UNL     1       0.683   9.697  18.746  0.00  0.00    +0.000 C 
ATOM      2  C   UNL     1       0.468   8.887  20.033  0.00  0.00    +0.000 C 
ATOM      3  C   UNL     1       1.703   8.128  20.515  0.00  0.00    +0.000 C 
ATOM      4  N   UNL     1       2.341   7.396  19.423  0.00  0.00    +0.000 N 
ATOM      5  C   UNL     1       2.356   6.014  19.338  0.00  0.00    +0.000 A 
ATOM      6  C   UNL     1       2.298   5.216  20.480  0.00  0.00    +0.000 A 
ATOM      7  C   UNL     1       2.302   3.821  20.379  0.00  0.00    +0.000 A 
ATOM      8  C   UNL     1       2.411   3.234  19.127  0.00  0.00    +0.000 A 
ATOM      9  C   UNL     1       2.503   4.083  18.051  0.00  0.00    +0.000 A 
ATOM     10 CL   UNL     1       2.673   3.464  16.459  0.00  0.00    +0.000 Cl
ATOM     11  N   UNL     1       2.472   5.432  18.127  0.00  0.00    +0.000 NA
ATOM     12  C   UNL     1       2.669   8.192  18.241  0.00  0.00    +0.000 C 
ATOM     13  C   UNL     1       1.408   8.850  17.688  0.00  0.00    +0.000 C 
ENDROOT
BRANCH   7  14
ATOM     14  C   UNL     1       2.196   2.929  21.565  0.00  0.00    +0.000 C 
ATOM     15  N   UNL     1       0.972   2.738  22.141  0.00  0.00    +0.000 N 
ATOM     16  O   UNL     1       3.181   2.357  22.016  0.00  0.00    +0.000 OA
ATOM     17  H   UNL     1       0.098   3.125  21.825  0.00  0.00    +0.000 HD
ATOM     18  H   UNL     1       0.937   2.104  22.929  0.00  0.00    +0.000 HD
ENDBRANCH   7  14
BRANCH   1  21
ATOM     19  C   UNL     1       0.691  12.184  18.744  0.00  0.00    +0.000 C 
ATOM     20  O   UNL     1      -0.515  12.250  18.524  0.00  0.00    +0.000 OA
ATOM     21  N   UNL     1       1.343  10.985  18.969  0.00  0.00    +0.000 N 
ATOM     22  H   UNL     1       2.351  11.012  18.916  0.00  0.00    +0.000 HD
BRANCH  19  26
ATOM     23  C   UNL     1       1.650  17.052  18.957  0.00  0.00    +0.000 C 
ATOM     24  C   UNL     1       1.953  15.603  18.850  0.00  0.00    +0.000 A 
ATOM     25  N   UNL     1       0.976  14.636  18.906  0.00  0.00    +0.000 N 
ATOM     26  C   UNL     1       1.524  13.372  18.758  0.00  0.00    +0.000 A 
ATOM     27  C   UNL     1       2.892  13.553  18.632  0.00  0.00    +0.000 A 
ATOM     28  C   UNL     1       3.143  14.939  18.681  0.00  0.00    +0.000 A 
ATOM     29 BR   UNL     1       4.855  15.689  18.524  0.00  0.00    +0.000 Br
ATOM     30  H   UNL     1      -0.017  14.798  19.027  0.00  0.00    +0.000 HD
ENDBRANCH  19  26
ENDBRANCH   1  21
TORSDOF 3
ENDMDL
MODEL 3
REMARK VINA RESULT:      -6.9      1.133      1.255
REMARK  Name = 
REMARK  4 active torsions:
REMARK  status: ('A' for Active; 'I' for Inactive)
REMARK    1  A    between atoms: C_1  and  C_2
REMARK    2  A    between atoms: C_4  and  C_5
REMARK    3  A    between atoms: N_7  and  C_8
REMARK    4  A    between atoms: C_14  and  C_15
REMARK                            x       y       z     vdW  Elec       q    Type
REMARK                         _______ _______ _______ _____ _____    ______ ____
ROOT
ATOM      1  C   UNL     1       0.530   9.743  19.051  0.00  0.00    +0.000 C 
ATOM      2  C   UNL     1       0.318   8.867  20.294  0.00  0.00    +0.000 C 
ATOM      3  C   UNL     1       1.566   8.118  20.760  0.00  0.00    +0.000 C 
ATOM      4  N   UNL     1       2.241   7.457  19.644  0.00  0.00    +0.000 N 
ATOM      5  C   UNL     1       2.295   6.082  19.493  0.00  0.00    +0.000 A 
ATOM      6  C   UNL     1       2.242   5.229  20.593  0.00  0.00    +0.000 A 
ATOM      7  C   UNL     1       2.286   3.841  20.426  0.00  0.00    +0.000 A 
ATOM      8  C   UNL     1       2.430   3.319  19.149  0.00  0.00    +0.000 A 
ATOM      9  C   UNL     1       2.515   4.221  18.117  0.00  0.00    +0.000 A 
ATOM     10 CL   UNL     1       2.726   3.685  16.500  0.00  0.00    +0.000 Cl
ATOM     11  N   UNL     1       2.445   5.564  18.257  0.00  0.00    +0.000 NA
ATOM     12  C   UNL     1       2.564   8.319  18.507  0.00  0.00    +0.000 C 
ATOM     13  C   UNL     1       1.294   8.969  17.966  0.00  0.00    +0.000 C 
ENDROOT
BRANCH   7  14
ATOM     14  C   UNL     1       2.186   2.890  21.566  0.00  0.00    +0.000 C 
ATOM     15  N   UNL     1       0.962   2.651  22.122  0.00  0.00    +0.000 N 
ATOM     16  O   UNL     1       3.178   2.312  21.994  0.00  0.00    +0.000 OA
ATOM     17  H   UNL     1       0.084   3.039  21.819  0.00  0.00    +0.000 HD
ATOM     18  H   UNL     1       0.932   1.978  22.877  0.00  0.00    +0.000 HD
ENDBRANCH   7  14
BRANCH   1  21
ATOM     19  C   UNL     1       0.398  12.136  19.720  0.00  0.00    +0.000 C 
ATOM     20  O   UNL     1      -0.795  12.057  19.999  0.00  0.00    +0.000 OA
ATOM     21  N   UNL     1       1.151  11.036  19.347  0.00  0.00    +0.000 N 
ATOM     22  H   UNL     1       2.047  11.235  18.926  0.00  0.00    +0.000 HD
BRANCH  19  26
ATOM     23  C   UNL     1       3.368  15.653  21.583  0.00  0.00    +0.000 C 
ATOM     24  C   UNL     1       2.453  15.014  20.603  0.00  0.00    +0.000 A 
ATOM     25  N   UNL     1       1.937  13.752  20.786  0.00  0.00    +0.000 N 
ATOM     26  C   UNL     1       1.097  13.407  19.739  0.00  0.00    +0.000 A 
ATOM     27  C   UNL     1       1.109  14.478  18.860  0.00  0.00    +0.000 A 
ATOM     28  C   UNL     1       1.946  15.470  19.411  0.00  0.00    +0.000 A 
ATOM     29 BR   UNL     1       2.261  17.130  18.598  0.00  0.00    +0.000 Br
ATOM     30  H   UNL     1       2.121  13.141  21.573  0.00  0.00    +0.000 HD
ENDBRANCH  19  26
ENDBRANCH   1  21
TORSDOF 3
ENDMDL
MODEL 4
REMARK VINA RESULT:      -6.7      1.490      1.876
REMARK  Name = 
REMARK  4 active torsions:
REMARK  status: ('A' for Active; 'I' for Inactive)
REMARK    1  A    between atoms: C_1  and  C_2
REMARK    2  A    between atoms: C_4  and  C_5
REMARK    3  A    between atoms: N_7  and  C_8
REMARK    4  A    between atoms: C_14  and  C_15
REMARK                            x       y       z     vdW  Elec       q    Type
REMARK                         _______ _______ _______ _____ _____    ______ ____
ROOT
ATOM      1  C   UNL     1       0.163  10.216  18.483  0.00  0.00    +0.000 C 
ATOM      2  C   UNL     1      -0.294   9.277  19.609  0.00  0.00    +0.000 C 
ATOM      3  C   UNL     1       0.844   8.684  20.438  0.00  0.00    +0.000 C 
ATOM      4  N   UNL     1       1.908   8.157  19.585  0.00  0.00    +0.000 N 
ATOM      5  C   UNL     1       2.193   6.807  19.468  0.00  0.00    +0.000 A 
ATOM      6  C   UNL     1       1.926   5.916  20.507  0.00  0.00    +0.000 A 
ATOM      7  C   UNL     1       2.207   4.553  20.372  0.00  0.00    +0.000 A 
ATOM      8  C   UNL     1       2.800   4.099  19.203  0.00  0.00    +0.000 A 
ATOM      9  C   UNL     1       3.069   5.039  18.239  0.00  0.00    +0.000 A 
ATOM     10 CL   UNL     1       3.831   4.591  16.767  0.00  0.00    +0.000 Cl
ATOM     11  N   UNL     1       2.778   6.355  18.341  0.00  0.00    +0.000 NA
ATOM     12  C   UNL     1       2.440   9.091  18.595  0.00  0.00    +0.000 C 
ATOM     13  C   UNL     1       1.317   9.586  17.687  0.00  0.00    +0.000 C 
ENDROOT
BRANCH   7  14
ATOM     14  C   UNL     1       1.898   3.559  21.434  0.00  0.00    +0.000 C 
ATOM     15  N   UNL     1       0.836   2.717  21.263  0.00  0.00    +0.000 N 
ATOM     16  O   UNL     1       2.588   3.477  22.443  0.00  0.00    +0.000 OA
ATOM     17  H   UNL     1       0.235   2.673  20.457  0.00  0.00    +0.000 HD
ATOM     18  H   UNL     1       0.675   2.037  21.995  0.00  0.00    +0.000 HD
ENDBRANCH   7  14
BRANCH   1  21
ATOM     19  C   UNL     1      -0.387  12.627  18.750  0.00  0.00    +0.000 C 
ATOM     20  O   UNL     1      -1.537  12.474  18.352  0.00  0.00    +0.000 OA
ATOM     21  N   UNL     1       0.483  11.568  18.944  0.00  0.00    +0.000 N 
ATOM     22  H   UNL     1       1.457  11.809  19.053  0.00  0.00    +0.000 HD
BRANCH  19  26
ATOM     23  C   UNL     1      -0.277  17.591  18.649  0.00  0.00    +0.000 C 
ATOM     24  C   UNL     1       0.195  16.220  18.965  0.00  0.00    +0.000 A 
ATOM     25  N   UNL     1      -0.524  15.095  18.636  0.00  0.00    +0.000 N 
ATOM     26  C   UNL     1       0.150  13.947  19.022  0.00  0.00    +0.000 A 
ATOM     27  C   UNL     1       1.318  14.370  19.637  0.00  0.00    +0.000 A 
ATOM     28  C   UNL     1       1.338  15.779  19.587  0.00  0.00    +0.000 A 
ATOM     29 BR   UNL     1       2.739  16.822  20.271  0.00  0.00    +0.000 Br
ATOM     30  H   UNL     1      -1.422  15.077  18.166  0.00  0.00    +0.000 HD
ENDBRANCH  19  26
ENDBRANCH   1  21
TORSDOF 3
ENDMDL
MODEL 5
REMARK VINA RESULT:      -6.5      3.955      5.288
REMARK  Name = 
REMARK  4 active torsions:
REMARK  status: ('A' for Active; 'I' for Inactive)
REMARK    1  A    between atoms: C_1  and  C_2
REMARK    2  A    between atoms: C_4  and  C_5
REMARK    3  A    between atoms: N_7  and  C_8
REMARK    4  A    between atoms: C_14  and  C_15
REMARK                            x       y       z     vdW  Elec       q    Type
REMARK                         _______ _______ _______ _____ _____    ______ ____
ROOT
ATOM      1  C   UNL     1       1.588   9.190  19.030  0.00  0.00    +0.000 C 
ATOM      2  C   UNL     1       2.911   9.285  18.257  0.00  0.00    +0.000 C 
ATOM      3  C   UNL     1       3.123   8.176  17.228  0.00  0.00    +0.000 C 
ATOM      4  N   UNL     1       2.828   6.860  17.791  0.00  0.00    +0.000 N 
ATOM      5  C   UNL     1       3.796   5.899  18.029  0.00  0.00    +0.000 A 
ATOM      6  C   UNL     1       4.966   5.845  17.273  0.00  0.00    +0.000 A 
ATOM      7  C   UNL     1       5.941   4.876  17.530  0.00  0.00    +0.000 A 
ATOM      8  C   UNL     1       5.712   3.934  18.522  0.00  0.00    +0.000 A 
ATOM      9  C   UNL     1       4.520   4.025  19.199  0.00  0.00    +0.000 A 
ATOM     10 CL   UNL     1       4.120   2.890  20.423  0.00  0.00    +0.000 Cl
ATOM     11  N   UNL     1       3.580   4.971  18.983  0.00  0.00    +0.000 NA
ATOM     12  C   UNL     1       1.513   6.724  18.415  0.00  0.00    +0.000 C 
ATOM     13  C   UNL     1       1.354   7.755  19.529  0.00  0.00    +0.000 C 
ENDROOT
BRANCH   7  14
ATOM     14  C   UNL     1       7.225   4.808  16.781  0.00  0.00    +0.000 C 
ATOM     15  N   UNL     1       7.329   5.462  15.586  0.00  0.00    +0.000 N 
ATOM     16  O   UNL     1       8.185   4.192  17.229  0.00  0.00    +0.000 OA
ATOM     17  H   UNL     1       6.618   6.028  15.153  0.00  0.00    +0.000 HD
ATOM     18  H   UNL     1       8.226   5.414  15.121  0.00  0.00    +0.000 HD
ENDBRANCH   7  14
BRANCH   1  21
ATOM     19  C   UNL     1      -0.532  10.485  18.898  0.00  0.00    +0.000 C 
ATOM     20  O   UNL     1      -0.403  10.933  20.033  0.00  0.00    +0.000 OA
ATOM     21  N   UNL     1       0.438   9.710  18.286  0.00  0.00    +0.000 N 
ATOM     22  H   UNL     1       0.149   9.211  17.458  0.00  0.00    +0.000 HD
BRANCH  19  26
ATOM     23  C   UNL     1      -3.414  10.405  14.854  0.00  0.00    +0.000 C 
ATOM     24  C   UNL     1      -3.044  10.688  16.264  0.00  0.00    +0.000 A 
ATOM     25  N   UNL     1      -1.832  10.320  16.799  0.00  0.00    +0.000 N 
ATOM     26  C   UNL     1      -1.735  10.723  18.122  0.00  0.00    +0.000 A 
ATOM     27  C   UNL     1      -2.936  11.341  18.430  0.00  0.00    +0.000 A 
ATOM     28  C   UNL     1      -3.735  11.320  17.269  0.00  0.00    +0.000 A 
ATOM     29 BR   UNL     1      -5.453  12.067  17.178  0.00  0.00    +0.000 Br
ATOM     30  H   UNL     1      -1.090   9.830  16.314  0.00  0.00    +0.000 HD
ENDBRANCH  19  26
ENDBRANCH   1  21
TORSDOF 3
ENDMDL
MODEL 6
REMARK VINA RESULT:      -6.4      6.168      7.451
REMARK  Name = 
REMARK  4 active torsions:
REMARK  status: ('A' for Active; 'I' for Inactive)
REMARK    1  A    between atoms: C_1  and  C_2
REMARK    2  A    between atoms: C_4  and  C_5
REMARK    3  A    between atoms: N_7  and  C_8
REMARK    4  A    between atoms: C_14  and  C_15
REMARK                            x       y       z     vdW  Elec       q    Type
REMARK                         _______ _______ _______ _____ _____    ______ ____
ROOT
ATOM      1  C   UNL     1       3.790  15.632  19.129  0.00  0.00    +0.000 C 
ATOM      2  C   UNL     1       3.305  15.340  20.556  0.00  0.00    +0.000 C 
ATOM      3  C   UNL     1       3.125  13.856  20.871  0.00  0.00    +0.000 C 
ATOM      4  N   UNL     1       2.385  13.170  19.813  0.00  0.00    +0.000 N 
ATOM      5  C   UNL     1       1.106  12.668  19.980  0.00  0.00    +0.000 A 
ATOM      6  C   UNL     1       0.644  12.258  21.230  0.00  0.00    +0.000 A 
ATOM      7  C   UNL     1      -0.655  11.764  21.387  0.00  0.00    +0.000 A 
ATOM      8  C   UNL     1      -1.470  11.642  20.271  0.00  0.00    +0.000 A 
ATOM      9  C   UNL     1      -0.935  12.029  19.067  0.00  0.00    +0.000 A 
ATOM     10 CL   UNL     1      -1.846  11.891  17.619  0.00  0.00    +0.000 Cl
ATOM     11  N   UNL     1       0.307  12.536  18.901  0.00  0.00    +0.000 NA
ATOM     12  C   UNL     1       2.921  13.337  18.463  0.00  0.00    +0.000 C 
ATOM     13  C   UNL     1       2.982  14.819  18.105  0.00  0.00    +0.000 C 
ENDROOT
BRANCH   7  14
ATOM     14  C   UNL     1      -1.207  11.358  22.707  0.00  0.00    +0.000 C 
ATOM     15  N   UNL     1      -2.405  11.875  23.110  0.00  0.00    +0.000 N 
ATOM     16  O   UNL     1      -0.612  10.559  23.422  0.00  0.00    +0.000 OA
ATOM     17  H   UNL     1      -2.991  12.501  22.583  0.00  0.00    +0.000 HD
ATOM     18  H   UNL     1      -2.759  11.553  24.002  0.00  0.00    +0.000 HD
ENDBRANCH   7  14
BRANCH   1  21
ATOM     19  C   UNL     1       6.092  16.540  18.882  0.00  0.00    +0.000 C 
ATOM     20  O   UNL     1       5.735  17.687  19.134  0.00  0.00    +0.000 OA
ATOM     21  N   UNL     1       5.234  15.457  18.956  0.00  0.00    +0.000 N 
ATOM     22  H   UNL     1       5.556  14.606  18.520  0.00  0.00    +0.000 HD
BRANCH  19  26
ATOM     23  C   UNL     1       9.979  13.646  17.797  0.00  0.00    +0.000 C 
ATOM     24  C   UNL     1       9.226  14.913  17.973  0.00  0.00    +0.000 A 
ATOM     25  N   UNL     1       7.902  14.940  18.346  0.00  0.00    +0.000 N 
ATOM     26  C   UNL     1       7.449  16.246  18.461  0.00  0.00    +0.000 A 
ATOM     27  C   UNL     1       8.518  17.060  18.123  0.00  0.00    +0.000 A 
ATOM     28  C   UNL     1       9.615  16.222  17.832  0.00  0.00    +0.000 A 
ATOM     29 BR   UNL     1      11.309  16.863  17.346  0.00  0.00    +0.000 Br
ATOM     30  H   UNL     1       7.317  14.133  18.529  0.00  0.00    +0.000 HD
ENDBRANCH  19  26
ENDBRANCH   1  21
TORSDOF 3
ENDMDL
MODEL 7
REMARK VINA RESULT:      -6.4      4.662      5.878
REMARK  Name = 
REMARK  4 active torsions:
REMARK  status: ('A' for Active; 'I' for Inactive)
REMARK    1  A    between atoms: C_1  and  C_2
REMARK    2  A    between atoms: C_4  and  C_5
REMARK    3  A    between atoms: N_7  and  C_8
REMARK    4  A    between atoms: C_14  and  C_15
REMARK                            x       y       z     vdW  Elec       q    Type
REMARK                         _______ _______ _______ _____ _____    ______ ____
ROOT
ATOM      1  C   UNL     1       0.114  10.431  22.308  0.00  0.00    +0.000 C 
ATOM      2  C   UNL     1       1.132  10.610  21.172  0.00  0.00    +0.000 C 
ATOM      3  C   UNL     1       0.891   9.713  19.960  0.00  0.00    +0.000 C 
ATOM      4  N   UNL     1       0.645   8.328  20.360  0.00  0.00    +0.000 N 
ATOM      5  C   UNL     1       1.528   7.293  20.103  0.00  0.00    +0.000 A 
ATOM      6  C   UNL     1       2.391   7.330  19.009  0.00  0.00    +0.000 A 
ATOM      7  C   UNL     1       3.286   6.283  18.767  0.00  0.00    +0.000 A 
ATOM      8  C   UNL     1       3.277   5.178  19.607  0.00  0.00    +0.000 A 
ATOM      9  C   UNL     1       2.373   5.195  20.641  0.00  0.00    +0.000 A 
ATOM     10 CL   UNL     1       2.253   3.865  21.720  0.00  0.00    +0.000 Cl
ATOM     11  N   UNL     1       1.520   6.210  20.906  0.00  0.00    +0.000 NA
ATOM     12  C   UNL     1      -0.417   8.138  21.347  0.00  0.00    +0.000 C 
ATOM     13  C   UNL     1      -0.108   8.940  22.607  0.00  0.00    +0.000 C 
ENDROOT
BRANCH   7  14
ATOM     14  C   UNL     1       4.257   6.299  17.640  0.00  0.00    +0.000 C 
ATOM     15  N   UNL     1       4.598   5.118  17.044  0.00  0.00    +0.000 N 
ATOM     16  O   UNL     1       4.737   7.351  17.235  0.00  0.00    +0.000 OA
ATOM     17  H   UNL     1       4.230   4.209  17.271  0.00  0.00    +0.000 HD
ATOM     18  H   UNL     1       5.240   5.174  16.264  0.00  0.00    +0.000 HD
ENDBRANCH   7  14
BRANCH   1  21
ATOM     19  C   UNL     1      -1.448  12.319  22.741  0.00  0.00    +0.000 C 
ATOM     20  O   UNL     1      -0.621  12.931  23.410  0.00  0.00    +0.000 OA
ATOM     21  N   UNL     1      -1.147  11.141  22.079  0.00  0.00    +0.000 N 
ATOM     22  H   UNL     1      -1.935  10.605  21.749  0.00  0.00    +0.000 HD
BRANCH  19  26
ATOM     23  C   UNL     1      -6.221  12.764  24.034  0.00  0.00    +0.000 C 
ATOM     24  C   UNL     1      -5.002  12.975  23.215  0.00  0.00    +0.000 A 
ATOM     25  N   UNL     1      -3.777  12.458  23.564  0.00  0.00    +0.000 N 
ATOM     26  C   UNL     1      -2.816  12.783  22.618  0.00  0.00    +0.000 A 
ATOM     27  C   UNL     1      -3.459  13.550  21.659  0.00  0.00    +0.000 A 
ATOM     28  C   UNL     1      -4.813  13.655  22.036  0.00  0.00    +0.000 A 
ATOM     29 BR   UNL     1      -6.100  14.580  21.034  0.00  0.00    +0.000 Br
ATOM     30  H   UNL     1      -3.576  11.904  24.388  0.00  0.00    +0.000 HD
ENDBRANCH  19  26
ENDBRANCH   1  21
TORSDOF 3
ENDMDL
MODEL 8
REMARK VINA RESULT:      -6.3      5.190      9.264
REMARK  Name = 
REMARK  4 active torsions:
REMARK  status: ('A' for Active; 'I' for Inactive)
REMARK    1  A    between atoms: C_1  and  C_2
REMARK    2  A    between atoms: C_4  and  C_5
REMARK    3  A    between atoms: N_7  and  C_8
REMARK    4  A    between atoms: C_14  and  C_15
REMARK                            x       y       z     vdW  Elec       q    Type
REMARK                         _______ _______ _______ _____ _____    ______ ____
ROOT
ATOM      1  C   UNL     1       0.504  10.317  19.066  0.00  0.00    +0.000 C 
ATOM      2  C   UNL     1       1.122  11.644  19.530  0.00  0.00    +0.000 C 
ATOM      3  C   UNL     1       1.086  11.864  21.041  0.00  0.00    +0.000 C 
ATOM      4  N   UNL     1      -0.235  11.570  21.593  0.00  0.00    +0.000 N 
ATOM      5  C   UNL     1      -1.077  12.539  22.112  0.00  0.00    +0.000 A 
ATOM      6  C   UNL     1      -0.575  13.713  22.671  0.00  0.00    +0.000 A 
ATOM      7  C   UNL     1      -1.437  14.690  23.181  0.00  0.00    +0.000 A 
ATOM      8  C   UNL     1      -2.804  14.457  23.166  0.00  0.00    +0.000 A 
ATOM      9  C   UNL     1      -3.224  13.262  22.635  0.00  0.00    +0.000 A 
ATOM     10 CL   UNL     1      -4.892  12.858  22.597  0.00  0.00    +0.000 Cl
ATOM     11  N   UNL     1      -2.407  12.320  22.113  0.00  0.00    +0.000 NA
ATOM     12  C   UNL     1      -0.774  10.252  21.263  0.00  0.00    +0.000 C 
ATOM     13  C   UNL     1      -0.854  10.084  19.749  0.00  0.00    +0.000 C 
ENDROOT
BRANCH   7  14
ATOM     14  C   UNL     1      -0.950  15.978  23.744  0.00  0.00    +0.000 C 
ATOM     15  N   UNL     1      -1.545  17.141  23.345  0.00  0.00    +0.000 N 
ATOM     16  O   UNL     1      -0.042  16.004  24.566  0.00  0.00    +0.000 OA
ATOM     17  H   UNL     1      -2.322  17.225  22.711  0.00  0.00    +0.000 HD
ATOM     18  H   UNL     1      -1.203  17.993  23.771  0.00  0.00    +0.000 HD
ENDBRANCH   7  14
BRANCH   1  21
ATOM     19  C   UNL     1       2.128   8.670  18.152  0.00  0.00    +0.000 C 
ATOM     20  O   UNL     1       2.208   9.252  17.075  0.00  0.00    +0.000 OA
ATOM     21  N   UNL     1       1.402   9.170  19.218  0.00  0.00    +0.000 N 
ATOM     22  H   UNL     1       1.214   8.522  19.969  0.00  0.00    +0.000 HD
BRANCH  19  26
ATOM     23  C   UNL     1       2.873   4.275  20.341  0.00  0.00    +0.000 C 
ATOM     24  C   UNL     1       3.116   5.384  19.385  0.00  0.00    +0.000 A 
ATOM     25  N   UNL     1       2.320   6.504  19.334  0.00  0.00    +0.000 N 
ATOM     26  C   UNL     1       2.778   7.391  18.371  0.00  0.00    +0.000 A 
ATOM     27  C   UNL     1       3.881   6.793  17.784  0.00  0.00    +0.000 A 
ATOM     28  C   UNL     1       4.085   5.554  18.426  0.00  0.00    +0.000 A 
ATOM     29 BR   UNL     1       5.483   4.381  17.997  0.00  0.00    +0.000 Br
ATOM     30  H   UNL     1       1.510   6.688  19.915  0.00  0.00    +0.000 HD
ENDBRANCH  19  26
ENDBRANCH   1  21
TORSDOF 3
ENDMDL
MODEL 9
REMARK VINA RESULT:      -6.3      4.624      9.974
REMARK  Name = 
REMARK  4 active torsions:
REMARK  status: ('A' for Active; 'I' for Inactive)
REMARK    1  A    between atoms: C_1  and  C_2
REMARK    2  A    between atoms: C_4  and  C_5
REMARK    3  A    between atoms: N_7  and  C_8
REMARK    4  A    between atoms: C_14  and  C_15
REMARK                            x       y       z     vdW  Elec       q    Type
REMARK                         _______ _______ _______ _____ _____    ______ ____
ROOT
ATOM      1  C   UNL     1       0.048  10.746  20.126  0.00  0.00    +0.000 C 
ATOM      2  C   UNL     1      -0.841  11.572  19.185  0.00  0.00    +0.000 C 
ATOM      3  C   UNL     1      -0.103  12.665  18.416  0.00  0.00    +0.000 C 
ATOM      4  N   UNL     1       0.761  13.449  19.297  0.00  0.00    +0.000 N 
ATOM      5  C   UNL     1       0.522  14.775  19.617  0.00  0.00    +0.000 A 
ATOM      6  C   UNL     1      -0.166  15.619  18.746  0.00  0.00    +0.000 A 
ATOM      7  C   UNL     1      -0.411  16.953  19.087  0.00  0.00    +0.000 A 
ATOM      8  C   UNL     1       0.078  17.444  20.288  0.00  0.00    +0.000 A 
ATOM      9  C   UNL     1       0.780  16.566  21.076  0.00  0.00    +0.000 A 
ATOM     10 CL   UNL     1       1.458  17.078  22.568  0.00  0.00    +0.000 Cl
ATOM     11  N   UNL     1       1.002  15.267  20.777  0.00  0.00    +0.000 NA
ATOM     12  C   UNL     1       1.705  12.675  20.102  0.00  0.00    +0.000 C 
ATOM     13  C   UNL     1       0.951  11.666  20.964  0.00  0.00    +0.000 C 
ENDROOT
BRANCH   7  14
ATOM     14  C   UNL     1      -1.180  17.878  18.211  0.00  0.00    +0.000 C 
ATOM     15  N   UNL     1      -0.600  18.336  17.063  0.00  0.00    +0.000 N 
ATOM     16  O   UNL     1      -2.322  18.216  18.499  0.00  0.00    +0.000 OA
ATOM     17  H   UNL     1       0.310  18.087  16.715  0.00  0.00    +0.000 HD
ATOM     18  H   UNL     1      -1.166  18.942  16.481  0.00  0.00    +0.000 HD
ENDBRANCH   7  14
BRANCH   1  21
ATOM     19  C   UNL     1       1.221   8.553  20.097  0.00  0.00    +0.000 C 
ATOM     20  O   UNL     1       0.826   8.255  21.220  0.00  0.00    +0.000 OA
ATOM     21  N   UNL     1       0.811   9.700  19.441  0.00  0.00    +0.000 N 
ATOM     22  H   UNL     1       1.354   9.966  18.633  0.00  0.00    +0.000 HD
BRANCH  19  26
ATOM     23  C   UNL     1       4.233   4.662  19.422  0.00  0.00    +0.000 C 
ATOM     24  C   UNL     1       3.555   5.940  19.089  0.00  0.00    +0.000 A 
ATOM     25  N   UNL     1       2.634   6.529  19.923  0.00  0.00    +0.000 N 
ATOM     26  C   UNL     1       2.174   7.722  19.385  0.00  0.00    +0.000 A 
ATOM     27  C   UNL     1       2.809   7.869  18.163  0.00  0.00    +0.000 A 
ATOM     28  C   UNL     1       3.669   6.763  17.995  0.00  0.00    +0.000 A 
ATOM     29 BR   UNL     1       4.771   6.525  16.497  0.00  0.00    +0.000 Br
ATOM     30  H   UNL     1       2.324   6.169  20.818  0.00  0.00    +0.000 HD
ENDBRANCH  19  26
ENDBRANCH   1  21
TORSDOF 3
ENDMDL
