MODEL 1
REMARK VINA RESULT:      -7.9      0.000      0.000
REMARK  Name = 
REMARK  6 active torsions:
REMARK  status: ('A' for Active; 'I' for Inactive)
REMARK    1  A    between atoms: C_1  and  C_2
REMARK    2  A    between atoms: C_2  and  C_3
REMARK    3  A    between atoms: C_3  and  C_4
REMARK    4  A    between atoms: C_4  and  C_5
REMARK    5  A    between atoms: C_10  and  C_11
REMARK    6  A    between atoms: C_16  and  O_17
REMARK                            x       y       z     vdW  Elec       q    Type
REMARK                         _______ _______ _______ _____ _____    ______ ____
ROOT
ATOM      1  C   UNL     1       4.427   4.637  18.302  0.00  0.00    +0.000 C 
ATOM      2  C   UNL     1       5.958   4.513  18.561  0.00  0.00    +0.000 C 
ATOM      3  C   UNL     1       6.627   5.892  18.595  0.00  0.00    +0.000 C 
ATOM      4  C   UNL     1       6.454   6.539  17.237  0.00  0.00    +0.000 C 
ATOM      5  O   UNL     1       7.322   7.254  16.733  0.00  0.00    +0.000 OA
ATOM      6  C   UNL     1       5.181   6.235  16.486  0.00  0.00    +0.000 C 
ATOM      7  C   UNL     1       5.526   5.526  15.196  0.00  0.00    +0.000 C 
ATOM      8  C   UNL     1       4.183   5.788  17.286  0.00  0.00    +0.000 C 
ATOM      9  C   UNL     1       3.338   6.767  18.008  0.00  0.00    +0.000 A 
ATOM     10  C   UNL     1       2.831   7.990  17.578  0.00  0.00    +0.000 A 
ATOM     11  C   UNL     1       1.998   8.727  18.441  0.00  0.00    +0.000 A 
ATOM     12  C   UNL     1       1.679   8.222  19.702  0.00  0.00    +0.000 A 
ATOM     13  C   UNL     1       2.196   7.011  20.139  0.00  0.00    +0.000 A 
ATOM     14  C   UNL     1       3.027   6.304  19.282  0.00  0.00    +0.000 A 
ATOM     15  C   UNL     1       3.729   5.039  19.631  0.00  0.00    +0.000 C 
ENDROOT
BRANCH  12  16
ATOM     16  O   UNL     1       0.861   8.893  20.558  0.00  0.00    +0.000 OA
ATOM     17  H   UNL     1       0.287   9.484  20.051  0.00  0.00    +0.000 HD
ENDBRANCH  12  16
BRANCH   1  18
ATOM     18  C   UNL     1       3.885   3.268  17.811  0.00  0.00    +0.000 C 
BRANCH  18  19
ATOM     19  C   UNL     1       2.379   3.178  17.514  0.00  0.00    +0.000 C 
BRANCH  19  21
ATOM     20  C   UNL     1       0.768   2.929  19.467  0.00  0.00    +0.000 C 
ATOM     21  C   UNL     1       1.703   2.219  18.503  0.00  0.00    +0.000 C 
ENDBRANCH  19  21
ENDBRANCH  18  19
ENDBRANCH   1  18
TORSDOF 4
ENDMDL
MODEL 2
REMARK VINA RESULT:      -7.8      1.821      4.582
REMARK  Name = 
REMARK  6 active torsions:
REMARK  status: ('A' for Active; 'I' for Inactive)
REMARK    1  A    between atoms: C_1  and  C_2
REMARK    2  A    between atoms: C_2  and  C_3
REMARK    3  A    between atoms: C_3  and  C_4
REMARK    4  A    between atoms: C_4  and  C_5
REMARK    5  A    between atoms: C_10  and  C_11
REMARK    6  A    between atoms: C_16  and  O_17
REMARK                            x       y       z     vdW  Elec       q    Type
REMARK                         _______ _______ _______ _____ _____    ______ ____
ROOT
ATOM      1  C   UNL     1       4.013   4.593  18.467  0.00  0.00    +0.000 C 
ATOM      2  C   UNL     1       3.367   3.295  17.897  0.00  0.00    +0.000 C 
ATOM      3  C   UNL     1       1.837   3.385  17.914  0.00  0.00    +0.000 C 
ATOM      4  C   UNL     1       1.383   3.517  19.353  0.00  0.00    +0.000 C 
ATOM      5  O   UNL     1       0.344   2.998  19.765  0.00  0.00    +0.000 OA
ATOM      6  C   UNL     1       2.286   4.278  20.294  0.00  0.00    +0.000 C 
ATOM      7  C   UNL     1       2.759   3.345  21.385  0.00  0.00    +0.000 C 
ATOM      8  C   UNL     1       3.149   5.103  19.654  0.00  0.00    +0.000 C 
ATOM      9  C   UNL     1       2.695   6.453  19.248  0.00  0.00    +0.000 A 
ATOM     10  C   UNL     1       1.886   7.360  19.926  0.00  0.00    +0.000 A 
ATOM     11  C   UNL     1       1.635   8.619  19.350  0.00  0.00    +0.000 A 
ATOM     12  C   UNL     1       2.208   8.949  18.120  0.00  0.00    +0.000 A 
ATOM     13  C   UNL     1       3.002   8.042  17.434  0.00  0.00    +0.000 A 
ATOM     14  C   UNL     1       3.227   6.801  18.010  0.00  0.00    +0.000 A 
ATOM     15  C   UNL     1       3.980   5.689  17.366  0.00  0.00    +0.000 C 
ENDROOT
BRANCH  12  16
ATOM     16  O   UNL     1       2.007  10.163  17.538  0.00  0.00    +0.000 OA
ATOM     17  H   UNL     1       1.057  10.335  17.483  0.00  0.00    +0.000 HD
ENDBRANCH  12  16
BRANCH   1  18
ATOM     18  C   UNL     1       5.482   4.291  18.870  0.00  0.00    +0.000 C 
BRANCH  18  19
ATOM     19  C   UNL     1       6.349   5.487  19.298  0.00  0.00    +0.000 C 
BRANCH  19  21
ATOM     20  C   UNL     1       7.447   7.056  17.623  0.00  0.00    +0.000 C 
ATOM     21  C   UNL     1       7.491   5.694  18.295  0.00  0.00    +0.000 C 
ENDBRANCH  19  21
ENDBRANCH  18  19
ENDBRANCH   1  18
TORSDOF 4
ENDMDL
MODEL 3
REMARK VINA RESULT:      -7.6      1.904      4.369
REMARK  Name = 
REMARK  6 active torsions:
REMARK  status: ('A' for Active; 'I' for Inactive)
REMARK    1  A    between atoms: C_1  and  C_2
REMARK    2  A    between atoms: C_2  and  C_3
REMARK    3  A    between atoms: C_3  and  C_4
REMARK    4  A    between atoms: C_4  and  C_5
REMARK    5  A    between atoms: C_10  and  C_11
REMARK    6  A    between atoms: C_16  and  O_17
REMARK                            x       y       z     vdW  Elec       q    Type
REMARK                         _______ _______ _______ _____ _____    ______ ____
ROOT
ATOM      1  C   UNL     1       4.555   4.838  17.778  0.00  0.00    +0.000 C 
ATOM      2  C   UNL     1       4.094   3.653  16.879  0.00  0.00    +0.000 C 
ATOM      3  C   UNL     1       2.615   3.323  17.114  0.00  0.00    +0.000 C 
ATOM      4  C   UNL     1       2.448   2.884  18.554  0.00  0.00    +0.000 C 
ATOM      5  O   UNL     1       1.649   2.007  18.886  0.00  0.00    +0.000 OA
ATOM      6  C   UNL     1       3.344   3.534  19.581  0.00  0.00    +0.000 C 
ATOM      7  C   UNL     1       4.216   2.474  20.215  0.00  0.00    +0.000 C 
ATOM      8  C   UNL     1       3.865   4.713  19.165  0.00  0.00    +0.000 C 
ATOM      9  C   UNL     1       3.064   5.951  19.310  0.00  0.00    +0.000 A 
ATOM     10  C   UNL     1       2.239   6.358  20.354  0.00  0.00    +0.000 A 
ATOM     11  C   UNL     1       1.616   7.618  20.284  0.00  0.00    +0.000 A 
ATOM     12  C   UNL     1       1.843   8.447  19.184  0.00  0.00    +0.000 A 
ATOM     13  C   UNL     1       2.652   8.038  18.135  0.00  0.00    +0.000 A 
ATOM     14  C   UNL     1       3.246   6.787  18.213  0.00  0.00    +0.000 A 
ATOM     15  C   UNL     1       4.068   6.168  17.138  0.00  0.00    +0.000 C 
ENDROOT
BRANCH  12  16
ATOM     16  O   UNL     1       1.276   9.682  19.087  0.00  0.00    +0.000 OA
ATOM     17  H   UNL     1       0.342   9.621  19.330  0.00  0.00    +0.000 HD
ENDBRANCH  12  16
BRANCH   1  18
ATOM     18  C   UNL     1       6.105   4.831  17.868  0.00  0.00    +0.000 C 
BRANCH  18  19
ATOM     19  C   UNL     1       6.734   5.425  19.139  0.00  0.00    +0.000 C 
BRANCH  19  21
ATOM     20  C   UNL     1       7.508   7.241  17.535  0.00  0.00    +0.000 C 
ATOM     21  C   UNL     1       7.846   6.414  18.764  0.00  0.00    +0.000 C 
ENDBRANCH  19  21
ENDBRANCH  18  19
ENDBRANCH   1  18
TORSDOF 4
ENDMDL
MODEL 4
REMARK VINA RESULT:      -7.4      2.285      5.283
REMARK  Name = 
REMARK  6 active torsions:
REMARK  status: ('A' for Active; 'I' for Inactive)
REMARK    1  A    between atoms: C_1  and  C_2
REMARK    2  A    between atoms: C_2  and  C_3
REMARK    3  A    between atoms: C_3  and  C_4
REMARK    4  A    between atoms: C_4  and  C_5
REMARK    5  A    between atoms: C_10  and  C_11
REMARK    6  A    between atoms: C_16  and  O_17
REMARK                            x       y       z     vdW  Elec       q    Type
REMARK                         _______ _______ _______ _____ _____    ______ ____
ROOT
ATOM      1  C   UNL     1       4.050   5.192  18.936  0.00  0.00    +0.000 C 
ATOM      2  C   UNL     1       4.121   4.178  20.116  0.00  0.00    +0.000 C 
ATOM      3  C   UNL     1       4.606   2.805  19.637  0.00  0.00    +0.000 C 
ATOM      4  C   UNL     1       3.601   2.265  18.641  0.00  0.00    +0.000 C 
ATOM      5  O   UNL     1       3.328   1.066  18.566  0.00  0.00    +0.000 OA
ATOM      6  C   UNL     1       2.896   3.268  17.760  0.00  0.00    +0.000 C 
ATOM      7  C   UNL     1       1.413   3.219  18.047  0.00  0.00    +0.000 C 
ATOM      8  C   UNL     1       3.553   4.449  17.665  0.00  0.00    +0.000 C 
ATOM      9  C   UNL     1       4.651   4.591  16.681  0.00  0.00    +0.000 A 
ATOM     10  C   UNL     1       4.744   4.109  15.379  0.00  0.00    +0.000 A 
ATOM     11  C   UNL     1       5.882   4.423  14.612  0.00  0.00    +0.000 A 
ATOM     12  C   UNL     1       6.889   5.222  15.155  0.00  0.00    +0.000 A 
ATOM     13  C   UNL     1       6.807   5.691  16.458  0.00  0.00    +0.000 A 
ATOM     14  C   UNL     1       5.685   5.360  17.204  0.00  0.00    +0.000 A 
ATOM     15  C   UNL     1       5.485   5.709  18.638  0.00  0.00    +0.000 C 
ENDROOT
BRANCH  12  16
ATOM     16  O   UNL     1       7.996   5.566  14.441  0.00  0.00    +0.000 OA
ATOM     17  H   UNL     1       8.254   4.822  13.878  0.00  0.00    +0.000 HD
ENDBRANCH  12  16
BRANCH   1  18
ATOM     18  C   UNL     1       3.135   6.378  19.344  0.00  0.00    +0.000 C 
BRANCH  18  19
ATOM     19  C   UNL     1       2.235   6.975  18.249  0.00  0.00    +0.000 C 
BRANCH  19  21
ATOM     20  C   UNL     1       1.875   9.456  17.815  0.00  0.00    +0.000 C 
ATOM     21  C   UNL     1       2.840   8.285  17.727  0.00  0.00    +0.000 C 
ENDBRANCH  19  21
ENDBRANCH  18  19
ENDBRANCH   1  18
TORSDOF 4
ENDMDL
MODEL 5
REMARK VINA RESULT:      -7.3      2.167      4.641
REMARK  Name = 
REMARK  6 active torsions:
REMARK  status: ('A' for Active; 'I' for Inactive)
REMARK    1  A    between atoms: C_1  and  C_2
REMARK    2  A    between atoms: C_2  and  C_3
REMARK    3  A    between atoms: C_3  and  C_4
REMARK    4  A    between atoms: C_4  and  C_5
REMARK    5  A    between atoms: C_10  and  C_11
REMARK    6  A    between atoms: C_16  and  O_17
REMARK                            x       y       z     vdW  Elec       q    Type
REMARK                         _______ _______ _______ _____ _____    ______ ____
ROOT
ATOM      1  C   UNL     1       3.605   5.548  18.289  0.00  0.00    +0.000 C 
ATOM      2  C   UNL     1       3.064   4.347  17.458  0.00  0.00    +0.000 C 
ATOM      3  C   UNL     1       1.584   4.087  17.759  0.00  0.00    +0.000 C 
ATOM      4  C   UNL     1       1.453   3.715  19.222  0.00  0.00    +0.000 C 
ATOM      5  O   UNL     1       0.633   2.885  19.618  0.00  0.00    +0.000 OA
ATOM      6  C   UNL     1       2.411   4.368  20.188  0.00  0.00    +0.000 C 
ATOM      7  C   UNL     1       3.263   3.301  20.835  0.00  0.00    +0.000 C 
ATOM      8  C   UNL     1       2.962   5.508  19.704  0.00  0.00    +0.000 C 
ATOM      9  C   UNL     1       2.216   6.782  19.825  0.00  0.00    +0.000 A 
ATOM     10  C   UNL     1       1.447   7.264  20.880  0.00  0.00    +0.000 A 
ATOM     11  C   UNL     1       0.871   8.545  20.779  0.00  0.00    +0.000 A 
ATOM     12  C   UNL     1       1.090   9.319  19.638  0.00  0.00    +0.000 A 
ATOM     13  C   UNL     1       1.843   8.835  18.578  0.00  0.00    +0.000 A 
ATOM     14  C   UNL     1       2.390   7.565  18.688  0.00  0.00    +0.000 A 
ATOM     15  C   UNL     1       3.147   6.869  17.611  0.00  0.00    +0.000 C 
ENDROOT
BRANCH  12  16
ATOM     16  O   UNL     1       0.569  10.570  19.509  0.00  0.00    +0.000 OA
ATOM     17  H   UNL     1       1.009  11.163  20.134  0.00  0.00    +0.000 HD
ENDBRANCH  12  16
BRANCH   1  18
ATOM     18  C   UNL     1       5.155   5.481  18.325  0.00  0.00    +0.000 C 
BRANCH  18  19
ATOM     19  C   UNL     1       5.917   6.411  17.365  0.00  0.00    +0.000 C 
BRANCH  19  21
ATOM     20  C   UNL     1       7.829   8.056  17.696  0.00  0.00    +0.000 C 
ATOM     21  C   UNL     1       7.352   6.624  17.867  0.00  0.00    +0.000 C 
ENDBRANCH  19  21
ENDBRANCH  18  19
ENDBRANCH   1  18
TORSDOF 4
ENDMDL
MODEL 6
REMARK VINA RESULT:      -7.2      2.183      4.060
REMARK  Name = 
REMARK  6 active torsions:
REMARK  status: ('A' for Active; 'I' for Inactive)
REMARK    1  A    between atoms: C_1  and  C_2
REMARK    2  A    between atoms: C_2  and  C_3
REMARK    3  A    between atoms: C_3  and  C_4
REMARK    4  A    between atoms: C_4  and  C_5
REMARK    5  A    between atoms: C_10  and  C_11
REMARK    6  A    between atoms: C_16  and  O_17
REMARK                            x       y       z     vdW  Elec       q    Type
REMARK                         _______ _______ _______ _____ _____    ______ ____
ROOT
ATOM      1  C   UNL     1       5.803   4.863  16.153  0.00  0.00    +0.000 C 
ATOM      2  C   UNL     1       7.243   4.367  16.481  0.00  0.00    +0.000 C 
ATOM      3  C   UNL     1       7.508   4.396  17.991  0.00  0.00    +0.000 C 
ATOM      4  C   UNL     1       7.410   5.832  18.464  0.00  0.00    +0.000 C 
ATOM      5  O   UNL     1       8.133   6.282  19.354  0.00  0.00    +0.000 OA
ATOM      6  C   UNL     1       6.414   6.723  17.762  0.00  0.00    +0.000 C 
ATOM      7  C   UNL     1       7.155   7.854  17.086  0.00  0.00    +0.000 C 
ATOM      8  C   UNL     1       5.446   6.032  17.113  0.00  0.00    +0.000 C 
ATOM      9  C   UNL     1       4.260   5.564  17.866  0.00  0.00    +0.000 A 
ATOM     10  C   UNL     1       3.531   6.205  18.863  0.00  0.00    +0.000 A 
ATOM     11  C   UNL     1       2.395   5.568  19.399  0.00  0.00    +0.000 A 
ATOM     12  C   UNL     1       2.006   4.318  18.917  0.00  0.00    +0.000 A 
ATOM     13  C   UNL     1       2.739   3.669  17.934  0.00  0.00    +0.000 A 
ATOM     14  C   UNL     1       3.863   4.304  17.428  0.00  0.00    +0.000 A 
ATOM     15  C   UNL     1       4.802   3.709  16.438  0.00  0.00    +0.000 C 
ENDROOT
BRANCH  12  16
ATOM     16  O   UNL     1       0.903   3.677  19.393  0.00  0.00    +0.000 OA
ATOM     17  H   UNL     1       0.171   3.802  18.773  0.00  0.00    +0.000 HD
ENDBRANCH  12  16
BRANCH   1  18
ATOM     18  C   UNL     1       5.736   5.264  14.655  0.00  0.00    +0.000 C 
BRANCH  18  19
ATOM     19  C   UNL     1       6.438   4.335  13.650  0.00  0.00    +0.000 C 
BRANCH  19  21
ATOM     20  C   UNL     1       6.011   2.608  11.832  0.00  0.00    +0.000 C 
ATOM     21  C   UNL     1       5.400   3.655  12.748  0.00  0.00    +0.000 C 
ENDBRANCH  19  21
ENDBRANCH  18  19
ENDBRANCH   1  18
TORSDOF 4
ENDMDL
MODEL 7
REMARK VINA RESULT:      -7.2      2.261      5.413
REMARK  Name = 
REMARK  6 active torsions:
REMARK  status: ('A' for Active; 'I' for Inactive)
REMARK    1  A    between atoms: C_1  and  C_2
REMARK    2  A    between atoms: C_2  and  C_3
REMARK    3  A    between atoms: C_3  and  C_4
REMARK    4  A    between atoms: C_4  and  C_5
REMARK    5  A    between atoms: C_10  and  C_11
REMARK    6  A    between atoms: C_16  and  O_17
REMARK                            x       y       z     vdW  Elec       q    Type
REMARK                         _______ _______ _______ _____ _____    ______ ____
ROOT
ATOM      1  C   UNL     1       3.755   5.787  18.107  0.00  0.00    +0.000 C 
ATOM      2  C   UNL     1       3.909   5.375  19.601  0.00  0.00    +0.000 C 
ATOM      3  C   UNL     1       4.779   4.121  19.742  0.00  0.00    +0.000 C 
ATOM      4  C   UNL     1       4.085   2.977  19.032  0.00  0.00    +0.000 C 
ATOM      5  O   UNL     1       4.128   1.819  19.451  0.00  0.00    +0.000 OA
ATOM      6  C   UNL     1       3.283   3.317  17.799  0.00  0.00    +0.000 C 
ATOM      7  C   UNL     1       1.833   2.968  18.042  0.00  0.00    +0.000 C 
ATOM      8  C   UNL     1       3.636   4.500  17.242  0.00  0.00    +0.000 C 
ATOM      9  C   UNL     1       4.790   4.551  16.315  0.00  0.00    +0.000 A 
ATOM     10  C   UNL     1       5.178   3.648  15.330  0.00  0.00    +0.000 A 
ATOM     11  C   UNL     1       6.298   3.945  14.531  0.00  0.00    +0.000 A 
ATOM     12  C   UNL     1       6.993   5.141  14.722  0.00  0.00    +0.000 A 
ATOM     13  C   UNL     1       6.618   6.035  15.714  0.00  0.00    +0.000 A 
ATOM     14  C   UNL     1       5.521   5.720  16.502  0.00  0.00    +0.000 A 
ATOM     15  C   UNL     1       5.045   6.527  17.658  0.00  0.00    +0.000 C 
ENDROOT
BRANCH  12  16
ATOM     16  O   UNL     1       8.068   5.476  13.958  0.00  0.00    +0.000 OA
ATOM     17  H   UNL     1       8.019   5.002  13.116  0.00  0.00    +0.000 HD
ENDBRANCH  12  16
BRANCH   1  18
ATOM     18  C   UNL     1       2.528   6.729  17.966  0.00  0.00    +0.000 C 
BRANCH  18  19
ATOM     19  C   UNL     1       2.813   8.235  17.846  0.00  0.00    +0.000 C 
BRANCH  19  21
ATOM     20  C   UNL     1       1.114   9.496  19.257  0.00  0.00    +0.000 C 
ATOM     21  C   UNL     1       1.497   9.023  17.865  0.00  0.00    +0.000 C 
ENDBRANCH  19  21
ENDBRANCH  18  19
ENDBRANCH   1  18
TORSDOF 4
ENDMDL
MODEL 8
REMARK VINA RESULT:      -7.1      2.248      4.393
REMARK  Name = 
REMARK  6 active torsions:
REMARK  status: ('A' for Active; 'I' for Inactive)
REMARK    1  A    between atoms: C_1  and  C_2
REMARK    2  A    between atoms: C_2  and  C_3
REMARK    3  A    between atoms: C_3  and  C_4
REMARK    4  A    between atoms: C_4  and  C_5
REMARK    5  A    between atoms: C_10  and  C_11
REMARK    6  A    between atoms: C_16  and  O_17
REMARK                            x       y       z     vdW  Elec       q    Type
REMARK                         _______ _______ _______ _____ _____    ______ ____
ROOT
ATOM      1  C   UNL     1       3.631   5.744  18.398  0.00  0.00    +0.000 C 
ATOM      2  C   UNL     1       3.112   4.497  17.621  0.00  0.00    +0.000 C 
ATOM      3  C   UNL     1       1.608   4.297  17.837  0.00  0.00    +0.000 C 
ATOM      4  C   UNL     1       1.367   4.040  19.310  0.00  0.00    +0.000 C 
ATOM      5  O   UNL     1       0.498   3.263  19.708  0.00  0.00    +0.000 OA
ATOM      6  C   UNL     1       2.276   4.741  20.290  0.00  0.00    +0.000 C 
ATOM      7  C   UNL     1       3.051   3.705  21.072  0.00  0.00    +0.000 C 
ATOM      8  C   UNL     1       2.892   5.826  19.763  0.00  0.00    +0.000 C 
ATOM      9  C   UNL     1       2.178   7.124  19.737  0.00  0.00    +0.000 A 
ATOM     10  C   UNL     1       1.354   7.703  20.697  0.00  0.00    +0.000 A 
ATOM     11  C   UNL     1       0.825   8.987  20.462  0.00  0.00    +0.000 A 
ATOM     12  C   UNL     1       1.144   9.666  19.285  0.00  0.00    +0.000 A 
ATOM     13  C   UNL     1       1.952   9.085  18.319  0.00  0.00    +0.000 A 
ATOM     14  C   UNL     1       2.453   7.814  18.561  0.00  0.00    +0.000 A 
ATOM     15  C   UNL     1       3.259   7.021  17.594  0.00  0.00    +0.000 C 
ENDROOT
BRANCH  12  16
ATOM     16  O   UNL     1       0.670  10.917  19.028  0.00  0.00    +0.000 OA
ATOM     17  H   UNL     1       0.950  11.186  18.142  0.00  0.00    +0.000 HD
ENDBRANCH  12  16
BRANCH   1  18
ATOM     18  C   UNL     1       5.173   5.642  18.546  0.00  0.00    +0.000 C 
BRANCH  18  19
ATOM     19  C   UNL     1       5.840   4.353  18.037  0.00  0.00    +0.000 C 
BRANCH  19  21
ATOM     20  C   UNL     1       6.858   4.558  15.714  0.00  0.00    +0.000 C 
ATOM     21  C   UNL     1       7.086   4.698  17.210  0.00  0.00    +0.000 C 
ENDBRANCH  19  21
ENDBRANCH  18  19
ENDBRANCH   1  18
TORSDOF 4
ENDMDL
MODEL 9
REMARK VINA RESULT:      -7.1      2.288      5.317
REMARK  Name = 
REMARK  6 active torsions:
REMARK  status: ('A' for Active; 'I' for Inactive)
REMARK    1  A    between atoms: C_1  and  C_2
REMARK    2  A    between atoms: C_2  and  C_3
REMARK    3  A    between atoms: C_3  and  C_4
REMARK    4  A    between atoms: C_4  and  C_5
REMARK    5  A    between atoms: C_10  and  C_11
REMARK    6  A    between atoms: C_16  and  O_17
REMARK                            x       y       z     vdW  Elec       q    Type
REMARK                         _______ _______ _______ _____ _____    ______ ____
ROOT
ATOM      1  C   UNL     1       4.039   5.547  18.374  0.00  0.00    +0.000 C 
ATOM      2  C   UNL     1       4.091   4.742  19.707  0.00  0.00    +0.000 C 
ATOM      3  C   UNL     1       4.672   3.341  19.484  0.00  0.00    +0.000 C 
ATOM      4  C   UNL     1       3.754   2.588  18.543  0.00  0.00    +0.000 C 
ATOM      5  O   UNL     1       3.546   1.379  18.654  0.00  0.00    +0.000 OA
ATOM      6  C   UNL     1       3.052   3.393  17.476  0.00  0.00    +0.000 C 
ATOM      7  C   UNL     1       1.559   3.303  17.693  0.00  0.00    +0.000 C 
ATOM      8  C   UNL     1       3.653   4.580  17.220  0.00  0.00    +0.000 C 
ATOM      9  C   UNL     1       4.798   4.625  16.281  0.00  0.00    +0.000 A 
ATOM     10  C   UNL     1       4.991   3.946  15.082  0.00  0.00    +0.000 A 
ATOM     11  C   UNL     1       6.154   4.198  14.330  0.00  0.00    +0.000 A 
ATOM     12  C   UNL     1       7.087   5.132  14.784  0.00  0.00    +0.000 A 
ATOM     13  C   UNL     1       6.905   5.800  15.986  0.00  0.00    +0.000 A 
ATOM     14  C   UNL     1       5.761   5.528  16.721  0.00  0.00    +0.000 A 
ATOM     15  C   UNL     1       5.460   6.092  18.065  0.00  0.00    +0.000 C 
ENDROOT
BRANCH  12  16
ATOM     16  O   UNL     1       8.215   5.421  14.077  0.00  0.00    +0.000 OA
ATOM     17  H   UNL     1       8.987   5.290  14.645  0.00  0.00    +0.000 HD
ENDBRANCH  12  16
BRANCH   1  18
ATOM     18  C   UNL     1       3.043   6.727  18.536  0.00  0.00    +0.000 C 
BRANCH  18  19
ATOM     19  C   UNL     1       2.243   6.792  19.848  0.00  0.00    +0.000 C 
BRANCH  19  21
ATOM     20  C   UNL     1       1.113   8.410  21.453  0.00  0.00    +0.000 C 
ATOM     21  C   UNL     1       1.714   8.215  20.072  0.00  0.00    +0.000 C 
ENDBRANCH  19  21
ENDBRANCH  18  19
ENDBRANCH   1  18
TORSDOF 4
ENDMDL
