MODEL 1
REMARK VINA RESULT:      -7.7      0.000      0.000
REMARK  Name = 
REMARK  9 active torsions:
REMARK  status: ('A' for Active; 'I' for Inactive)
REMARK    1  A    between atoms: O_1  and  C_2
REMARK    2  A    between atoms: C_6  and  C_7
REMARK    3  A    between atoms: C_7  and  C_8
REMARK    4  A    between atoms: C_8  and  N_9
REMARK    5  A    between atoms: N_9  and  C_10
REMARK    6  A    between atoms: N_9  and  C_18
REMARK    7  A    between atoms: C_10  and  C_11
REMARK    8  A    between atoms: C_11  and  C_12
REMARK    9  A    between atoms: C_18  and  C_19
REMARK                            x       y       z     vdW  Elec       q    Type
REMARK                         _______ _______ _______ _____ _____    ______ ____
ROOT
ATOM      1  N   UNL     1       5.060   4.570  17.343  0.00  0.00    +0.000 NA
ENDROOT
BRANCH   1   2
ATOM      2  C   UNL     1       4.118   3.557  16.766  0.00  0.00    +0.000 C 
BRANCH   2   3
ATOM      3  C   UNL     1       3.773   2.314  17.620  0.00  0.00    +0.000 C 
BRANCH   3   8
ATOM      4  C   UNL     1       2.173   2.795  21.076  0.00  0.00    +0.000 A 
ATOM      5  C   UNL     1       0.835   3.035  20.715  0.00  0.00    +0.000 A 
ATOM      6  C   UNL     1       0.458   3.009  19.372  0.00  0.00    +0.000 A 
ATOM      7  C   UNL     1       1.407   2.747  18.380  0.00  0.00    +0.000 A 
ATOM      8  C   UNL     1       2.748   2.503  18.720  0.00  0.00    +0.000 A 
ATOM      9  C   UNL     1       3.122   2.524  20.077  0.00  0.00    +0.000 A 
BRANCH   4  10
ATOM     10  O   UNL     1       2.545   2.829  22.372  0.00  0.00    +0.000 OA
ATOM     11  H   UNL     1       2.413   3.614  22.926  0.00  0.00    +0.000 HD
ENDBRANCH   4  10
ENDBRANCH   3   8
ENDBRANCH   2   3
ENDBRANCH   1   2
BRANCH   1  12
ATOM     12  C   UNL     1       6.442   4.375  16.820  0.00  0.00    +0.000 C 
BRANCH  12  13
ATOM     13  C   UNL     1       6.880   5.444  15.792  0.00  0.00    +0.000 C 
BRANCH  13  14
ATOM     14  C   UNL     1       6.868   4.894  14.379  0.00  0.00    +0.000 A 
ATOM     15  C   UNL     1       5.967   3.870  14.026  0.00  0.00    +0.000 A 
ATOM     16  C   UNL     1       5.953   3.355  12.725  0.00  0.00    +0.000 A 
ATOM     17  C   UNL     1       6.835   3.855  11.764  0.00  0.00    +0.000 A 
ATOM     18  C   UNL     1       7.730   4.873  12.102  0.00  0.00    +0.000 A 
ATOM     19  C   UNL     1       7.749   5.393  13.402  0.00  0.00    +0.000 A 
ENDBRANCH  13  14
ENDBRANCH  12  13
ENDBRANCH   1  12
BRANCH   1  20
ATOM     20  C   UNL     1       4.591   5.961  17.014  0.00  0.00    +0.000 C 
BRANCH  20  21
ATOM     21  C   UNL     1       3.386   6.447  17.855  0.00  0.00    +0.000 C 
ATOM     22  C   UNL     1       3.168   7.974  17.784  0.00  0.00    +0.000 C 
ATOM     23  C   UNL     1       1.846   8.316  18.497  0.00  0.00    +0.000 C 
ATOM     24  C   UNL     1       1.870   7.843  19.960  0.00  0.00    +0.000 C 
ATOM     25  C   UNL     1       2.206   6.348  20.058  0.00  0.00    +0.000 C 
ATOM     26  C   UNL     1       3.520   6.034  19.334  0.00  0.00    +0.000 C 
ENDBRANCH  20  21
ENDBRANCH   1  20
TORSDOF 9
ENDMDL
MODEL 2
REMARK VINA RESULT:      -7.6      2.039      4.448
REMARK  Name = 
REMARK  9 active torsions:
REMARK  status: ('A' for Active; 'I' for Inactive)
REMARK    1  A    between atoms: O_1  and  C_2
REMARK    2  A    between atoms: C_6  and  C_7
REMARK    3  A    between atoms: C_7  and  C_8
REMARK    4  A    between atoms: C_8  and  N_9
REMARK    5  A    between atoms: N_9  and  C_10
REMARK    6  A    between atoms: N_9  and  C_18
REMARK    7  A    between atoms: C_10  and  C_11
REMARK    8  A    between atoms: C_11  and  C_12
REMARK    9  A    between atoms: C_18  and  C_19
REMARK                            x       y       z     vdW  Elec       q    Type
REMARK                         _______ _______ _______ _____ _____    ______ ____
ROOT
ATOM      1  N   UNL     1       4.317   4.976  16.963  0.00  0.00    +0.000 NA
ENDROOT
BRANCH   1   2
ATOM      2  C   UNL     1       4.106   6.117  17.912  0.00  0.00    +0.000 C 
BRANCH   2   3
ATOM      3  C   UNL     1       3.237   7.306  17.438  0.00  0.00    +0.000 C 
BRANCH   3   8
ATOM      4  C   UNL     1       0.922   9.825  19.181  0.00  0.00    +0.000 A 
ATOM      5  C   UNL     1       0.764   9.211  20.436  0.00  0.00    +0.000 A 
ATOM      6  C   UNL     1       1.425   8.015  20.718  0.00  0.00    +0.000 A 
ATOM      7  C   UNL     1       2.245   7.421  19.755  0.00  0.00    +0.000 A 
ATOM      8  C   UNL     1       2.417   8.018  18.495  0.00  0.00    +0.000 A 
ATOM      9  C   UNL     1       1.753   9.229  18.218  0.00  0.00    +0.000 A 
BRANCH   4  10
ATOM     10  O   UNL     1       0.278  10.976  18.900  0.00  0.00    +0.000 OA
ATOM     11  H   UNL     1       0.609  11.837  19.196  0.00  0.00    +0.000 HD
ENDBRANCH   4  10
ENDBRANCH   3   8
ENDBRANCH   2   3
ENDBRANCH   1   2
BRANCH   1  12
ATOM     12  C   UNL     1       5.718   4.472  17.037  0.00  0.00    +0.000 C 
BRANCH  12  13
ATOM     13  C   UNL     1       6.732   5.314  16.230  0.00  0.00    +0.000 C 
BRANCH  13  14
ATOM     14  C   UNL     1       6.792   4.873  14.780  0.00  0.00    +0.000 A 
ATOM     15  C   UNL     1       7.672   5.508  13.883  0.00  0.00    +0.000 A 
ATOM     16  C   UNL     1       7.730   5.109  12.543  0.00  0.00    +0.000 A 
ATOM     17  C   UNL     1       6.912   4.074  12.085  0.00  0.00    +0.000 A 
ATOM     18  C   UNL     1       6.038   3.434  12.967  0.00  0.00    +0.000 A 
ATOM     19  C   UNL     1       5.976   3.829  14.309  0.00  0.00    +0.000 A 
ENDBRANCH  13  14
ENDBRANCH  12  13
ENDBRANCH   1  12
BRANCH   1  20
ATOM     20  C   UNL     1       3.364   3.855  17.278  0.00  0.00    +0.000 C 
BRANCH  20  21
ATOM     21  C   UNL     1       2.860   3.835  18.742  0.00  0.00    +0.000 C 
ATOM     22  C   UNL     1       3.336   2.598  19.534  0.00  0.00    +0.000 C 
ATOM     23  C   UNL     1       2.937   2.776  21.011  0.00  0.00    +0.000 C 
ATOM     24  C   UNL     1       1.416   2.954  21.154  0.00  0.00    +0.000 C 
ATOM     25  C   UNL     1       0.904   4.106  20.277  0.00  0.00    +0.000 C 
ATOM     26  C   UNL     1       1.321   3.908  18.815  0.00  0.00    +0.000 C 
ENDBRANCH  20  21
ENDBRANCH   1  20
TORSDOF 9
ENDMDL
MODEL 3
REMARK VINA RESULT:      -7.6      2.058      4.250
REMARK  Name = 
REMARK  9 active torsions:
REMARK  status: ('A' for Active; 'I' for Inactive)
REMARK    1  A    between atoms: O_1  and  C_2
REMARK    2  A    between atoms: C_6  and  C_7
REMARK    3  A    between atoms: C_7  and  C_8
REMARK    4  A    between atoms: C_8  and  N_9
REMARK    5  A    between atoms: N_9  and  C_10
REMARK    6  A    between atoms: N_9  and  C_18
REMARK    7  A    between atoms: C_10  and  C_11
REMARK    8  A    between atoms: C_11  and  C_12
REMARK    9  A    between atoms: C_18  and  C_19
REMARK                            x       y       z     vdW  Elec       q    Type
REMARK                         _______ _______ _______ _____ _____    ______ ____
ROOT
ATOM      1  N   UNL     1       5.038   4.692  17.780  0.00  0.00    +0.000 NA
ENDROOT
BRANCH   1   2
ATOM      2  C   UNL     1       4.797   6.134  18.111  0.00  0.00    +0.000 C 
BRANCH   2   3
ATOM      3  C   UNL     1       3.613   6.852  17.421  0.00  0.00    +0.000 C 
BRANCH   3   8
ATOM      4  C   UNL     1       1.275   9.652  18.617  0.00  0.00    +0.000 A 
ATOM      5  C   UNL     1       0.961   9.197  19.911  0.00  0.00    +0.000 A 
ATOM      6  C   UNL     1       1.526   8.016  20.393  0.00  0.00    +0.000 A 
ATOM      7  C   UNL     1       2.405   7.279  19.594  0.00  0.00    +0.000 A 
ATOM      8  C   UNL     1       2.732   7.717  18.300  0.00  0.00    +0.000 A 
ATOM      9  C   UNL     1       2.164   8.913  17.820  0.00  0.00    +0.000 A 
BRANCH   4  10
ATOM     10  O   UNL     1       0.724  10.787  18.142  0.00  0.00    +0.000 OA
ATOM     11  H   UNL     1      -0.223  10.976  18.229  0.00  0.00    +0.000 HD
ENDBRANCH   4  10
ENDBRANCH   3   8
ENDBRANCH   2   3
ENDBRANCH   1   2
BRANCH   1  12
ATOM     12  C   UNL     1       6.361   4.508  17.118  0.00  0.00    +0.000 C 
BRANCH  12  13
ATOM     13  C   UNL     1       6.667   5.557  16.025  0.00  0.00    +0.000 C 
BRANCH  13  14
ATOM     14  C   UNL     1       6.634   4.941  14.639  0.00  0.00    +0.000 A 
ATOM     15  C   UNL     1       5.607   4.043  14.289  0.00  0.00    +0.000 A 
ATOM     16  C   UNL     1       5.572   3.468  13.013  0.00  0.00    +0.000 A 
ATOM     17  C   UNL     1       6.558   3.783  12.076  0.00  0.00    +0.000 A 
ATOM     18  C   UNL     1       7.579   4.676  12.411  0.00  0.00    +0.000 A 
ATOM     19  C   UNL     1       7.619   5.255  13.685  0.00  0.00    +0.000 A 
ENDBRANCH  13  14
ENDBRANCH  12  13
ENDBRANCH   1  12
BRANCH   1  20
ATOM     20  C   UNL     1       4.982   3.856  19.029  0.00  0.00    +0.000 C 
BRANCH  20  21
ATOM     21  C   UNL     1       3.593   3.242  19.329  0.00  0.00    +0.000 C 
ATOM     22  C   UNL     1       2.618   3.325  18.135  0.00  0.00    +0.000 C 
ATOM     23  C   UNL     1       1.348   2.526  18.480  0.00  0.00    +0.000 C 
ATOM     24  C   UNL     1       0.683   3.069  19.756  0.00  0.00    +0.000 C 
ATOM     25  C   UNL     1       1.674   3.108  20.928  0.00  0.00    +0.000 C 
ATOM     26  C   UNL     1       2.931   3.903  20.555  0.00  0.00    +0.000 C 
ENDBRANCH  20  21
ENDBRANCH   1  20
TORSDOF 9
ENDMDL
MODEL 4
REMARK VINA RESULT:      -7.6      0.723      6.054
REMARK  Name = 
REMARK  9 active torsions:
REMARK  status: ('A' for Active; 'I' for Inactive)
REMARK    1  A    between atoms: O_1  and  C_2
REMARK    2  A    between atoms: C_6  and  C_7
REMARK    3  A    between atoms: C_7  and  C_8
REMARK    4  A    between atoms: C_8  and  N_9
REMARK    5  A    between atoms: N_9  and  C_10
REMARK    6  A    between atoms: N_9  and  C_18
REMARK    7  A    between atoms: C_10  and  C_11
REMARK    8  A    between atoms: C_11  and  C_12
REMARK    9  A    between atoms: C_18  and  C_19
REMARK                            x       y       z     vdW  Elec       q    Type
REMARK                         _______ _______ _______ _____ _____    ______ ____
ROOT
ATOM      1  N   UNL     1       4.969   5.342  16.600  0.00  0.00    +0.000 NA
ENDROOT
BRANCH   1   2
ATOM      2  C   UNL     1       4.821   4.104  17.431  0.00  0.00    +0.000 C 
BRANCH   2   3
ATOM      3  C   UNL     1       3.532   3.266  17.265  0.00  0.00    +0.000 C 
BRANCH   3   8
ATOM      4  C   UNL     1       2.431   2.702  20.899  0.00  0.00    +0.000 A 
ATOM      5  C   UNL     1       1.048   2.936  20.794  0.00  0.00    +0.000 A 
ATOM      6  C   UNL     1       0.483   3.242  19.555  0.00  0.00    +0.000 A 
ATOM      7  C   UNL     1       1.287   3.318  18.415  0.00  0.00    +0.000 A 
ATOM      8  C   UNL     1       2.670   3.086  18.498  0.00  0.00    +0.000 A 
ATOM      9  C   UNL     1       3.234   2.772  19.750  0.00  0.00    +0.000 A 
BRANCH   4  10
ATOM     10  O   UNL     1       2.983   2.416  22.095  0.00  0.00    +0.000 OA
ATOM     11  H   UNL     1       2.881   1.550  22.517  0.00  0.00    +0.000 HD
ENDBRANCH   4  10
ENDBRANCH   3   8
ENDBRANCH   2   3
ENDBRANCH   1   2
BRANCH   1  12
ATOM     12  C   UNL     1       4.790   6.568  17.429  0.00  0.00    +0.000 C 
BRANCH  12  13
ATOM     13  C   UNL     1       3.460   7.312  17.170  0.00  0.00    +0.000 C 
BRANCH  13  14
ATOM     14  C   UNL     1       2.674   7.507  18.452  0.00  0.00    +0.000 A 
ATOM     15  C   UNL     1       2.656   6.495  19.432  0.00  0.00    +0.000 A 
ATOM     16  C   UNL     1       1.930   6.665  20.615  0.00  0.00    +0.000 A 
ATOM     17  C   UNL     1       1.215   7.845  20.834  0.00  0.00    +0.000 A 
ATOM     18  C   UNL     1       1.227   8.857  19.871  0.00  0.00    +0.000 A 
ATOM     19  C   UNL     1       1.953   8.692  18.685  0.00  0.00    +0.000 A 
ENDBRANCH  13  14
ENDBRANCH  12  13
ENDBRANCH   1  12
BRANCH   1  20
ATOM     20  C   UNL     1       6.325   5.372  15.949  0.00  0.00    +0.000 C 
BRANCH  20  21
ATOM     21  C   UNL     1       6.317   5.050  14.434  0.00  0.00    +0.000 C 
ATOM     22  C   UNL     1       5.870   3.606  14.119  0.00  0.00    +0.000 C 
ATOM     23  C   UNL     1       5.720   3.460  12.593  0.00  0.00    +0.000 C 
ATOM     24  C   UNL     1       7.041   3.784  11.875  0.00  0.00    +0.000 C 
ATOM     25  C   UNL     1       7.566   5.172  12.270  0.00  0.00    +0.000 C 
ATOM     26  C   UNL     1       7.698   5.293  13.793  0.00  0.00    +0.000 C 
ENDBRANCH  20  21
ENDBRANCH   1  20
TORSDOF 9
ENDMDL
MODEL 5
REMARK VINA RESULT:      -7.5      2.482      6.940
REMARK  Name = 
REMARK  9 active torsions:
REMARK  status: ('A' for Active; 'I' for Inactive)
REMARK    1  A    between atoms: O_1  and  C_2
REMARK    2  A    between atoms: C_6  and  C_7
REMARK    3  A    between atoms: C_7  and  C_8
REMARK    4  A    between atoms: C_8  and  N_9
REMARK    5  A    between atoms: N_9  and  C_10
REMARK    6  A    between atoms: N_9  and  C_18
REMARK    7  A    between atoms: C_10  and  C_11
REMARK    8  A    between atoms: C_11  and  C_12
REMARK    9  A    between atoms: C_18  and  C_19
REMARK                            x       y       z     vdW  Elec       q    Type
REMARK                         _______ _______ _______ _____ _____    ______ ____
ROOT
ATOM      1  N   UNL     1       2.632   7.427  17.998  0.00  0.00    +0.000 NA
ENDROOT
BRANCH   1   2
ATOM      2  C   UNL     1       2.918   6.821  19.338  0.00  0.00    +0.000 C 
BRANCH   2   3
ATOM      3  C   UNL     1       2.149   5.539  19.736  0.00  0.00    +0.000 C 
BRANCH   3   8
ATOM      4  C   UNL     1       4.123   2.267  19.362  0.00  0.00    +0.000 A 
ATOM      5  C   UNL     1       3.499   1.712  18.231  0.00  0.00    +0.000 A 
ATOM      6  C   UNL     1       2.476   2.406  17.585  0.00  0.00    +0.000 A 
ATOM      7  C   UNL     1       2.065   3.655  18.060  0.00  0.00    +0.000 A 
ATOM      8  C   UNL     1       2.676   4.228  19.187  0.00  0.00    +0.000 A 
ATOM      9  C   UNL     1       3.713   3.525  19.832  0.00  0.00    +0.000 A 
BRANCH   4  10
ATOM     10  O   UNL     1       5.105   1.596  19.996  0.00  0.00    +0.000 OA
ATOM     11  H   UNL     1       5.980   1.985  20.150  0.00  0.00    +0.000 HD
ENDBRANCH   4  10
ENDBRANCH   3   8
ENDBRANCH   2   3
ENDBRANCH   1   2
BRANCH   1  12
ATOM     12  C   UNL     1       2.036   8.786  18.141  0.00  0.00    +0.000 C 
BRANCH  12  13
ATOM     13  C   UNL     1       1.287   9.005  19.475  0.00  0.00    +0.000 C 
BRANCH  13  14
ATOM     14  C   UNL     1       0.130   9.972  19.311  0.00  0.00    +0.000 A 
ATOM     15  C   UNL     1      -0.603  10.000  18.108  0.00  0.00    +0.000 A 
ATOM     16  C   UNL     1      -1.669  10.892  17.947  0.00  0.00    +0.000 A 
ATOM     17  C   UNL     1      -2.015  11.762  18.983  0.00  0.00    +0.000 A 
ATOM     18  C   UNL     1      -1.299  11.741  20.181  0.00  0.00    +0.000 A 
ATOM     19  C   UNL     1      -0.231  10.850  20.348  0.00  0.00    +0.000 A 
ENDBRANCH  13  14
ENDBRANCH  12  13
ENDBRANCH   1  12
BRANCH   1  20
ATOM     20  C   UNL     1       3.897   7.518  17.187  0.00  0.00    +0.000 C 
BRANCH  20  21
ATOM     21  C   UNL     1       4.887   6.349  17.411  0.00  0.00    +0.000 C 
ATOM     22  C   UNL     1       6.331   6.818  17.692  0.00  0.00    +0.000 C 
ATOM     23  C   UNL     1       7.178   5.592  18.081  0.00  0.00    +0.000 C 
ATOM     24  C   UNL     1       7.164   4.535  16.965  0.00  0.00    +0.000 C 
ATOM     25  C   UNL     1       5.728   4.143  16.584  0.00  0.00    +0.000 C 
ATOM     26  C   UNL     1       4.905   5.382  16.210  0.00  0.00    +0.000 C 
ENDBRANCH  20  21
ENDBRANCH   1  20
TORSDOF 9
ENDMDL
MODEL 6
REMARK VINA RESULT:      -7.5      2.515      6.983
REMARK  Name = 
REMARK  9 active torsions:
REMARK  status: ('A' for Active; 'I' for Inactive)
REMARK    1  A    between atoms: O_1  and  C_2
REMARK    2  A    between atoms: C_6  and  C_7
REMARK    3  A    between atoms: C_7  and  C_8
REMARK    4  A    between atoms: C_8  and  N_9
REMARK    5  A    between atoms: N_9  and  C_10
REMARK    6  A    between atoms: N_9  and  C_18
REMARK    7  A    between atoms: C_10  and  C_11
REMARK    8  A    between atoms: C_11  and  C_12
REMARK    9  A    between atoms: C_18  and  C_19
REMARK                            x       y       z     vdW  Elec       q    Type
REMARK                         _______ _______ _______ _____ _____    ______ ____
ROOT
ATOM      1  N   UNL     1       2.799   7.602  17.928  0.00  0.00    +0.000 NA
ENDROOT
BRANCH   1   2
ATOM      2  C   UNL     1       3.054   6.781  19.155  0.00  0.00    +0.000 C 
BRANCH   2   3
ATOM      3  C   UNL     1       2.135   5.565  19.421  0.00  0.00    +0.000 C 
BRANCH   3   8
ATOM      4  C   UNL     1       4.121   2.279  19.407  0.00  0.00    +0.000 A 
ATOM      5  C   UNL     1       3.503   1.603  18.340  0.00  0.00    +0.000 A 
ATOM      6  C   UNL     1       2.479   2.220  17.620  0.00  0.00    +0.000 A 
ATOM      7  C   UNL     1       2.063   3.511  17.956  0.00  0.00    +0.000 A 
ATOM      8  C   UNL     1       2.668   4.204  19.018  0.00  0.00    +0.000 A 
ATOM      9  C   UNL     1       3.705   3.579  19.737  0.00  0.00    +0.000 A 
BRANCH   4  10
ATOM     10  O   UNL     1       5.103   1.684  20.113  0.00  0.00    +0.000 OA
ATOM     11  H   UNL     1       5.398   0.780  19.924  0.00  0.00    +0.000 HD
ENDBRANCH   4  10
ENDBRANCH   3   8
ENDBRANCH   2   3
ENDBRANCH   1   2
BRANCH   1  12
ATOM     12  C   UNL     1       2.446   9.006  18.287  0.00  0.00    +0.000 C 
BRANCH  12  13
ATOM     13  C   UNL     1       0.925   9.271  18.363  0.00  0.00    +0.000 C 
BRANCH  13  14
ATOM     14  C   UNL     1       0.504   9.690  19.759  0.00  0.00    +0.000 A 
ATOM     15  C   UNL     1       0.729   8.833  20.854  0.00  0.00    +0.000 A 
ATOM     16  C   UNL     1       0.340   9.211  22.143  0.00  0.00    +0.000 A 
ATOM     17  C   UNL     1      -0.278  10.446  22.354  0.00  0.00    +0.000 A 
ATOM     18  C   UNL     1      -0.504  11.306  21.276  0.00  0.00    +0.000 A 
ATOM     19  C   UNL     1      -0.115  10.933  19.984  0.00  0.00    +0.000 A 
ENDBRANCH  13  14
ENDBRANCH  12  13
ENDBRANCH   1  12
BRANCH   1  20
ATOM     20  C   UNL     1       4.015   7.603  17.041  0.00  0.00    +0.000 C 
BRANCH  20  21
ATOM     21  C   UNL     1       5.015   6.457  17.325  0.00  0.00    +0.000 C 
ATOM     22  C   UNL     1       6.475   6.940  17.460  0.00  0.00    +0.000 C 
ATOM     23  C   UNL     1       7.345   5.756  17.923  0.00  0.00    +0.000 C 
ATOM     24  C   UNL     1       7.256   4.585  16.930  0.00  0.00    +0.000 C 
ATOM     25  C   UNL     1       5.798   4.167  16.689  0.00  0.00    +0.000 C 
ATOM     26  C   UNL     1       4.954   5.365  16.237  0.00  0.00    +0.000 C 
ENDBRANCH  20  21
ENDBRANCH   1  20
TORSDOF 9
ENDMDL
MODEL 7
REMARK VINA RESULT:      -7.5      2.717      5.943
REMARK  Name = 
REMARK  9 active torsions:
REMARK  status: ('A' for Active; 'I' for Inactive)
REMARK    1  A    between atoms: O_1  and  C_2
REMARK    2  A    between atoms: C_6  and  C_7
REMARK    3  A    between atoms: C_7  and  C_8
REMARK    4  A    between atoms: C_8  and  N_9
REMARK    5  A    between atoms: N_9  and  C_10
REMARK    6  A    between atoms: N_9  and  C_18
REMARK    7  A    between atoms: C_10  and  C_11
REMARK    8  A    between atoms: C_11  and  C_12
REMARK    9  A    between atoms: C_18  and  C_19
REMARK                            x       y       z     vdW  Elec       q    Type
REMARK                         _______ _______ _______ _____ _____    ______ ____
ROOT
ATOM      1  N   UNL     1       1.550   7.057  20.253  0.00  0.00    +0.000 NA
ENDROOT
BRANCH   1   2
ATOM      2  C   UNL     1       2.541   7.478  19.210  0.00  0.00    +0.000 C 
BRANCH   2   3
ATOM      3  C   UNL     1       2.772   6.538  18.003  0.00  0.00    +0.000 C 
BRANCH   3   8
ATOM      4  C   UNL     1       6.266   5.224  18.898  0.00  0.00    +0.000 A 
ATOM      5  C   UNL     1       6.566   4.470  17.749  0.00  0.00    +0.000 A 
ATOM      6  C   UNL     1       5.657   4.418  16.691  0.00  0.00    +0.000 A 
ATOM      7  C   UNL     1       4.447   5.112  16.768  0.00  0.00    +0.000 A 
ATOM      8  C   UNL     1       4.130   5.871  17.906  0.00  0.00    +0.000 A 
ATOM      9  C   UNL     1       5.052   5.926  18.968  0.00  0.00    +0.000 A 
BRANCH   4  10
ATOM     10  O   UNL     1       7.135   5.269  19.927  0.00  0.00    +0.000 OA
ATOM     11  H   UNL     1       7.386   6.103  20.354  0.00  0.00    +0.000 HD
ENDBRANCH   4  10
ENDBRANCH   3   8
ENDBRANCH   2   3
ENDBRANCH   1   2
BRANCH   1  12
ATOM     12  C   UNL     1       1.954   5.769  20.885  0.00  0.00    +0.000 C 
BRANCH  12  13
ATOM     13  C   UNL     1       1.118   4.554  20.423  0.00  0.00    +0.000 C 
BRANCH  13  14
ATOM     14  C   UNL     1       1.963   3.558  19.653  0.00  0.00    +0.000 A 
ATOM     15  C   UNL     1       3.166   3.075  20.205  0.00  0.00    +0.000 A 
ATOM     16  C   UNL     1       3.954   2.159  19.499  0.00  0.00    +0.000 A 
ATOM     17  C   UNL     1       3.550   1.715  18.238  0.00  0.00    +0.000 A 
ATOM     18  C   UNL     1       2.357   2.184  17.682  0.00  0.00    +0.000 A 
ATOM     19  C   UNL     1       1.565   3.100  18.384  0.00  0.00    +0.000 A 
ENDBRANCH  13  14
ENDBRANCH  12  13
ENDBRANCH   1  12
BRANCH   1  20
ATOM     20  C   UNL     1       1.428   8.118  21.312  0.00  0.00    +0.000 C 
BRANCH  20  21
ATOM     21  C   UNL     1       0.277   9.126  21.080  0.00  0.00    +0.000 C 
ATOM     22  C   UNL     1       0.358   9.843  19.715  0.00  0.00    +0.000 C 
ATOM     23  C   UNL     1      -0.925  10.671  19.517  0.00  0.00    +0.000 C 
ATOM     24  C   UNL     1      -1.102  11.694  20.652  0.00  0.00    +0.000 C 
ATOM     25  C   UNL     1      -1.064  11.014  22.028  0.00  0.00    +0.000 C 
ATOM     26  C   UNL     1       0.218  10.190  22.195  0.00  0.00    +0.000 C 
ENDBRANCH  20  21
ENDBRANCH   1  20
TORSDOF 9
ENDMDL
MODEL 8
REMARK VINA RESULT:      -7.4      2.353      7.224
REMARK  Name = 
REMARK  9 active torsions:
REMARK  status: ('A' for Active; 'I' for Inactive)
REMARK    1  A    between atoms: O_1  and  C_2
REMARK    2  A    between atoms: C_6  and  C_7
REMARK    3  A    between atoms: C_7  and  C_8
REMARK    4  A    between atoms: C_8  and  N_9
REMARK    5  A    between atoms: N_9  and  C_10
REMARK    6  A    between atoms: N_9  and  C_18
REMARK    7  A    between atoms: C_10  and  C_11
REMARK    8  A    between atoms: C_11  and  C_12
REMARK    9  A    between atoms: C_18  and  C_19
REMARK                            x       y       z     vdW  Elec       q    Type
REMARK                         _______ _______ _______ _____ _____    ______ ____
ROOT
ATOM      1  N   UNL     1       4.971   4.613  17.931  0.00  0.00    +0.000 NA
ENDROOT
BRANCH   1   2
ATOM      2  C   UNL     1       4.860   4.755  16.443  0.00  0.00    +0.000 C 
BRANCH   2   3
ATOM      3  C   UNL     1       6.012   5.464  15.691  0.00  0.00    +0.000 C 
BRANCH   3   8
ATOM      4  C   UNL     1       5.993   3.419  12.442  0.00  0.00    +0.000 A 
ATOM      5  C   UNL     1       7.135   3.933  11.802  0.00  0.00    +0.000 A 
ATOM      6  C   UNL     1       7.912   4.906  12.432  0.00  0.00    +0.000 A 
ATOM      7  C   UNL     1       7.559   5.374  13.700  0.00  0.00    +0.000 A 
ATOM      8  C   UNL     1       6.424   4.872  14.358  0.00  0.00    +0.000 A 
ATOM      9  C   UNL     1       5.647   3.886  13.720  0.00  0.00    +0.000 A 
BRANCH   4  10
ATOM     10  O   UNL     1       5.233   2.486  11.834  0.00  0.00    +0.000 OA
ATOM     11  H   UNL     1       5.588   1.624  11.569  0.00  0.00    +0.000 HD
ENDBRANCH   4  10
ENDBRANCH   3   8
ENDBRANCH   2   3
ENDBRANCH   1   2
BRANCH   1  12
ATOM     12  C   UNL     1       4.320   5.759  18.628  0.00  0.00    +0.000 C 
BRANCH  12  13
ATOM     13  C   UNL     1       3.466   6.653  17.701  0.00  0.00    +0.000 C 
BRANCH  13  14
ATOM     14  C   UNL     1       2.561   7.574  18.497  0.00  0.00    +0.000 A 
ATOM     15  C   UNL     1       2.009   8.721  17.892  0.00  0.00    +0.000 A 
ATOM     16  C   UNL     1       1.177   9.577  18.621  0.00  0.00    +0.000 A 
ATOM     17  C   UNL     1       0.886   9.299  19.958  0.00  0.00    +0.000 A 
ATOM     18  C   UNL     1       1.425   8.163  20.568  0.00  0.00    +0.000 A 
ATOM     19  C   UNL     1       2.258   7.302  19.843  0.00  0.00    +0.000 A 
ENDBRANCH  13  14
ENDBRANCH  12  13
ENDBRANCH   1  12
BRANCH   1  20
ATOM     20  C   UNL     1       4.333   3.326  18.379  0.00  0.00    +0.000 C 
BRANCH  20  21
ATOM     21  C   UNL     1       3.280   3.490  19.502  0.00  0.00    +0.000 C 
ATOM     22  C   UNL     1       3.443   2.466  20.646  0.00  0.00    +0.000 C 
ATOM     23  C   UNL     1       2.472   2.839  21.782  0.00  0.00    +0.000 C 
ATOM     24  C   UNL     1       1.018   2.860  21.280  0.00  0.00    +0.000 C 
ATOM     25  C   UNL     1       0.860   3.782  20.063  0.00  0.00    +0.000 C 
ATOM     26  C   UNL     1       1.842   3.394  18.952  0.00  0.00    +0.000 C 
ENDBRANCH  20  21
ENDBRANCH   1  20
TORSDOF 9
ENDMDL
MODEL 9
REMARK VINA RESULT:      -7.4      2.443      6.826
REMARK  Name = 
REMARK  9 active torsions:
REMARK  status: ('A' for Active; 'I' for Inactive)
REMARK    1  A    between atoms: O_1  and  C_2
REMARK    2  A    between atoms: C_6  and  C_7
REMARK    3  A    between atoms: C_7  and  C_8
REMARK    4  A    between atoms: C_8  and  N_9
REMARK    5  A    between atoms: N_9  and  C_10
REMARK    6  A    between atoms: N_9  and  C_18
REMARK    7  A    between atoms: C_10  and  C_11
REMARK    8  A    between atoms: C_11  and  C_12
REMARK    9  A    between atoms: C_18  and  C_19
REMARK                            x       y       z     vdW  Elec       q    Type
REMARK                         _______ _______ _______ _____ _____    ______ ____
ROOT
ATOM      1  N   UNL     1       2.941   6.239  18.516  0.00  0.00    +0.000 NA
ENDROOT
BRANCH   1   2
ATOM      2  C   UNL     1       2.329   7.102  19.578  0.00  0.00    +0.000 C 
BRANCH   2   3
ATOM      3  C   UNL     1       1.863   8.523  19.183  0.00  0.00    +0.000 C 
BRANCH   3   8
ATOM      4  C   UNL     1       0.303   9.807  22.447  0.00  0.00    +0.000 A 
ATOM      5  C   UNL     1      -0.629  10.733  21.947  0.00  0.00    +0.000 A 
ATOM      6  C   UNL     1      -0.767  10.911  20.570  0.00  0.00    +0.000 A 
ATOM      7  C   UNL     1       0.021  10.173  19.683  0.00  0.00    +0.000 A 
ATOM      8  C   UNL     1       0.957   9.242  20.162  0.00  0.00    +0.000 A 
ATOM      9  C   UNL     1       1.088   9.062  21.553  0.00  0.00    +0.000 A 
BRANCH   4  10
ATOM     10  O   UNL     1       0.448   9.638  23.777  0.00  0.00    +0.000 OA
ATOM     11  H   UNL     1       1.009  10.219  24.313  0.00  0.00    +0.000 HD
ENDBRANCH   4  10
ENDBRANCH   3   8
ENDBRANCH   2   3
ENDBRANCH   1   2
BRANCH   1  12
ATOM     12  C   UNL     1       1.890   5.558  17.708  0.00  0.00    +0.000 C 
BRANCH  12  13
ATOM     13  C   UNL     1       2.005   4.016  17.702  0.00  0.00    +0.000 C 
BRANCH  13  14
ATOM     14  C   UNL     1       2.165   3.465  19.106  0.00  0.00    +0.000 A 
ATOM     15  C   UNL     1       3.394   2.910  19.512  0.00  0.00    +0.000 A 
ATOM     16  C   UNL     1       3.548   2.396  20.805  0.00  0.00    +0.000 A 
ATOM     17  C   UNL     1       2.480   2.430  21.703  0.00  0.00    +0.000 A 
ATOM     18  C   UNL     1       1.257   2.981  21.312  0.00  0.00    +0.000 A 
ATOM     19  C   UNL     1       1.097   3.498  20.021  0.00  0.00    +0.000 A 
ENDBRANCH  13  14
ENDBRANCH  12  13
ENDBRANCH   1  12
BRANCH   1  20
ATOM     20  C   UNL     1       3.809   7.069  17.610  0.00  0.00    +0.000 C 
BRANCH  20  21
ATOM     21  C   UNL     1       5.229   6.495  17.380  0.00  0.00    +0.000 C 
ATOM     22  C   UNL     1       5.346   5.654  16.091  0.00  0.00    +0.000 C 
ATOM     23  C   UNL     1       6.827   5.297  15.869  0.00  0.00    +0.000 C 
ATOM     24  C   UNL     1       7.393   4.521  17.071  0.00  0.00    +0.000 C 
ATOM     25  C   UNL     1       7.177   5.289  18.383  0.00  0.00    +0.000 C 
ATOM     26  C   UNL     1       5.697   5.639  18.574  0.00  0.00    +0.000 C 
ENDBRANCH  20  21
ENDBRANCH   1  20
TORSDOF 9
ENDMDL
