MODEL 1
REMARK VINA RESULT:      -9.3      0.000      0.000
REMARK  Name = 
REMARK  4 active torsions:
REMARK  status: ('A' for Active; 'I' for Inactive)
REMARK    1  A    between atoms: C_4  and  C_5
REMARK    2  A    between atoms: C_5  and  C_6
REMARK    3  A    between atoms: C_6  and  N_7
REMARK    4  A    between atoms: C_12  and  C_13
REMARK                            x       y       z     vdW  Elec       q    Type
REMARK                         _______ _______ _______ _____ _____    ______ ____
ROOT
ATOM      1  N   UNL     1       6.890   4.721  16.323  0.00  0.00    +0.000 NA
ATOM      2  C   UNL     1       7.363   5.741  17.276  0.00  0.00    +0.000 C 
ATOM      3  C   UNL     1       6.527   5.951  18.630  0.00  0.00    +0.000 C 
ATOM      4  C   UNL     1       5.249   5.070  19.043  0.00  0.00    +0.000 C 
ATOM      5  C   UNL     1       4.829   5.261  17.583  0.00  0.00    +0.000 C 
ATOM      6  C   UNL     1       3.504   5.480  17.512  0.00  0.00    +0.000 C 
ATOM      7  C   UNL     1       3.213   4.167  18.046  0.00  0.00    +0.000 A 
ATOM      8  C   UNL     1       2.260   3.309  17.541  0.00  0.00    +0.000 A 
ATOM      9  C   UNL     1       2.304   2.021  18.007  0.00  0.00    +0.000 A 
ATOM     10  C   UNL     1       3.271   1.649  18.982  0.00  0.00    +0.000 A 
ATOM     11  C   UNL     1       4.251   2.567  19.498  0.00  0.00    +0.000 A 
ATOM     12  C   UNL     1       4.245   3.849  19.005  0.00  0.00    +0.000 A 
ATOM     13  C   UNL     1       5.724   4.106  16.922  0.00  0.00    +0.000 C 
ENDROOT
BRANCH   6  14
ATOM     14  C   UNL     1       2.928   6.690  18.221  0.00  0.00    +0.000 A 
ATOM     15  C   UNL     1       2.423   6.605  19.516  0.00  0.00    +0.000 A 
ATOM     16  C   UNL     1       1.801   7.720  20.106  0.00  0.00    +0.000 A 
ATOM     17  C   UNL     1       1.663   8.916  19.405  0.00  0.00    +0.000 A 
ATOM     18  C   UNL     1       2.154   9.017  18.127  0.00  0.00    +0.000 A 
ATOM     19  C   UNL     1       2.800   7.926  17.546  0.00  0.00    +0.000 A 
ENDBRANCH   6  14
BRANCH   1  20
ATOM     20  C   UNL     1       6.390   5.102  14.999  0.00  0.00    +0.000 C 
BRANCH  20  21
ATOM     21  C   UNL     1       7.241   4.942  13.750  0.00  0.00    +0.000 C 
BRANCH  21  25
ATOM     22  C   UNL     1       5.163   2.161  11.150  0.00  0.00    +0.000 A 
ATOM     23  C   UNL     1       4.444   3.104  11.876  0.00  0.00    +0.000 A 
ATOM     24  C   UNL     1       5.117   4.013  12.691  0.00  0.00    +0.000 A 
ATOM     25  C   UNL     1       6.519   3.983  12.808  0.00  0.00    +0.000 A 
ATOM     26  C   UNL     1       7.227   3.011  12.091  0.00  0.00    +0.000 A 
ATOM     27  C   UNL     1       6.552   2.112  11.260  0.00  0.00    +0.000 A 
ENDBRANCH  21  25
ENDBRANCH  20  21
ENDBRANCH   1  20
TORSDOF 4
ENDMDL
MODEL 2
REMARK VINA RESULT:      -9.3      1.535      7.414
REMARK  Name = 
REMARK  4 active torsions:
REMARK  status: ('A' for Active; 'I' for Inactive)
REMARK    1  A    between atoms: C_4  and  C_5
REMARK    2  A    between atoms: C_5  and  C_6
REMARK    3  A    between atoms: C_6  and  N_7
REMARK    4  A    between atoms: C_12  and  C_13
REMARK                            x       y       z     vdW  Elec       q    Type
REMARK                         _______ _______ _______ _____ _____    ______ ____
ROOT
ATOM      1  N   UNL     1       3.002   5.399  18.530  0.00  0.00    +0.000 NA
ATOM      2  C   UNL     1       2.952   3.993  18.093  0.00  0.00    +0.000 C 
ATOM      3  C   UNL     1       4.307   3.325  17.552  0.00  0.00    +0.000 C 
ATOM      4  C   UNL     1       5.728   4.072  17.522  0.00  0.00    +0.000 C 
ATOM      5  C   UNL     1       4.928   5.260  16.981  0.00  0.00    +0.000 C 
ATOM      6  C   UNL     1       5.620   5.873  16.004  0.00  0.00    +0.000 C 
ATOM      7  C   UNL     1       6.677   6.239  16.922  0.00  0.00    +0.000 A 
ATOM      8  C   UNL     1       7.266   7.484  16.983  0.00  0.00    +0.000 A 
ATOM      9  C   UNL     1       8.058   7.720  18.076  0.00  0.00    +0.000 A 
ATOM     10  C   UNL     1       8.261   6.697  19.043  0.00  0.00    +0.000 A 
ATOM     11  C   UNL     1       7.639   5.404  18.952  0.00  0.00    +0.000 A 
ATOM     12  C   UNL     1       6.807   5.170  17.885  0.00  0.00    +0.000 A 
ATOM     13  C   UNL     1       4.375   5.831  18.373  0.00  0.00    +0.000 C 
ENDROOT
BRANCH   6  14
ATOM     14  C   UNL     1       5.985   5.080  14.764  0.00  0.00    +0.000 A 
ATOM     15  C   UNL     1       7.230   5.211  14.155  0.00  0.00    +0.000 A 
ATOM     16  C   UNL     1       7.499   4.541  12.948  0.00  0.00    +0.000 A 
ATOM     17  C   UNL     1       6.527   3.754  12.334  0.00  0.00    +0.000 A 
ATOM     18  C   UNL     1       5.294   3.615  12.921  0.00  0.00    +0.000 A 
ATOM     19  C   UNL     1       5.029   4.250  14.133  0.00  0.00    +0.000 A 
ENDBRANCH   6  14
BRANCH   1  20
ATOM     20  C   UNL     1       2.268   6.439  17.802  0.00  0.00    +0.000 C 
BRANCH  20  21
ATOM     21  C   UNL     1       2.699   7.896  17.845  0.00  0.00    +0.000 C 
BRANCH  21  25
ATOM     22  C   UNL     1      -0.134   9.963  20.396  0.00  0.00    +0.000 A 
ATOM     23  C   UNL     1       0.657   8.946  20.917  0.00  0.00    +0.000 A 
ATOM     24  C   UNL     1       1.585   8.301  20.101  0.00  0.00    +0.000 A 
ATOM     25  C   UNL     1       1.724   8.650  18.745  0.00  0.00    +0.000 A 
ATOM     26  C   UNL     1       0.902   9.657  18.227  0.00  0.00    +0.000 A 
ATOM     27  C   UNL     1      -0.015  10.316  19.052  0.00  0.00    +0.000 A 
ENDBRANCH  21  25
ENDBRANCH  20  21
ENDBRANCH   1  20
TORSDOF 4
ENDMDL
MODEL 3
REMARK VINA RESULT:      -9.1      1.551      7.426
REMARK  Name = 
REMARK  4 active torsions:
REMARK  status: ('A' for Active; 'I' for Inactive)
REMARK    1  A    between atoms: C_4  and  C_5
REMARK    2  A    between atoms: C_5  and  C_6
REMARK    3  A    between atoms: C_6  and  N_7
REMARK    4  A    between atoms: C_12  and  C_13
REMARK                            x       y       z     vdW  Elec       q    Type
REMARK                         _______ _______ _______ _____ _____    ______ ____
ROOT
ATOM      1  N   UNL     1       2.958   5.326  18.560  0.00  0.00    +0.000 NA
ATOM      2  C   UNL     1       2.890   3.945  18.052  0.00  0.00    +0.000 C 
ATOM      3  C   UNL     1       4.230   3.298  17.449  0.00  0.00    +0.000 C 
ATOM      4  C   UNL     1       5.655   4.038  17.429  0.00  0.00    +0.000 C 
ATOM      5  C   UNL     1       4.852   5.257  16.968  0.00  0.00    +0.000 C 
ATOM      6  C   UNL     1       5.528   5.916  16.011  0.00  0.00    +0.000 C 
ATOM      7  C   UNL     1       6.606   6.228  16.924  0.00  0.00    +0.000 A 
ATOM      8  C   UNL     1       7.204   7.464  17.039  0.00  0.00    +0.000 A 
ATOM      9  C   UNL     1       8.020   7.638  18.127  0.00  0.00    +0.000 A 
ATOM     10  C   UNL     1       8.235   6.564  19.034  0.00  0.00    +0.000 A 
ATOM     11  C   UNL     1       7.603   5.281  18.888  0.00  0.00    +0.000 A 
ATOM     12  C   UNL     1       6.748   5.109  17.827  0.00  0.00    +0.000 A 
ATOM     13  C   UNL     1       4.331   5.757  18.399  0.00  0.00    +0.000 C 
ENDROOT
BRANCH   6  14
ATOM     14  C   UNL     1       5.863   5.188  14.724  0.00  0.00    +0.000 A 
ATOM     15  C   UNL     1       4.954   4.327  14.114  0.00  0.00    +0.000 A 
ATOM     16  C   UNL     1       5.335   3.588  12.979  0.00  0.00    +0.000 A 
ATOM     17  C   UNL     1       6.623   3.687  12.459  0.00  0.00    +0.000 A 
ATOM     18  C   UNL     1       7.532   4.530  13.049  0.00  0.00    +0.000 A 
ATOM     19  C   UNL     1       7.155   5.290  14.155  0.00  0.00    +0.000 A 
ENDBRANCH   6  14
BRANCH   1  20
ATOM     20  C   UNL     1       2.217   6.406  17.904  0.00  0.00    +0.000 C 
BRANCH  20  21
ATOM     21  C   UNL     1       2.639   7.860  18.042  0.00  0.00    +0.000 C 
BRANCH  21  25
ATOM     22  C   UNL     1       0.017   9.843  20.871  0.00  0.00    +0.000 A 
ATOM     23  C   UNL     1       0.092  10.295  19.558  0.00  0.00    +0.000 A 
ATOM     24  C   UNL     1       0.916   9.639  18.645  0.00  0.00    +0.000 A 
ATOM     25  C   UNL     1       1.694   8.532  19.034  0.00  0.00    +0.000 A 
ATOM     26  C   UNL     1       1.629   8.106  20.365  0.00  0.00    +0.000 A 
ATOM     27  C   UNL     1       0.787   8.753  21.276  0.00  0.00    +0.000 A 
ENDBRANCH  21  25
ENDBRANCH  20  21
ENDBRANCH   1  20
TORSDOF 4
ENDMDL
MODEL 4
REMARK VINA RESULT:      -9.1      0.702      1.161
REMARK  Name = 
REMARK  4 active torsions:
REMARK  status: ('A' for Active; 'I' for Inactive)
REMARK    1  A    between atoms: C_4  and  C_5
REMARK    2  A    between atoms: C_5  and  C_6
REMARK    3  A    between atoms: C_6  and  N_7
REMARK    4  A    between atoms: C_12  and  C_13
REMARK                            x       y       z     vdW  Elec       q    Type
REMARK                         _______ _______ _______ _____ _____    ______ ____
ROOT
ATOM      1  N   UNL     1       6.244   4.415  16.724  0.00  0.00    +0.000 NA
ATOM      2  C   UNL     1       6.830   5.435  17.611  0.00  0.00    +0.000 C 
ATOM      3  C   UNL     1       6.009   5.850  18.927  0.00  0.00    +0.000 C 
ATOM      4  C   UNL     1       4.623   5.173  19.371  0.00  0.00    +0.000 C 
ATOM      5  C   UNL     1       4.251   5.306  17.892  0.00  0.00    +0.000 C 
ATOM      6  C   UNL     1       2.967   5.686  17.774  0.00  0.00    +0.000 C 
ATOM      7  C   UNL     1       2.501   4.464  18.394  0.00  0.00    +0.000 A 
ATOM      8  C   UNL     1       1.454   3.699  17.930  0.00  0.00    +0.000 A 
ATOM      9  C   UNL     1       1.325   2.454  18.489  0.00  0.00    +0.000 A 
ATOM     10  C   UNL     1       2.221   2.037  19.511  0.00  0.00    +0.000 A 
ATOM     11  C   UNL     1       3.304   2.858  19.982  0.00  0.00    +0.000 A 
ATOM     12  C   UNL     1       3.470   4.090  19.398  0.00  0.00    +0.000 A 
ATOM     13  C   UNL     1       5.000   4.000  17.338  0.00  0.00    +0.000 C 
ENDROOT
BRANCH   6  14
ATOM     14  C   UNL     1       2.541   7.008  18.380  0.00  0.00    +0.000 A 
ATOM     15  C   UNL     1       2.090   7.097  19.694  0.00  0.00    +0.000 A 
ATOM     16  C   UNL     1       1.604   8.320  20.193  0.00  0.00    +0.000 A 
ATOM     17  C   UNL     1       1.548   9.451  19.383  0.00  0.00    +0.000 A 
ATOM     18  C   UNL     1       1.988   9.381  18.084  0.00  0.00    +0.000 A 
ATOM     19  C   UNL     1       2.500   8.182  17.591  0.00  0.00    +0.000 A 
ENDBRANCH   6  14
BRANCH   1  20
ATOM     20  C   UNL     1       5.816   4.757  15.365  0.00  0.00    +0.000 C 
BRANCH  20  21
ATOM     21  C   UNL     1       6.797   4.780  14.203  0.00  0.00    +0.000 C 
BRANCH  21  25
ATOM     22  C   UNL     1       5.278   2.253  11.022  0.00  0.00    +0.000 A 
ATOM     23  C   UNL     1       6.633   2.240  11.334  0.00  0.00    +0.000 A 
ATOM     24  C   UNL     1       7.114   3.033  12.374  0.00  0.00    +0.000 A 
ATOM     25  C   UNL     1       6.251   3.869  13.108  0.00  0.00    +0.000 A 
ATOM     26  C   UNL     1       4.894   3.891  12.765  0.00  0.00    +0.000 A 
ATOM     27  C   UNL     1       4.410   3.080  11.734  0.00  0.00    +0.000 A 
ENDBRANCH  21  25
ENDBRANCH  20  21
ENDBRANCH   1  20
TORSDOF 4
ENDMDL
MODEL 5
REMARK VINA RESULT:      -9.0      0.223      1.324
REMARK  Name = 
REMARK  4 active torsions:
REMARK  status: ('A' for Active; 'I' for Inactive)
REMARK    1  A    between atoms: C_4  and  C_5
REMARK    2  A    between atoms: C_5  and  C_6
REMARK    3  A    between atoms: C_6  and  N_7
REMARK    4  A    between atoms: C_12  and  C_13
REMARK                            x       y       z     vdW  Elec       q    Type
REMARK                         _______ _______ _______ _____ _____    ______ ____
ROOT
ATOM      1  N   UNL     1       7.044   4.916  16.443  0.00  0.00    +0.000 NA
ATOM      2  C   UNL     1       7.397   5.947  17.434  0.00  0.00    +0.000 C 
ATOM      3  C   UNL     1       6.484   6.072  18.748  0.00  0.00    +0.000 C 
ATOM      4  C   UNL     1       5.252   5.099  19.082  0.00  0.00    +0.000 C 
ATOM      5  C   UNL     1       4.890   5.289  17.607  0.00  0.00    +0.000 C 
ATOM      6  C   UNL     1       3.559   5.418  17.473  0.00  0.00    +0.000 C 
ATOM      7  C   UNL     1       3.333   4.078  17.970  0.00  0.00    +0.000 A 
ATOM      8  C   UNL     1       2.468   3.167  17.404  0.00  0.00    +0.000 A 
ATOM      9  C   UNL     1       2.579   1.876  17.851  0.00  0.00    +0.000 A 
ATOM     10  C   UNL     1       3.520   1.552  18.867  0.00  0.00    +0.000 A 
ATOM     11  C   UNL     1       4.408   2.524  19.446  0.00  0.00    +0.000 A 
ATOM     12  C   UNL     1       4.337   3.812  18.974  0.00  0.00    +0.000 A 
ATOM     13  C   UNL     1       5.895   4.211  16.973  0.00  0.00    +0.000 C 
ENDROOT
BRANCH   6  14
ATOM     14  C   UNL     1       2.867   6.571  18.172  0.00  0.00    +0.000 A 
ATOM     15  C   UNL     1       2.780   7.833  17.590  0.00  0.00    +0.000 A 
ATOM     16  C   UNL     1       2.223   8.906  18.309  0.00  0.00    +0.000 A 
ATOM     17  C   UNL     1       1.769   8.733  19.614  0.00  0.00    +0.000 A 
ATOM     18  C   UNL     1       1.848   7.497  20.205  0.00  0.00    +0.000 A 
ATOM     19  C   UNL     1       2.369   6.420  19.488  0.00  0.00    +0.000 A 
ENDBRANCH   6  14
BRANCH   1  20
ATOM     20  C   UNL     1       6.583   5.288  15.102  0.00  0.00    +0.000 C 
BRANCH  20  21
ATOM     21  C   UNL     1       7.414   4.992  13.864  0.00  0.00    +0.000 C 
BRANCH  21  25
ATOM     22  C   UNL     1       5.174   2.321  11.284  0.00  0.00    +0.000 A 
ATOM     23  C   UNL     1       6.564   2.325  11.242  0.00  0.00    +0.000 A 
ATOM     24  C   UNL     1       7.282   3.166  12.092  0.00  0.00    +0.000 A 
ATOM     25  C   UNL     1       6.621   4.031  12.983  0.00  0.00    +0.000 A 
ATOM     26  C   UNL     1       5.222   4.035  12.995  0.00  0.00    +0.000 A 
ATOM     27  C   UNL     1       4.504   3.177  12.157  0.00  0.00    +0.000 A 
ENDBRANCH  21  25
ENDBRANCH  20  21
ENDBRANCH   1  20
TORSDOF 4
ENDMDL
MODEL 6
REMARK VINA RESULT:      -8.7      0.442      1.157
REMARK  Name = 
REMARK  4 active torsions:
REMARK  status: ('A' for Active; 'I' for Inactive)
REMARK    1  A    between atoms: C_4  and  C_5
REMARK    2  A    between atoms: C_5  and  C_6
REMARK    3  A    between atoms: C_6  and  N_7
REMARK    4  A    between atoms: C_12  and  C_13
REMARK                            x       y       z     vdW  Elec       q    Type
REMARK                         _______ _______ _______ _____ _____    ______ ____
ROOT
ATOM      1  N   UNL     1       7.092   4.885  16.634  0.00  0.00    +0.000 NA
ATOM      2  C   UNL     1       7.420   5.905  17.645  0.00  0.00    +0.000 C 
ATOM      3  C   UNL     1       6.453   6.040  18.920  0.00  0.00    +0.000 C 
ATOM      4  C   UNL     1       5.192   5.085  19.195  0.00  0.00    +0.000 C 
ATOM      5  C   UNL     1       4.897   5.289  17.707  0.00  0.00    +0.000 C 
ATOM      6  C   UNL     1       3.575   5.441  17.517  0.00  0.00    +0.000 C 
ATOM      7  C   UNL     1       3.306   4.103  17.996  0.00  0.00    +0.000 A 
ATOM      8  C   UNL     1       2.451   3.209  17.389  0.00  0.00    +0.000 A 
ATOM      9  C   UNL     1       2.521   1.914  17.833  0.00  0.00    +0.000 A 
ATOM     10  C   UNL     1       3.412   1.570  18.887  0.00  0.00    +0.000 A 
ATOM     11  C   UNL     1       4.291   2.524  19.508  0.00  0.00    +0.000 A 
ATOM     12  C   UNL     1       4.262   3.815  19.041  0.00  0.00    +0.000 A 
ATOM     13  C   UNL     1       5.910   4.198  17.111  0.00  0.00    +0.000 C 
ENDROOT
BRANCH   6  14
ATOM     14  C   UNL     1       2.873   6.602  18.192  0.00  0.00    +0.000 A 
ATOM     15  C   UNL     1       2.762   7.847  17.577  0.00  0.00    +0.000 A 
ATOM     16  C   UNL     1       2.196   8.931  18.273  0.00  0.00    +0.000 A 
ATOM     17  C   UNL     1       1.757   8.786  19.587  0.00  0.00    +0.000 A 
ATOM     18  C   UNL     1       1.860   7.567  20.209  0.00  0.00    +0.000 A 
ATOM     19  C   UNL     1       2.390   6.479  19.517  0.00  0.00    +0.000 A 
ENDBRANCH   6  14
BRANCH   1  20
ATOM     20  C   UNL     1       6.696   5.272  15.277  0.00  0.00    +0.000 C 
BRANCH  20  21
ATOM     21  C   UNL     1       5.402   4.775  14.653  0.00  0.00    +0.000 C 
BRANCH  21  25
ATOM     22  C   UNL     1       6.407   2.496  11.102  0.00  0.00    +0.000 A 
ATOM     23  C   UNL     1       5.092   2.537  11.553  0.00  0.00    +0.000 A 
ATOM     24  C   UNL     1       4.768   3.291  12.680  0.00  0.00    +0.000 A 
ATOM     25  C   UNL     1       5.757   4.002  13.385  0.00  0.00    +0.000 A 
ATOM     26  C   UNL     1       7.080   3.930  12.935  0.00  0.00    +0.000 A 
ATOM     27  C   UNL     1       7.400   3.188  11.794  0.00  0.00    +0.000 A 
ENDBRANCH  21  25
ENDBRANCH  20  21
ENDBRANCH   1  20
TORSDOF 4
ENDMDL
MODEL 7
REMARK VINA RESULT:      -8.6      0.818      1.229
REMARK  Name = 
REMARK  4 active torsions:
REMARK  status: ('A' for Active; 'I' for Inactive)
REMARK    1  A    between atoms: C_4  and  C_5
REMARK    2  A    between atoms: C_5  and  C_6
REMARK    3  A    between atoms: C_6  and  N_7
REMARK    4  A    between atoms: C_12  and  C_13
REMARK                            x       y       z     vdW  Elec       q    Type
REMARK                         _______ _______ _______ _____ _____    ______ ____
ROOT
ATOM      1  N   UNL     1       6.062   4.205  16.672  0.00  0.00    +0.000 NA
ATOM      2  C   UNL     1       6.660   5.294  17.463  0.00  0.00    +0.000 C 
ATOM      3  C   UNL     1       5.877   5.789  18.774  0.00  0.00    +0.000 C 
ATOM      4  C   UNL     1       4.518   5.126  19.314  0.00  0.00    +0.000 C 
ATOM      5  C   UNL     1       4.095   5.147  17.843  0.00  0.00    +0.000 C 
ATOM      6  C   UNL     1       2.801   5.499  17.743  0.00  0.00    +0.000 C 
ATOM      7  C   UNL     1       2.377   4.318  18.464  0.00  0.00    +0.000 A 
ATOM      8  C   UNL     1       1.328   3.507  18.092  0.00  0.00    +0.000 A 
ATOM      9  C   UNL     1       1.239   2.303  18.742  0.00  0.00    +0.000 A 
ATOM     10  C   UNL     1       2.177   1.973  19.759  0.00  0.00    +0.000 A 
ATOM     11  C   UNL     1       3.260   2.841  20.132  0.00  0.00    +0.000 A 
ATOM     12  C   UNL     1       3.386   4.031  19.457  0.00  0.00    +0.000 A 
ATOM     13  C   UNL     1       4.846   3.817  17.357  0.00  0.00    +0.000 C 
ENDROOT
BRANCH   6  14
ATOM     14  C   UNL     1       2.373   6.855  18.268  0.00  0.00    +0.000 A 
ATOM     15  C   UNL     1       2.515   8.012  17.506  0.00  0.00    +0.000 A 
ATOM     16  C   UNL     1       2.205   9.267  18.062  0.00  0.00    +0.000 A 
ATOM     17  C   UNL     1       1.773   9.377  19.381  0.00  0.00    +0.000 A 
ATOM     18  C   UNL     1       1.629   8.248  20.148  0.00  0.00    +0.000 A 
ATOM     19  C   UNL     1       1.903   6.997  19.595  0.00  0.00    +0.000 A 
ENDBRANCH   6  14
BRANCH   1  20
ATOM     20  C   UNL     1       5.582   4.442  15.307  0.00  0.00    +0.000 C 
BRANCH  20  21
ATOM     21  C   UNL     1       6.544   4.582  14.138  0.00  0.00    +0.000 C 
BRANCH  21  25
ATOM     22  C   UNL     1       4.931   2.196  10.896  0.00  0.00    +0.000 A 
ATOM     23  C   UNL     1       4.143   3.169  11.502  0.00  0.00    +0.000 A 
ATOM     24  C   UNL     1       4.673   3.952  12.526  0.00  0.00    +0.000 A 
ATOM     25  C   UNL     1       5.993   3.762  12.975  0.00  0.00    +0.000 A 
ATOM     26  C   UNL     1       6.765   2.761  12.374  0.00  0.00    +0.000 A 
ATOM     27  C   UNL     1       6.238   1.989  11.333  0.00  0.00    +0.000 A 
ENDBRANCH  21  25
ENDBRANCH  20  21
ENDBRANCH   1  20
TORSDOF 4
ENDMDL
MODEL 8
REMARK VINA RESULT:      -8.5      1.384      1.741
REMARK  Name = 
REMARK  4 active torsions:
REMARK  status: ('A' for Active; 'I' for Inactive)
REMARK    1  A    between atoms: C_4  and  C_5
REMARK    2  A    between atoms: C_5  and  C_6
REMARK    3  A    between atoms: C_6  and  N_7
REMARK    4  A    between atoms: C_12  and  C_13
REMARK                            x       y       z     vdW  Elec       q    Type
REMARK                         _______ _______ _______ _____ _____    ______ ____
ROOT
ATOM      1  N   UNL     1       5.631   3.740  17.478  0.00  0.00    +0.000 NA
ATOM      2  C   UNL     1       6.348   4.874  18.088  0.00  0.00    +0.000 C 
ATOM      3  C   UNL     1       5.635   5.655  19.294  0.00  0.00    +0.000 C 
ATOM      4  C   UNL     1       4.219   5.235  19.924  0.00  0.00    +0.000 C 
ATOM      5  C   UNL     1       3.786   5.063  18.466  0.00  0.00    +0.000 C 
ATOM      6  C   UNL     1       2.536   5.530  18.300  0.00  0.00    +0.000 C 
ATOM      7  C   UNL     1       1.996   4.532  19.199  0.00  0.00    +0.000 A 
ATOM      8  C   UNL     1       0.863   3.787  18.956  0.00  0.00    +0.000 A 
ATOM      9  C   UNL     1       0.654   2.721  19.792  0.00  0.00    +0.000 A 
ATOM     10  C   UNL     1       1.561   2.463  20.856  0.00  0.00    +0.000 A 
ATOM     11  C   UNL     1       2.734   3.260  21.092  0.00  0.00    +0.000 A 
ATOM     12  C   UNL     1       2.978   4.304  20.234  0.00  0.00    +0.000 A 
ATOM     13  C   UNL     1       4.388   3.600  18.208  0.00  0.00    +0.000 C 
ENDROOT
BRANCH   6  14
ATOM     14  C   UNL     1       2.259   6.990  18.595  0.00  0.00    +0.000 A 
ATOM     15  C   UNL     1       1.745   7.403  19.822  0.00  0.00    +0.000 A 
ATOM     16  C   UNL     1       1.403   8.752  20.027  0.00  0.00    +0.000 A 
ATOM     17  C   UNL     1       1.552   9.690  19.009  0.00  0.00    +0.000 A 
ATOM     18  C   UNL     1       2.056   9.301  17.792  0.00  0.00    +0.000 A 
ATOM     19  C   UNL     1       2.427   7.972  17.591  0.00  0.00    +0.000 A 
ENDBRANCH   6  14
BRANCH   1  20
ATOM     20  C   UNL     1       5.166   3.803  16.089  0.00  0.00    +0.000 C 
BRANCH  20  21
ATOM     21  C   UNL     1       5.439   5.015  15.213  0.00  0.00    +0.000 C 
BRANCH  21  25
ATOM     22  C   UNL     1       6.937   3.513  11.430  0.00  0.00    +0.000 A 
ATOM     23  C   UNL     1       5.736   3.035  11.941  0.00  0.00    +0.000 A 
ATOM     24  C   UNL     1       5.244   3.538  13.144  0.00  0.00    +0.000 A 
ATOM     25  C   UNL     1       5.955   4.515  13.866  0.00  0.00    +0.000 A 
ATOM     26  C   UNL     1       7.176   4.968  13.353  0.00  0.00    +0.000 A 
ATOM     27  C   UNL     1       7.658   4.475  12.136  0.00  0.00    +0.000 A 
ENDBRANCH  21  25
ENDBRANCH  20  21
ENDBRANCH   1  20
TORSDOF 4
ENDMDL
MODEL 9
REMARK VINA RESULT:      -8.3      1.815      7.352
REMARK  Name = 
REMARK  4 active torsions:
REMARK  status: ('A' for Active; 'I' for Inactive)
REMARK    1  A    between atoms: C_4  and  C_5
REMARK    2  A    between atoms: C_5  and  C_6
REMARK    3  A    between atoms: C_6  and  N_7
REMARK    4  A    between atoms: C_12  and  C_13
REMARK                            x       y       z     vdW  Elec       q    Type
REMARK                         _______ _______ _______ _____ _____    ______ ____
ROOT
ATOM      1  N   UNL     1       2.585   6.079  18.340  0.00  0.00    +0.000 NA
ATOM      2  C   UNL     1       2.270   4.736  17.825  0.00  0.00    +0.000 C 
ATOM      3  C   UNL     1       3.489   3.802  17.360  0.00  0.00    +0.000 C 
ATOM      4  C   UNL     1       5.036   4.215  17.486  0.00  0.00    +0.000 C 
ATOM      5  C   UNL     1       4.568   5.569  16.947  0.00  0.00    +0.000 C 
ATOM      6  C   UNL     1       5.463   6.047  16.065  0.00  0.00    +0.000 C 
ATOM      7  C   UNL     1       6.486   6.136  17.084  0.00  0.00    +0.000 A 
ATOM      8  C   UNL     1       7.325   7.216  17.261  0.00  0.00    +0.000 A 
ATOM      9  C   UNL     1       8.046   7.231  18.426  0.00  0.00    +0.000 A 
ATOM     10  C   UNL     1       7.931   6.155  19.349  0.00  0.00    +0.000 A 
ATOM     11  C   UNL     1       7.053   5.037  19.137  0.00  0.00    +0.000 A 
ATOM     12  C   UNL     1       6.291   5.032  17.995  0.00  0.00    +0.000 A 
ATOM     13  C   UNL     1       4.028   6.200  18.320  0.00  0.00    +0.000 C 
ENDROOT
BRANCH   6  14
ATOM     14  C   UNL     1       5.758   5.237  14.818  0.00  0.00    +0.000 A 
ATOM     15  C   UNL     1       4.775   4.474  14.193  0.00  0.00    +0.000 A 
ATOM     16  C   UNL     1       5.107   3.653  13.100  0.00  0.00    +0.000 A 
ATOM     17  C   UNL     1       6.418   3.574  12.637  0.00  0.00    +0.000 A 
ATOM     18  C   UNL     1       7.400   4.319  13.241  0.00  0.00    +0.000 A 
ATOM     19  C   UNL     1       7.074   5.159  14.305  0.00  0.00    +0.000 A 
ENDBRANCH   6  14
BRANCH   1  20
ATOM     20  C   UNL     1       2.166   7.281  17.613  0.00  0.00    +0.000 C 
BRANCH  20  21
ATOM     21  C   UNL     1       2.758   8.646  17.924  0.00  0.00    +0.000 C 
BRANCH  21  25
ATOM     22  C   UNL     1      -0.520  11.415  18.558  0.00  0.00    +0.000 A 
ATOM     23  C   UNL     1      -0.763  10.167  17.996  0.00  0.00    +0.000 A 
ATOM     24  C   UNL     1       0.288   9.269  17.818  0.00  0.00    +0.000 A 
ATOM     25  C   UNL     1       1.604   9.612  18.180  0.00  0.00    +0.000 A 
ATOM     26  C   UNL     1       1.838  10.882  18.719  0.00  0.00    +0.000 A 
ATOM     27  C   UNL     1       0.779  11.774  18.915  0.00  0.00    +0.000 A 
ENDBRANCH  21  25
ENDBRANCH  20  21
ENDBRANCH   1  20
TORSDOF 4
ENDMDL
