MODEL 1
REMARK VINA RESULT:      -8.3      0.000      0.000
REMARK  Name = 
REMARK  5 active torsions:
REMARK  status: ('A' for Active; 'I' for Inactive)
REMARK    1  A    between atoms: C_5  and  C_6
REMARK    2  A    between atoms: N_14  and  C_15
REMARK    3  A    between atoms: C_15  and  C_16
REMARK    4  A    between atoms: C_16  and  N_17
REMARK    5  A    between atoms: N_17  and  C_18
REMARK                            x       y       z     vdW  Elec       q    Type
REMARK                         _______ _______ _______ _____ _____    ______ ____
ROOT
ATOM      1  C   UNL     1       3.507   6.441  19.468  0.00  0.00    +0.000 C 
ENDROOT
BRANCH   1   7
ATOM      2  O   UNL     1       1.488   4.910  20.919  0.00  0.00    +0.000 OA
ATOM      3  C   UNL     1       2.447   4.359  20.388  0.00  0.00    +0.000 C 
ATOM      4  C   UNL     1       2.678   2.872  20.539  0.00  0.00    +0.000 C 
ATOM      5  S   UNL     1       4.311   2.500  19.886  0.00  0.00    +0.000 S 
ATOM      6  C   UNL     1       4.625   4.209  19.391  0.00  0.00    +0.000 C 
ATOM      7  N   UNL     1       3.415   4.985  19.612  0.00  0.00    +0.000 N 
BRANCH   6   8
ATOM      8  C   UNL     1       5.258   4.318  18.015  0.00  0.00    +0.000 A 
ATOM      9  C   UNL     1       4.605   3.897  16.837  0.00  0.00    +0.000 A 
ATOM     10 CL   UNL     1       2.970   3.326  16.821  0.00  0.00    +0.000 Cl
ATOM     11  C   UNL     1       5.252   3.925  15.592  0.00  0.00    +0.000 A 
ATOM     12  C   UNL     1       6.558   4.394  15.480  0.00  0.00    +0.000 A 
ATOM     13  C   UNL     1       7.210   4.849  16.616  0.00  0.00    +0.000 A 
ATOM     14  C   UNL     1       6.574   4.815  17.865  0.00  0.00    +0.000 A 
ATOM     15 CL   UNL     1       7.497   5.441  19.192  0.00  0.00    +0.000 Cl
ENDBRANCH   6   8
ENDBRANCH   1   7
BRANCH   1  16
ATOM     16  C   UNL     1       2.267   7.256  19.039  0.00  0.00    +0.000 C 
BRANCH  16  17
ATOM     17  N   UNL     1       1.664   8.038  20.117  0.00  0.00    +0.000 N 
ATOM     18  H   UNL     1       2.105   7.863  21.015  0.00  0.00    +0.000 HD
BRANCH  17  19
ATOM     19  C   UNL     1       1.110   9.305  19.912  0.00  0.00    +0.000 A 
ATOM     20  C   UNL     1       1.292   9.963  18.695  0.00  0.00    +0.000 A 
ATOM     21  C   UNL     1       0.629  11.147  18.447  0.00  0.00    +0.000 A 
ATOM     22  N   UNL     1      -0.202  11.734  19.320  0.00  0.00    +0.000 NA
ATOM     23  C   UNL     1      -0.373  11.142  20.508  0.00  0.00    +0.000 A 
ATOM     24  C   UNL     1      -1.224  11.779  21.395  0.00  0.00    +0.000 A 
ATOM     25  C   UNL     1      -1.438  11.283  22.674  0.00  0.00    +0.000 A 
ATOM     26 CL   UNL     1      -2.494  12.117  23.747  0.00  0.00    +0.000 Cl
ATOM     27  C   UNL     1      -0.797  10.126  23.089  0.00  0.00    +0.000 A 
ATOM     28  C   UNL     1       0.038   9.446  22.196  0.00  0.00    +0.000 A 
ATOM     29  C   UNL     1       0.265   9.930  20.880  0.00  0.00    +0.000 A 
ENDBRANCH  17  19
ENDBRANCH  16  17
ENDBRANCH   1  16
TORSDOF 5
ENDMDL
MODEL 2
REMARK VINA RESULT:      -8.3      0.918      1.072
REMARK  Name = 
REMARK  5 active torsions:
REMARK  status: ('A' for Active; 'I' for Inactive)
REMARK    1  A    between atoms: C_5  and  C_6
REMARK    2  A    between atoms: N_14  and  C_15
REMARK    3  A    between atoms: C_15  and  C_16
REMARK    4  A    between atoms: C_16  and  N_17
REMARK    5  A    between atoms: N_17  and  C_18
REMARK                            x       y       z     vdW  Elec       q    Type
REMARK                         _______ _______ _______ _____ _____    ______ ____
ROOT
ATOM      1  C   UNL     1       3.230   6.319  19.543  0.00  0.00    +0.000 C 
ENDROOT
BRANCH   1   7
ATOM      2  O   UNL     1       1.174   4.645  20.766  0.00  0.00    +0.000 OA
ATOM      3  C   UNL     1       2.203   4.159  20.308  0.00  0.00    +0.000 C 
ATOM      4  C   UNL     1       2.497   2.681  20.438  0.00  0.00    +0.000 C 
ATOM      5  S   UNL     1       4.197   2.410  19.923  0.00  0.00    +0.000 S 
ATOM      6  C   UNL     1       4.464   4.148  19.506  0.00  0.00    +0.000 C 
ATOM      7  N   UNL     1       3.202   4.855  19.639  0.00  0.00    +0.000 N 
BRANCH   6   8
ATOM      8  C   UNL     1       5.210   4.330  18.195  0.00  0.00    +0.000 A 
ATOM      9  C   UNL     1       4.679   3.928  16.951  0.00  0.00    +0.000 A 
ATOM     10 CL   UNL     1       3.077   3.296  16.773  0.00  0.00    +0.000 Cl
ATOM     11  C   UNL     1       5.429   4.027  15.769  0.00  0.00    +0.000 A 
ATOM     12  C   UNL     1       6.720   4.549  15.788  0.00  0.00    +0.000 A 
ATOM     13  C   UNL     1       7.252   4.987  16.991  0.00  0.00    +0.000 A 
ATOM     14  C   UNL     1       6.512   4.884  18.177  0.00  0.00    +0.000 A 
ATOM     15 CL   UNL     1       7.290   5.496  19.600  0.00  0.00    +0.000 Cl
ENDBRANCH   6   8
ENDBRANCH   1   7
BRANCH   1  16
ATOM     16  C   UNL     1       2.984   7.011  18.184  0.00  0.00    +0.000 C 
BRANCH  16  17
ATOM     17  N   UNL     1       1.751   7.797  18.130  0.00  0.00    +0.000 N 
ATOM     18  H   UNL     1       0.922   7.224  18.247  0.00  0.00    +0.000 HD
BRANCH  17  19
ATOM     19  C   UNL     1       1.682   9.122  18.570  0.00  0.00    +0.000 A 
ATOM     20  C   UNL     1       2.251  10.146  17.811  0.00  0.00    +0.000 A 
ATOM     21  C   UNL     1       2.058  11.461  18.177  0.00  0.00    +0.000 A 
ATOM     22  N   UNL     1       1.344  11.842  19.246  0.00  0.00    +0.000 NA
ATOM     23  C   UNL     1       0.811  10.882  20.009  0.00  0.00    +0.000 A 
ATOM     24  C   UNL     1       0.092  11.304  21.115  0.00  0.00    +0.000 A 
ATOM     25  C   UNL     1      -0.464  10.395  22.006  0.00  0.00    +0.000 A 
ATOM     26 CL   UNL     1      -1.337  10.967  23.374  0.00  0.00    +0.000 Cl
ATOM     27  C   UNL     1      -0.308   9.034  21.800  0.00  0.00    +0.000 A 
ATOM     28  C   UNL     1       0.382   8.585  20.670  0.00  0.00    +0.000 A 
ATOM     29  C   UNL     1       0.952   9.495  19.740  0.00  0.00    +0.000 A 
ENDBRANCH  17  19
ENDBRANCH  16  17
ENDBRANCH   1  16
TORSDOF 5
ENDMDL
MODEL 3
REMARK VINA RESULT:      -8.2      0.640      1.841
REMARK  Name = 
REMARK  5 active torsions:
REMARK  status: ('A' for Active; 'I' for Inactive)
REMARK    1  A    between atoms: C_5  and  C_6
REMARK    2  A    between atoms: N_14  and  C_15
REMARK    3  A    between atoms: C_15  and  C_16
REMARK    4  A    between atoms: C_16  and  N_17
REMARK    5  A    between atoms: N_17  and  C_18
REMARK                            x       y       z     vdW  Elec       q    Type
REMARK                         _______ _______ _______ _____ _____    ______ ____
ROOT
ATOM      1  C   UNL     1       2.292   5.848  18.842  0.00  0.00    +0.000 C 
ENDROOT
BRANCH   1   7
ATOM      2  O   UNL     1       0.612   3.883  20.200  0.00  0.00    +0.000 OA
ATOM      3  C   UNL     1       1.786   3.644  19.934  0.00  0.00    +0.000 C 
ATOM      4  C   UNL     1       2.443   2.357  20.380  0.00  0.00    +0.000 C 
ATOM      5  S   UNL     1       4.207   2.504  20.070  0.00  0.00    +0.000 S 
ATOM      6  C   UNL     1       4.054   4.150  19.339  0.00  0.00    +0.000 C 
ATOM      7  N   UNL     1       2.643   4.476  19.224  0.00  0.00    +0.000 N 
BRANCH   6   8
ATOM      8  C   UNL     1       4.893   4.316  18.083  0.00  0.00    +0.000 A 
ATOM      9  C   UNL     1       6.150   4.959  18.083  0.00  0.00    +0.000 A 
ATOM     10 CL   UNL     1       6.920   5.518  19.530  0.00  0.00    +0.000 Cl
ATOM     11  C   UNL     1       6.859   5.179  16.892  0.00  0.00    +0.000 A 
ATOM     12  C   UNL     1       6.350   4.744  15.672  0.00  0.00    +0.000 A 
ATOM     13  C   UNL     1       5.135   4.076  15.648  0.00  0.00    +0.000 A 
ATOM     14  C   UNL     1       4.416   3.861  16.832  0.00  0.00    +0.000 A 
ATOM     15 CL   UNL     1       2.929   2.987  16.657  0.00  0.00    +0.000 Cl
ENDBRANCH   6   8
ENDBRANCH   1   7
BRANCH   1  16
ATOM     16  C   UNL     1       2.828   7.041  19.662  0.00  0.00    +0.000 C 
BRANCH  16  17
ATOM     17  N   UNL     1       1.814   7.708  20.479  0.00  0.00    +0.000 N 
ATOM     18  H   UNL     1       1.943   7.537  21.471  0.00  0.00    +0.000 HD
BRANCH  17  19
ATOM     19  C   UNL     1       1.226   8.922  20.109  0.00  0.00    +0.000 A 
ATOM     20  C   UNL     1       1.386   9.415  18.813  0.00  0.00    +0.000 A 
ATOM     21  C   UNL     1       0.692  10.537  18.414  0.00  0.00    +0.000 A 
ATOM     22  N   UNL     1      -0.152  11.214  19.206  0.00  0.00    +0.000 NA
ATOM     23  C   UNL     1      -0.303  10.783  20.463  0.00  0.00    +0.000 A 
ATOM     24  C   UNL     1      -1.168  11.511  21.262  0.00  0.00    +0.000 A 
ATOM     25  C   UNL     1      -1.365  11.185  22.598  0.00  0.00    +0.000 A 
ATOM     26 CL   UNL     1      -2.439  12.128  23.557  0.00  0.00    +0.000 Cl
ATOM     27  C   UNL     1      -0.691  10.112  23.160  0.00  0.00    +0.000 A 
ATOM     28  C   UNL     1       0.158   9.340  22.361  0.00  0.00    +0.000 A 
ATOM     29  C   UNL     1       0.368   9.648  20.990  0.00  0.00    +0.000 A 
ENDBRANCH  17  19
ENDBRANCH  16  17
ENDBRANCH   1  16
TORSDOF 5
ENDMDL
MODEL 4
REMARK VINA RESULT:      -7.9      3.286      8.356
REMARK  Name = 
REMARK  5 active torsions:
REMARK  status: ('A' for Active; 'I' for Inactive)
REMARK    1  A    between atoms: C_5  and  C_6
REMARK    2  A    between atoms: N_14  and  C_15
REMARK    3  A    between atoms: C_15  and  C_16
REMARK    4  A    between atoms: C_16  and  N_17
REMARK    5  A    between atoms: N_17  and  C_18
REMARK                            x       y       z     vdW  Elec       q    Type
REMARK                         _______ _______ _______ _____ _____    ______ ____
ROOT
ATOM      1  C   UNL     1       1.541   9.294  21.705  0.00  0.00    +0.000 C 
ENDROOT
BRANCH   1   7
ATOM      2  O   UNL     1      -0.230   9.623  24.002  0.00  0.00    +0.000 OA
ATOM      3  C   UNL     1      -0.359  10.310  22.994  0.00  0.00    +0.000 C 
ATOM      4  C   UNL     1      -1.500  11.294  22.856  0.00  0.00    +0.000 C 
ATOM      5  S   UNL     1      -1.523  11.876  21.156  0.00  0.00    +0.000 S 
ATOM      6  C   UNL     1      -0.067  10.912  20.689  0.00  0.00    +0.000 C 
ATOM      7  N   UNL     1       0.476  10.286  21.883  0.00  0.00    +0.000 N 
BRANCH   6   8
ATOM      8  C   UNL     1       0.909  11.698  19.831  0.00  0.00    +0.000 A 
ATOM      9  C   UNL     1       1.427  11.205  18.614  0.00  0.00    +0.000 A 
ATOM     10 CL   UNL     1       0.914   9.707  17.913  0.00  0.00    +0.000 Cl
ATOM     11  C   UNL     1       2.397  11.915  17.890  0.00  0.00    +0.000 A 
ATOM     12  C   UNL     1       2.861  13.146  18.344  0.00  0.00    +0.000 A 
ATOM     13  C   UNL     1       2.342  13.672  19.517  0.00  0.00    +0.000 A 
ATOM     14  C   UNL     1       1.379  12.965  20.251  0.00  0.00    +0.000 A 
ATOM     15 CL   UNL     1       0.798  13.754  21.680  0.00  0.00    +0.000 Cl
ENDBRANCH   6   8
ENDBRANCH   1   7
BRANCH   1  16
ATOM     16  C   UNL     1       1.221   7.916  21.086  0.00  0.00    +0.000 C 
BRANCH  16  17
ATOM     17  N   UNL     1       2.199   7.462  20.098  0.00  0.00    +0.000 N 
ATOM     18  H   UNL     1       3.021   8.057  20.067  0.00  0.00    +0.000 HD
BRANCH  17  19
ATOM     19  C   UNL     1       2.371   6.114  19.770  0.00  0.00    +0.000 A 
ATOM     20  C   UNL     1       1.684   5.126  20.476  0.00  0.00    +0.000 A 
ATOM     21  C   UNL     1       1.749   3.813  20.059  0.00  0.00    +0.000 A 
ATOM     22  N   UNL     1       2.449   3.401  18.993  0.00  0.00    +0.000 NA
ATOM     23  C   UNL     1       3.142   4.322  18.314  0.00  0.00    +0.000 A 
ATOM     24  C   UNL     1       3.869   3.865  17.227  0.00  0.00    +0.000 A 
ATOM     25  C   UNL     1       4.665   4.723  16.478  0.00  0.00    +0.000 A 
ATOM     26 CL   UNL     1       5.561   4.107  15.145  0.00  0.00    +0.000 Cl
ATOM     27  C   UNL     1       4.746   6.066  16.810  0.00  0.00    +0.000 A 
ATOM     28  C   UNL     1       3.991   6.556  17.881  0.00  0.00    +0.000 A 
ATOM     29  C   UNL     1       3.162   5.700  18.656  0.00  0.00    +0.000 A 
ENDBRANCH  17  19
ENDBRANCH  16  17
ENDBRANCH   1  16
TORSDOF 5
ENDMDL
MODEL 5
REMARK VINA RESULT:      -7.9      1.533      2.278
REMARK  Name = 
REMARK  5 active torsions:
REMARK  status: ('A' for Active; 'I' for Inactive)
REMARK    1  A    between atoms: C_5  and  C_6
REMARK    2  A    between atoms: N_14  and  C_15
REMARK    3  A    between atoms: C_15  and  C_16
REMARK    4  A    between atoms: C_16  and  N_17
REMARK    5  A    between atoms: N_17  and  C_18
REMARK                            x       y       z     vdW  Elec       q    Type
REMARK                         _______ _______ _______ _____ _____    ______ ____
ROOT
ATOM      1  C   UNL     1       2.647   6.173  19.067  0.00  0.00    +0.000 C 
ENDROOT
BRANCH   1   7
ATOM      2  O   UNL     1       0.801   4.373  20.438  0.00  0.00    +0.000 OA
ATOM      3  C   UNL     1       1.923   4.004  20.105  0.00  0.00    +0.000 C 
ATOM      4  C   UNL     1       2.437   2.630  20.472  0.00  0.00    +0.000 C 
ATOM      5  S   UNL     1       4.190   2.575  20.080  0.00  0.00    +0.000 S 
ATOM      6  C   UNL     1       4.208   4.255  19.416  0.00  0.00    +0.000 C 
ATOM      7  N   UNL     1       2.843   4.755  19.383  0.00  0.00    +0.000 N 
BRANCH   6   8
ATOM      8  C   UNL     1       5.004   4.370  18.127  0.00  0.00    +0.000 A 
ATOM      9  C   UNL     1       4.514   3.919  16.883  0.00  0.00    +0.000 A 
ATOM     10 CL   UNL     1       2.911   3.297  16.673  0.00  0.00    +0.000 Cl
ATOM     11  C   UNL     1       5.309   3.955  15.727  0.00  0.00    +0.000 A 
ATOM     12  C   UNL     1       6.604   4.464  15.771  0.00  0.00    +0.000 A 
ATOM     13  C   UNL     1       7.097   4.949  16.972  0.00  0.00    +0.000 A 
ATOM     14  C   UNL     1       6.312   4.908  18.133  0.00  0.00    +0.000 A 
ATOM     15 CL   UNL     1       7.045   5.575  19.556  0.00  0.00    +0.000 Cl
ENDBRANCH   6   8
ENDBRANCH   1   7
BRANCH   1  16
ATOM     16  C   UNL     1       2.297   7.175  20.189  0.00  0.00    +0.000 C 
BRANCH  16  17
ATOM     17  N   UNL     1       1.515   8.327  19.739  0.00  0.00    +0.000 N 
ATOM     18  H   UNL     1       1.049   8.154  18.854  0.00  0.00    +0.000 HD
BRANCH  17  19
ATOM     19  C   UNL     1       0.898   9.213  20.626  0.00  0.00    +0.000 A 
ATOM     20  C   UNL     1       0.464   8.769  21.876  0.00  0.00    +0.000 A 
ATOM     21  C   UNL     1      -0.015   9.674  22.799  0.00  0.00    +0.000 A 
ATOM     22  N   UNL     1      -0.101  10.993  22.576  0.00  0.00    +0.000 NA
ATOM     23  C   UNL     1       0.279  11.445  21.377  0.00  0.00    +0.000 A 
ATOM     24  C   UNL     1       0.164  12.809  21.169  0.00  0.00    +0.000 A 
ATOM     25  C   UNL     1       0.482  13.384  19.945  0.00  0.00    +0.000 A 
ATOM     26 CL   UNL     1       0.309  15.082  19.729  0.00  0.00    +0.000 Cl
ATOM     27  C   UNL     1       0.927  12.592  18.898  0.00  0.00    +0.000 A 
ATOM     28  C   UNL     1       1.087  11.217  19.097  0.00  0.00    +0.000 A 
ATOM     29  C   UNL     1       0.776  10.608  20.343  0.00  0.00    +0.000 A 
ENDBRANCH  17  19
ENDBRANCH  16  17
ENDBRANCH   1  16
TORSDOF 5
ENDMDL
MODEL 6
REMARK VINA RESULT:      -7.9      3.321      8.438
REMARK  Name = 
REMARK  5 active torsions:
REMARK  status: ('A' for Active; 'I' for Inactive)
REMARK    1  A    between atoms: C_5  and  C_6
REMARK    2  A    between atoms: N_14  and  C_15
REMARK    3  A    between atoms: C_15  and  C_16
REMARK    4  A    between atoms: C_16  and  N_17
REMARK    5  A    between atoms: N_17  and  C_18
REMARK                            x       y       z     vdW  Elec       q    Type
REMARK                         _______ _______ _______ _____ _____    ______ ____
ROOT
ATOM      1  C   UNL     1       1.506   9.375  21.736  0.00  0.00    +0.000 C 
ENDROOT
BRANCH   1   7
ATOM      2  O   UNL     1      -0.421   9.746  23.898  0.00  0.00    +0.000 OA
ATOM      3  C   UNL     1      -0.461  10.433  22.882  0.00  0.00    +0.000 C 
ATOM      4  C   UNL     1      -1.566  11.442  22.662  0.00  0.00    +0.000 C 
ATOM      5  S   UNL     1      -1.453  12.022  20.965  0.00  0.00    +0.000 S 
ATOM      6  C   UNL     1       0.012  11.026  20.606  0.00  0.00    +0.000 C 
ATOM      7  N   UNL     1       0.452  10.390  21.836  0.00  0.00    +0.000 N 
BRANCH   6   8
ATOM      8  C   UNL     1       1.065  11.790  19.822  0.00  0.00    +0.000 A 
ATOM      9  C   UNL     1       1.547  13.055  20.220  0.00  0.00    +0.000 A 
ATOM     10 CL   UNL     1       1.077  13.816  21.702  0.00  0.00    +0.000 Cl
ATOM     11  C   UNL     1       2.452  13.776  19.426  0.00  0.00    +0.000 A 
ATOM     12  C   UNL     1       2.922  13.248  18.226  0.00  0.00    +0.000 A 
ATOM     13  C   UNL     1       2.494  11.990  17.830  0.00  0.00    +0.000 A 
ATOM     14  C   UNL     1       1.583  11.268  18.613  0.00  0.00    +0.000 A 
ATOM     15 CL   UNL     1       1.159   9.699  18.011  0.00  0.00    +0.000 Cl
ENDBRANCH   6   8
ENDBRANCH   1   7
BRANCH   1  16
ATOM     16  C   UNL     1       1.205   8.006  21.087  0.00  0.00    +0.000 C 
BRANCH  16  17
ATOM     17  N   UNL     1       2.258   7.522  20.195  0.00  0.00    +0.000 N 
ATOM     18  H   UNL     1       3.115   8.060  20.283  0.00  0.00    +0.000 HD
BRANCH  17  19
ATOM     19  C   UNL     1       2.380   6.178  19.831  0.00  0.00    +0.000 A 
ATOM     20  C   UNL     1       1.664   5.196  20.517  0.00  0.00    +0.000 A 
ATOM     21  C   UNL     1       1.678   3.893  20.066  0.00  0.00    +0.000 A 
ATOM     22  N   UNL     1       2.354   3.486  18.982  0.00  0.00    +0.000 NA
ATOM     23  C   UNL     1       3.073   4.399  18.321  0.00  0.00    +0.000 A 
ATOM     24  C   UNL     1       3.774   3.946  17.215  0.00  0.00    +0.000 A 
ATOM     25  C   UNL     1       4.593   4.795  16.482  0.00  0.00    +0.000 A 
ATOM     26 CL   UNL     1       5.455   4.184  15.123  0.00  0.00    +0.000 Cl
ATOM     27  C   UNL     1       4.724   6.125  16.847  0.00  0.00    +0.000 A 
ATOM     28  C   UNL     1       3.997   6.612  17.938  0.00  0.00    +0.000 A 
ATOM     29  C   UNL     1       3.146   5.766  18.698  0.00  0.00    +0.000 A 
ENDBRANCH  17  19
ENDBRANCH  16  17
ENDBRANCH   1  16
TORSDOF 5
ENDMDL
MODEL 7
REMARK VINA RESULT:      -7.9      1.738      2.395
REMARK  Name = 
REMARK  5 active torsions:
REMARK  status: ('A' for Active; 'I' for Inactive)
REMARK    1  A    between atoms: C_5  and  C_6
REMARK    2  A    between atoms: N_14  and  C_15
REMARK    3  A    between atoms: C_15  and  C_16
REMARK    4  A    between atoms: C_16  and  N_17
REMARK    5  A    between atoms: N_17  and  C_18
REMARK                            x       y       z     vdW  Elec       q    Type
REMARK                         _______ _______ _______ _____ _____    ______ ____
ROOT
ATOM      1  C   UNL     1       3.134   6.582  19.312  0.00  0.00    +0.000 C 
ENDROOT
BRANCH   1   7
ATOM      2  O   UNL     1       1.124   5.004  20.724  0.00  0.00    +0.000 OA
ATOM      3  C   UNL     1       2.147   4.488  20.285  0.00  0.00    +0.000 C 
ATOM      4  C   UNL     1       2.459   3.030  20.536  0.00  0.00    +0.000 C 
ATOM      5  S   UNL     1       4.150   2.729  20.006  0.00  0.00    +0.000 S 
ATOM      6  C   UNL     1       4.389   4.426  19.433  0.00  0.00    +0.000 C 
ATOM      7  N   UNL     1       3.123   5.132  19.535  0.00  0.00    +0.000 N 
BRANCH   6   8
ATOM      8  C   UNL     1       5.102   4.501  18.094  0.00  0.00    +0.000 A 
ATOM      9  C   UNL     1       4.518   4.051  16.891  0.00  0.00    +0.000 A 
ATOM     10 CL   UNL     1       2.887   3.479  16.794  0.00  0.00    +0.000 Cl
ATOM     11  C   UNL     1       5.237   4.049  15.685  0.00  0.00    +0.000 A 
ATOM     12  C   UNL     1       6.547   4.515  15.638  0.00  0.00    +0.000 A 
ATOM     13  C   UNL     1       7.133   4.998  16.798  0.00  0.00    +0.000 A 
ATOM     14  C   UNL     1       6.425   4.996  18.008  0.00  0.00    +0.000 A 
ATOM     15 CL   UNL     1       7.270   5.654  19.371  0.00  0.00    +0.000 Cl
ENDBRANCH   6   8
ENDBRANCH   1   7
BRANCH   1  16
ATOM     16  C   UNL     1       2.114   7.225  18.347  0.00  0.00    +0.000 C 
BRANCH  16  17
ATOM     17  N   UNL     1       2.033   8.682  18.448  0.00  0.00    +0.000 N 
ATOM     18  H   UNL     1       2.285   9.144  17.580  0.00  0.00    +0.000 HD
BRANCH  17  19
ATOM     19  C   UNL     1       1.111   9.331  19.275  0.00  0.00    +0.000 A 
ATOM     20  C   UNL     1       1.412   9.563  20.618  0.00  0.00    +0.000 A 
ATOM     21  C   UNL     1       0.562  10.324  21.392  0.00  0.00    +0.000 A 
ATOM     22  N   UNL     1      -0.572  10.874  20.935  0.00  0.00    +0.000 NA
ATOM     23  C   UNL     1      -0.902  10.645  19.660  0.00  0.00    +0.000 A 
ATOM     24  C   UNL     1      -2.086  11.212  19.221  0.00  0.00    +0.000 A 
ATOM     25  C   UNL     1      -2.555  11.000  17.930  0.00  0.00    +0.000 A 
ATOM     26 CL   UNL     1      -4.039  11.714  17.433  0.00  0.00    +0.000 Cl
ATOM     27  C   UNL     1      -1.834  10.209  17.049  0.00  0.00    +0.000 A 
ATOM     28  C   UNL     1      -0.617   9.657  17.460  0.00  0.00    +0.000 A 
ATOM     29  C   UNL     1      -0.113   9.867  18.772  0.00  0.00    +0.000 A 
ENDBRANCH  17  19
ENDBRANCH  16  17
ENDBRANCH   1  16
TORSDOF 5
ENDMDL
MODEL 8
REMARK VINA RESULT:      -7.8      1.861      3.021
REMARK  Name = 
REMARK  5 active torsions:
REMARK  status: ('A' for Active; 'I' for Inactive)
REMARK    1  A    between atoms: C_5  and  C_6
REMARK    2  A    between atoms: N_14  and  C_15
REMARK    3  A    between atoms: C_15  and  C_16
REMARK    4  A    between atoms: C_16  and  N_17
REMARK    5  A    between atoms: N_17  and  C_18
REMARK                            x       y       z     vdW  Elec       q    Type
REMARK                         _______ _______ _______ _____ _____    ______ ____
ROOT
ATOM      1  C   UNL     1       2.734   6.467  18.888  0.00  0.00    +0.000 C 
ENDROOT
BRANCH   1   7
ATOM      2  O   UNL     1       0.838   4.825  20.383  0.00  0.00    +0.000 OA
ATOM      3  C   UNL     1       1.951   4.403  20.084  0.00  0.00    +0.000 C 
ATOM      4  C   UNL     1       2.427   3.047  20.556  0.00  0.00    +0.000 C 
ATOM      5  S   UNL     1       4.179   2.917  20.178  0.00  0.00    +0.000 S 
ATOM      6  C   UNL     1       4.243   4.541  19.388  0.00  0.00    +0.000 C 
ATOM      7  N   UNL     1       2.892   5.072  19.312  0.00  0.00    +0.000 N 
BRANCH   6   8
ATOM      8  C   UNL     1       5.044   4.537  18.097  0.00  0.00    +0.000 A 
ATOM      9  C   UNL     1       6.351   5.062  18.007  0.00  0.00    +0.000 A 
ATOM     10 CL   UNL     1       7.222   5.655  19.381  0.00  0.00    +0.000 Cl
ATOM     11  C   UNL     1       7.031   5.127  16.781  0.00  0.00    +0.000 A 
ATOM     12  C   UNL     1       6.439   4.650  15.615  0.00  0.00    +0.000 A 
ATOM     13  C   UNL     1       5.170   4.095  15.681  0.00  0.00    +0.000 A 
ATOM     14  C   UNL     1       4.481   4.034  16.901  0.00  0.00    +0.000 A 
ATOM     15 CL   UNL     1       2.918   3.288  16.841  0.00  0.00    +0.000 Cl
ENDBRANCH   6   8
ENDBRANCH   1   7
BRANCH   1  16
ATOM     16  C   UNL     1       2.122   7.505  19.854  0.00  0.00    +0.000 C 
BRANCH  16  17
ATOM     17  N   UNL     1       1.696   8.745  19.206  0.00  0.00    +0.000 N 
ATOM     18  H   UNL     1       1.733   8.685  18.194  0.00  0.00    +0.000 HD
BRANCH  17  19
ATOM     19  C   UNL     1       0.736   9.596  19.763  0.00  0.00    +0.000 A 
ATOM     20  C   UNL     1       0.914  10.112  21.047  0.00  0.00    +0.000 A 
ATOM     21  C   UNL     1       0.036  11.058  21.535  0.00  0.00    +0.000 A 
ATOM     22  N   UNL     1      -1.011  11.531  20.845  0.00  0.00    +0.000 NA
ATOM     23  C   UNL     1      -1.224  11.033  19.623  0.00  0.00    +0.000 A 
ATOM     24  C   UNL     1      -2.322  11.529  18.940  0.00  0.00    +0.000 A 
ATOM     25  C   UNL     1      -2.670  11.049  17.684  0.00  0.00    +0.000 A 
ATOM     26 CL   UNL     1      -4.051  11.686  16.880  0.00  0.00    +0.000 Cl
ATOM     27  C   UNL     1      -1.913  10.055  17.084  0.00  0.00    +0.000 A 
ATOM     28  C   UNL     1      -0.778   9.567  17.739  0.00  0.00    +0.000 A 
ATOM     29  C   UNL     1      -0.398  10.048  19.021  0.00  0.00    +0.000 A 
ENDBRANCH  17  19
ENDBRANCH  16  17
ENDBRANCH   1  16
TORSDOF 5
ENDMDL
MODEL 9
REMARK VINA RESULT:      -7.8      1.464      2.808
REMARK  Name = 
REMARK  5 active torsions:
REMARK  status: ('A' for Active; 'I' for Inactive)
REMARK    1  A    between atoms: C_5  and  C_6
REMARK    2  A    between atoms: N_14  and  C_15
REMARK    3  A    between atoms: C_15  and  C_16
REMARK    4  A    between atoms: C_16  and  N_17
REMARK    5  A    between atoms: N_17  and  C_18
REMARK                            x       y       z     vdW  Elec       q    Type
REMARK                         _______ _______ _______ _____ _____    ______ ____
ROOT
ATOM      1  C   UNL     1       2.531   6.131  18.971  0.00  0.00    +0.000 C 
ENDROOT
BRANCH   1   7
ATOM      2  O   UNL     1       0.729   4.254  20.296  0.00  0.00    +0.000 OA
ATOM      3  C   UNL     1       1.874   3.932  19.992  0.00  0.00    +0.000 C 
ATOM      4  C   UNL     1       2.435   2.580  20.371  0.00  0.00    +0.000 C 
ATOM      5  S   UNL     1       4.198   2.599  20.023  0.00  0.00    +0.000 S 
ATOM      6  C   UNL     1       4.162   4.279  19.358  0.00  0.00    +0.000 C 
ATOM      7  N   UNL     1       2.779   4.721  19.292  0.00  0.00    +0.000 N 
BRANCH   6   8
ATOM      8  C   UNL     1       4.983   4.429  18.089  0.00  0.00    +0.000 A 
ATOM      9  C   UNL     1       6.255   5.040  18.069  0.00  0.00    +0.000 A 
ATOM     10 CL   UNL     1       7.063   5.577  19.504  0.00  0.00    +0.000 Cl
ATOM     11  C   UNL     1       6.949   5.245  16.867  0.00  0.00    +0.000 A 
ATOM     12  C   UNL     1       6.409   4.827  15.654  0.00  0.00    +0.000 A 
ATOM     13  C   UNL     1       5.178   4.188  15.649  0.00  0.00    +0.000 A 
ATOM     14  C   UNL     1       4.474   3.988  16.845  0.00  0.00    +0.000 A 
ATOM     15 CL   UNL     1       2.963   3.152  16.693  0.00  0.00    +0.000 Cl
ENDBRANCH   6   8
ENDBRANCH   1   7
BRANCH   1  16
ATOM     16  C   UNL     1       2.328   7.159  20.105  0.00  0.00    +0.000 C 
BRANCH  16  17
ATOM     17  N   UNL     1       1.560   8.340  19.711  0.00  0.00    +0.000 N 
ATOM     18  H   UNL     1       1.116   8.226  18.805  0.00  0.00    +0.000 HD
BRANCH  17  19
ATOM     19  C   UNL     1       0.923   9.170  20.638  0.00  0.00    +0.000 A 
ATOM     20  C   UNL     1       0.668   8.713  21.932  0.00  0.00    +0.000 A 
ATOM     21  C   UNL     1       0.169   9.580  22.881  0.00  0.00    +0.000 A 
ATOM     22  N   UNL     1      -0.102  10.871  22.644  0.00  0.00    +0.000 NA
ATOM     23  C   UNL     1       0.104  11.331  21.405  0.00  0.00    +0.000 A 
ATOM     24  C   UNL     1      -0.200  12.663  21.185  0.00  0.00    +0.000 A 
ATOM     25  C   UNL     1      -0.072  13.236  19.926  0.00  0.00    +0.000 A 
ATOM     26 CL   UNL     1      -0.475  14.893  19.698  0.00  0.00    +0.000 Cl
ATOM     27  C   UNL     1       0.368  12.474  18.855  0.00  0.00    +0.000 A 
ATOM     28  C   UNL     1       0.716  11.135  19.063  0.00  0.00    +0.000 A 
ATOM     29  C   UNL     1       0.602  10.530  20.343  0.00  0.00    +0.000 A 
ENDBRANCH  17  19
ENDBRANCH  16  17
ENDBRANCH   1  16
TORSDOF 5
ENDMDL
