MODEL 1
REMARK VINA RESULT:      -9.3      0.000      0.000
REMARK  Name = 
REMARK  3 active torsions:
REMARK  status: ('A' for Active; 'I' for Inactive)
REMARK    1  A    between atoms: N_1  and  C_2
REMARK    2  A    between atoms: C_8  and  C_9
REMARK    3  A    between atoms: N_21  and  C_22
REMARK                            x       y       z     vdW  Elec       q    Type
REMARK                         _______ _______ _______ _____ _____    ______ ____
ROOT
ATOM      1  C   UNL     1       3.780   3.188  20.036  0.00  0.00    +0.000 A 
ATOM      2  N   UNL     1       3.011   2.635  20.999  0.00  0.00    +0.000 NA
ATOM      3  C   UNL     1       2.037   3.371  21.555  0.00  0.00    +0.000 A 
ATOM      4  N   UNL     1       1.714   4.647  21.283  0.00  0.00    +0.000 NA
ATOM      5  C   UNL     1       2.497   5.156  20.314  0.00  0.00    +0.000 A 
ATOM      6  C   UNL     1       3.527   4.508  19.647  0.00  0.00    +0.000 A 
ATOM      7  C   UNL     1       4.008   5.473  18.706  0.00  0.00    +0.000 A 
ATOM      8  N   UNL     1       3.365   6.648  18.849  0.00  0.00    +0.000 NA
ATOM      9  N   UNL     1       2.432   6.417  19.794  0.00  0.00    +0.000 N 
ENDROOT
BRANCH   7  10
ATOM     10  C   UNL     1       5.033   5.342  17.661  0.00  0.00    +0.000 A 
ATOM     11  C   UNL     1       6.276   5.977  17.821  0.00  0.00    +0.000 A 
ATOM     12  C   UNL     1       7.207   6.003  16.780  0.00  0.00    +0.000 A 
ATOM     13  C   UNL     1       6.910   5.355  15.586  0.00  0.00    +0.000 A 
ATOM     14  N   UNL     1       7.747   5.509  14.473  0.00  0.00    +0.000 N 
ATOM     15  C   UNL     1       7.467   4.961  13.249  0.00  0.00    +0.000 A 
ATOM     16  O   UNL     1       8.085   5.258  12.233  0.00  0.00    +0.000 OA
ATOM     17  C   UNL     1       6.379   3.952  13.211  0.00  0.00    +0.000 A 
ATOM     18  C   UNL     1       5.544   3.802  14.247  0.00  0.00    +0.000 A 
ATOM     19  C   UNL     1       5.732   4.612  15.452  0.00  0.00    +0.000 A 
ATOM     20  C   UNL     1       4.773   4.656  16.466  0.00  0.00    +0.000 A 
ATOM     21  H   UNL     1       8.508   6.174  14.498  0.00  0.00    +0.000 HD
ENDBRANCH   7  10
BRANCH   9  22
ATOM     22  C   UNL     1       1.463   7.435  20.134  0.00  0.00    +0.000 C 
ATOM     23  C   UNL     1       1.642   8.053  21.518  0.00  0.00    +0.000 C 
ATOM     24  C   UNL     1       0.796   9.320  21.458  0.00  0.00    +0.000 C 
ATOM     25  C   UNL     1       0.813   9.768  19.996  0.00  0.00    +0.000 C 
ATOM     26  C   UNL     1       1.490   8.651  19.205  0.00  0.00    +0.000 C 
ENDBRANCH   9  22
BRANCH   1  27
ATOM     27  N   UNL     1       4.786   2.373  19.525  0.00  0.00    +0.000 N 
ATOM     28  H   UNL     1       5.211   1.838  20.274  0.00  0.00    +0.000 HD
ATOM     29  H   UNL     1       5.437   2.847  18.912  0.00  0.00    +0.000 HD
ENDBRANCH   1  27
TORSDOF 3
ENDMDL
MODEL 2
REMARK VINA RESULT:      -9.1      3.199      7.249
REMARK  Name = 
REMARK  3 active torsions:
REMARK  status: ('A' for Active; 'I' for Inactive)
REMARK    1  A    between atoms: N_1  and  C_2
REMARK    2  A    between atoms: C_8  and  C_9
REMARK    3  A    between atoms: N_21  and  C_22
REMARK                            x       y       z     vdW  Elec       q    Type
REMARK                         _______ _______ _______ _____ _____    ______ ____
ROOT
ATOM      1  C   UNL     1       1.772   3.656  19.458  0.00  0.00    +0.000 A 
ATOM      2  N   UNL     1       1.948   2.322  19.575  0.00  0.00    +0.000 NA
ATOM      3  C   UNL     1       2.939   1.735  18.888  0.00  0.00    +0.000 A 
ATOM      4  N   UNL     1       3.815   2.315  18.050  0.00  0.00    +0.000 NA
ATOM      5  C   UNL     1       3.611   3.643  17.970  0.00  0.00    +0.000 A 
ATOM      6  C   UNL     1       2.638   4.380  18.630  0.00  0.00    +0.000 A 
ATOM      7  C   UNL     1       2.875   5.732  18.226  0.00  0.00    +0.000 A 
ATOM      8  N   UNL     1       3.873   5.798  17.323  0.00  0.00    +0.000 NA
ATOM      9  N   UNL     1       4.326   4.532  17.219  0.00  0.00    +0.000 N 
ENDROOT
BRANCH   7  10
ATOM     10  C   UNL     1       2.222   6.974  18.661  0.00  0.00    +0.000 A 
ATOM     11  C   UNL     1       1.961   7.989  17.724  0.00  0.00    +0.000 A 
ATOM     12  C   UNL     1       1.489   9.239  18.133  0.00  0.00    +0.000 A 
ATOM     13  C   UNL     1       1.238   9.462  19.482  0.00  0.00    +0.000 A 
ATOM     14  N   UNL     1       0.930  10.751  19.938  0.00  0.00    +0.000 N 
ATOM     15  C   UNL     1       0.750  11.049  21.264  0.00  0.00    +0.000 A 
ATOM     16  O   UNL     1       0.681  12.199  21.680  0.00  0.00    +0.000 OA
ATOM     17  C   UNL     1       0.612   9.894  22.186  0.00  0.00    +0.000 A 
ATOM     18  C   UNL     1       0.928   8.655  21.790  0.00  0.00    +0.000 A 
ATOM     19  C   UNL     1       1.372   8.427  20.414  0.00  0.00    +0.000 A 
ATOM     20  C   UNL     1       1.919   7.206  20.010  0.00  0.00    +0.000 A 
ATOM     21  H   UNL     1       0.994  11.540  19.310  0.00  0.00    +0.000 HD
ENDBRANCH   7  10
BRANCH   9  22
ATOM     22  C   UNL     1       5.487   4.232  16.412  0.00  0.00    +0.000 C 
ATOM     23  C   UNL     1       5.247   4.265  14.905  0.00  0.00    +0.000 C 
ATOM     24  C   UNL     1       6.652   4.325  14.319  0.00  0.00    +0.000 C 
ATOM     25  C   UNL     1       7.510   5.052  15.354  0.00  0.00    +0.000 C 
ATOM     26  C   UNL     1       6.644   5.217  16.600  0.00  0.00    +0.000 C 
ENDBRANCH   9  22
BRANCH   1  27
ATOM     27  N   UNL     1       0.709   4.191  20.180  0.00  0.00    +0.000 N 
ATOM     28  H   UNL     1       0.887   5.168  20.385  0.00  0.00    +0.000 HD
ATOM     29  H   UNL     1       0.416   3.631  20.970  0.00  0.00    +0.000 HD
ENDBRANCH   1  27
TORSDOF 3
ENDMDL
MODEL 3
REMARK VINA RESULT:      -8.8      3.233      7.126
REMARK  Name = 
REMARK  3 active torsions:
REMARK  status: ('A' for Active; 'I' for Inactive)
REMARK    1  A    between atoms: N_1  and  C_2
REMARK    2  A    between atoms: C_8  and  C_9
REMARK    3  A    between atoms: N_21  and  C_22
REMARK                            x       y       z     vdW  Elec       q    Type
REMARK                         _______ _______ _______ _____ _____    ______ ____
ROOT
ATOM      1  C   UNL     1       1.705   3.482  19.411  0.00  0.00    +0.000 A 
ATOM      2  N   UNL     1       1.781   2.136  19.335  0.00  0.00    +0.000 NA
ATOM      3  C   UNL     1       2.724   1.581  18.560  0.00  0.00    +0.000 A 
ATOM      4  N   UNL     1       3.639   2.209  17.801  0.00  0.00    +0.000 NA
ATOM      5  C   UNL     1       3.534   3.546  17.913  0.00  0.00    +0.000 A 
ATOM      6  C   UNL     1       2.619   4.250  18.683  0.00  0.00    +0.000 A 
ATOM      7  C   UNL     1       2.955   5.625  18.470  0.00  0.00    +0.000 A 
ATOM      8  N   UNL     1       3.953   5.746  17.573  0.00  0.00    +0.000 NA
ATOM      9  N   UNL     1       4.311   4.478  17.285  0.00  0.00    +0.000 N 
ENDROOT
BRANCH   7  10
ATOM     10  C   UNL     1       2.397   6.838  19.085  0.00  0.00    +0.000 A 
ATOM     11  C   UNL     1       2.055   6.834  20.448  0.00  0.00    +0.000 A 
ATOM     12  C   UNL     1       1.377   7.913  21.021  0.00  0.00    +0.000 A 
ATOM     13  C   UNL     1       1.076   9.020  20.236  0.00  0.00    +0.000 A 
ATOM     14  N   UNL     1       0.253  10.037  20.737  0.00  0.00    +0.000 N 
ATOM     15  C   UNL     1      -0.144  11.113  19.987  0.00  0.00    +0.000 A 
ATOM     16  O   UNL     1      -1.016  11.890  20.354  0.00  0.00    +0.000 OA
ATOM     17  C   UNL     1       0.565  11.315  18.698  0.00  0.00    +0.000 A 
ATOM     18  C   UNL     1       1.334  10.350  18.178  0.00  0.00    +0.000 A 
ATOM     19  C   UNL     1       1.518   9.096  18.910  0.00  0.00    +0.000 A 
ATOM     20  C   UNL     1       2.123   7.983  18.324  0.00  0.00    +0.000 A 
ATOM     21  H   UNL     1      -0.213   9.921  21.628  0.00  0.00    +0.000 HD
ENDBRANCH   7  10
BRANCH   9  22
ATOM     22  C   UNL     1       5.445   4.212  16.430  0.00  0.00    +0.000 C 
ATOM     23  C   UNL     1       5.144   4.257  14.934  0.00  0.00    +0.000 C 
ATOM     24  C   UNL     1       6.523   4.353  14.293  0.00  0.00    +0.000 C 
ATOM     25  C   UNL     1       7.407   5.086  15.302  0.00  0.00    +0.000 C 
ATOM     26  C   UNL     1       6.588   5.219  16.584  0.00  0.00    +0.000 C 
ENDBRANCH   9  22
BRANCH   1  27
ATOM     27  N   UNL     1       0.685   3.985  20.214  0.00  0.00    +0.000 N 
ATOM     28  H   UNL     1      -0.217   3.747  19.816  0.00  0.00    +0.000 HD
ATOM     29  H   UNL     1       0.798   4.956  20.474  0.00  0.00    +0.000 HD
ENDBRANCH   1  27
TORSDOF 3
ENDMDL
MODEL 4
REMARK VINA RESULT:      -8.4      3.362      7.598
REMARK  Name = 
REMARK  3 active torsions:
REMARK  status: ('A' for Active; 'I' for Inactive)
REMARK    1  A    between atoms: N_1  and  C_2
REMARK    2  A    between atoms: C_8  and  C_9
REMARK    3  A    between atoms: N_21  and  C_22
REMARK                            x       y       z     vdW  Elec       q    Type
REMARK                         _______ _______ _______ _____ _____    ______ ____
ROOT
ATOM      1  C   UNL     1       2.159   4.397  19.629  0.00  0.00    +0.000 A 
ATOM      2  N   UNL     1       2.560   3.108  19.675  0.00  0.00    +0.000 NA
ATOM      3  C   UNL     1       3.576   2.716  18.893  0.00  0.00    +0.000 A 
ATOM      4  N   UNL     1       4.276   3.459  18.018  0.00  0.00    +0.000 NA
ATOM      5  C   UNL     1       3.851   4.736  18.010  0.00  0.00    +0.000 A 
ATOM      6  C   UNL     1       2.825   5.279  18.771  0.00  0.00    +0.000 A 
ATOM      7  C   UNL     1       2.803   6.663  18.408  0.00  0.00    +0.000 A 
ATOM      8  N   UNL     1       3.701   6.922  17.438  0.00  0.00    +0.000 NA
ATOM      9  N   UNL     1       4.347   5.754  17.247  0.00  0.00    +0.000 N 
ENDROOT
BRANCH   7  10
ATOM     10  C   UNL     1       1.991   7.765  18.942  0.00  0.00    +0.000 A 
ATOM     11  C   UNL     1       1.631   8.835  18.105  0.00  0.00    +0.000 A 
ATOM     12  C   UNL     1       0.999   9.969  18.621  0.00  0.00    +0.000 A 
ATOM     13  C   UNL     1       0.688  10.017  19.975  0.00  0.00    +0.000 A 
ATOM     14  N   UNL     1       0.212  11.203  20.548  0.00  0.00    +0.000 N 
ATOM     15  C   UNL     1      -0.036  11.336  21.889  0.00  0.00    +0.000 A 
ATOM     16  O   UNL     1      -0.257  12.419  22.417  0.00  0.00    +0.000 OA
ATOM     17  C   UNL     1      -0.054  10.082  22.684  0.00  0.00    +0.000 A 
ATOM     18  C   UNL     1       0.422   8.939  22.175  0.00  0.00    +0.000 A 
ATOM     19  C   UNL     1       0.925   8.912  20.801  0.00  0.00    +0.000 A 
ATOM     20  C   UNL     1       1.628   7.816  20.295  0.00  0.00    +0.000 A 
ATOM     21  H   UNL     1       0.194  12.057  20.007  0.00  0.00    +0.000 HD
ENDBRANCH   7  10
BRANCH   9  22
ATOM     22  C   UNL     1       5.474   5.677  16.345  0.00  0.00    +0.000 C 
ATOM     23  C   UNL     1       6.750   5.108  16.960  0.00  0.00    +0.000 C 
ATOM     24  C   UNL     1       7.610   4.765  15.749  0.00  0.00    +0.000 C 
ATOM     25  C   UNL     1       6.634   4.423  14.623  0.00  0.00    +0.000 C 
ATOM     26  C   UNL     1       5.238   4.771  15.134  0.00  0.00    +0.000 C 
ENDBRANCH   9  22
BRANCH   1  27
ATOM     27  N   UNL     1       1.082   4.724  20.448  0.00  0.00    +0.000 N 
ATOM     28  H   UNL     1       0.631   3.878  20.779  0.00  0.00    +0.000 HD
ATOM     29  H   UNL     1       0.459   5.421  20.062  0.00  0.00    +0.000 HD
ENDBRANCH   1  27
TORSDOF 3
ENDMDL
MODEL 5
REMARK VINA RESULT:      -8.1      3.398      7.490
REMARK  Name = 
REMARK  3 active torsions:
REMARK  status: ('A' for Active; 'I' for Inactive)
REMARK    1  A    between atoms: N_1  and  C_2
REMARK    2  A    between atoms: C_8  and  C_9
REMARK    3  A    between atoms: N_21  and  C_22
REMARK                            x       y       z     vdW  Elec       q    Type
REMARK                         _______ _______ _______ _____ _____    ______ ____
ROOT
ATOM      1  C   UNL     1       1.999   4.156  19.342  0.00  0.00    +0.000 A 
ATOM      2  N   UNL     1       2.265   2.843  19.166  0.00  0.00    +0.000 NA
ATOM      3  C   UNL     1       3.209   2.484  18.284  0.00  0.00    +0.000 A 
ATOM      4  N   UNL     1       3.953   3.287  17.504  0.00  0.00    +0.000 NA
ATOM      5  C   UNL     1       3.664   4.584  17.717  0.00  0.00    +0.000 A 
ATOM      6  C   UNL     1       2.725   5.095  18.603  0.00  0.00    +0.000 A 
ATOM      7  C   UNL     1       2.836   6.515  18.463  0.00  0.00    +0.000 A 
ATOM      8  N   UNL     1       3.725   6.838  17.503  0.00  0.00    +0.000 NA
ATOM      9  N   UNL     1       4.239   5.658  17.100  0.00  0.00    +0.000 N 
ENDROOT
BRANCH   7  10
ATOM     10  C   UNL     1       2.161   7.591  19.202  0.00  0.00    +0.000 A 
ATOM     11  C   UNL     1       1.931   7.450  20.581  0.00  0.00    +0.000 A 
ATOM     12  C   UNL     1       1.154   8.379  21.278  0.00  0.00    +0.000 A 
ATOM     13  C   UNL     1       0.638   9.478  20.599  0.00  0.00    +0.000 A 
ATOM     14  N   UNL     1      -0.279  10.328  21.229  0.00  0.00    +0.000 N 
ATOM     15  C   UNL     1      -0.882  11.380  20.589  0.00  0.00    +0.000 A 
ATOM     16  O   UNL     1      -1.825  11.996  21.072  0.00  0.00    +0.000 OA
ATOM     17  C   UNL     1      -0.313  11.765  19.274  0.00  0.00    +0.000 A 
ATOM     18  C   UNL     1       0.543  10.959  18.632  0.00  0.00    +0.000 A 
ATOM     19  C   UNL     1       0.960   9.702  19.256  0.00  0.00    +0.000 A 
ATOM     20  C   UNL     1       1.669   8.729  18.548  0.00  0.00    +0.000 A 
ATOM     21  H   UNL     1      -0.652  10.089  22.138  0.00  0.00    +0.000 HD
ENDBRANCH   7  10
BRANCH   9  22
ATOM     22  C   UNL     1       5.322   5.617  16.144  0.00  0.00    +0.000 C 
ATOM     23  C   UNL     1       6.663   5.164  16.713  0.00  0.00    +0.000 C 
ATOM     24  C   UNL     1       7.484   4.827  15.474  0.00  0.00    +0.000 C 
ATOM     25  C   UNL     1       6.480   4.370  14.416  0.00  0.00    +0.000 C 
ATOM     26  C   UNL     1       5.090   4.645  14.985  0.00  0.00    +0.000 C 
ENDBRANCH   9  22
BRANCH   1  27
ATOM     27  N   UNL     1       0.989   4.450  20.254  0.00  0.00    +0.000 N 
ATOM     28  H   UNL     1       1.081   3.859  21.073  0.00  0.00    +0.000 HD
ATOM     29  H   UNL     1       0.061   4.488  19.853  0.00  0.00    +0.000 HD
ENDBRANCH   1  27
TORSDOF 3
ENDMDL
MODEL 6
REMARK VINA RESULT:      -8.1      0.741      1.030
REMARK  Name = 
REMARK  3 active torsions:
REMARK  status: ('A' for Active; 'I' for Inactive)
REMARK    1  A    between atoms: N_1  and  C_2
REMARK    2  A    between atoms: C_8  and  C_9
REMARK    3  A    between atoms: N_21  and  C_22
REMARK                            x       y       z     vdW  Elec       q    Type
REMARK                         _______ _______ _______ _____ _____    ______ ____
ROOT
ATOM      1  C   UNL     1       2.805   3.098  19.186  0.00  0.00    +0.000 A 
ATOM      2  N   UNL     1       1.809   2.580  19.936  0.00  0.00    +0.000 NA
ATOM      3  C   UNL     1       1.046   3.408  20.665  0.00  0.00    +0.000 A 
ATOM      4  N   UNL     1       1.148   4.745  20.767  0.00  0.00    +0.000 NA
ATOM      5  C   UNL     1       2.145   5.220  19.998  0.00  0.00    +0.000 A 
ATOM      6  C   UNL     1       3.000   4.484  19.189  0.00  0.00    +0.000 A 
ATOM      7  C   UNL     1       3.843   5.462  18.574  0.00  0.00    +0.000 A 
ATOM      8  N   UNL     1       3.568   6.697  19.038  0.00  0.00    +0.000 NA
ATOM      9  N   UNL     1       2.514   6.528  19.862  0.00  0.00    +0.000 N 
ENDROOT
BRANCH   7  10
ATOM     10  C   UNL     1       4.886   5.299  17.552  0.00  0.00    +0.000 A 
ATOM     11  C   UNL     1       6.157   5.861  17.758  0.00  0.00    +0.000 A 
ATOM     12  C   UNL     1       7.116   5.861  16.741  0.00  0.00    +0.000 A 
ATOM     13  C   UNL     1       6.815   5.258  15.525  0.00  0.00    +0.000 A 
ATOM     14  N   UNL     1       7.688   5.392  14.437  0.00  0.00    +0.000 N 
ATOM     15  C   UNL     1       7.411   4.889  13.193  0.00  0.00    +0.000 A 
ATOM     16  O   UNL     1       8.071   5.174  12.201  0.00  0.00    +0.000 OA
ATOM     17  C   UNL     1       6.271   3.942  13.103  0.00  0.00    +0.000 A 
ATOM     18  C   UNL     1       5.402   3.814  14.114  0.00  0.00    +0.000 A 
ATOM     19  C   UNL     1       5.602   4.584  15.343  0.00  0.00    +0.000 A 
ATOM     20  C   UNL     1       4.621   4.657  16.334  0.00  0.00    +0.000 A 
ATOM     21  H   UNL     1       8.483   6.013  14.497  0.00  0.00    +0.000 HD
ENDBRANCH   7  10
BRANCH   9  22
ATOM     22  C   UNL     1       1.863   7.669  20.465  0.00  0.00    +0.000 C 
ATOM     23  C   UNL     1       1.414   8.745  19.479  0.00  0.00    +0.000 C 
ATOM     24  C   UNL     1       0.438   9.589  20.291  0.00  0.00    +0.000 C 
ATOM     25  C   UNL     1      -0.192   8.641  21.311  0.00  0.00    +0.000 C 
ATOM     26  C   UNL     1       0.574   7.323  21.213  0.00  0.00    +0.000 C 
ENDBRANCH   9  22
BRANCH   1  27
ATOM     27  N   UNL     1       3.570   2.176  18.478  0.00  0.00    +0.000 N 
ATOM     28  H   UNL     1       3.268   1.234  18.701  0.00  0.00    +0.000 HD
ATOM     29  H   UNL     1       4.568   2.331  18.532  0.00  0.00    +0.000 HD
ENDBRANCH   1  27
TORSDOF 3
ENDMDL
MODEL 7
REMARK VINA RESULT:      -8.0      3.814      7.687
REMARK  Name = 
REMARK  3 active torsions:
REMARK  status: ('A' for Active; 'I' for Inactive)
REMARK    1  A    between atoms: N_1  and  C_2
REMARK    2  A    between atoms: C_8  and  C_9
REMARK    3  A    between atoms: N_21  and  C_22
REMARK                            x       y       z     vdW  Elec       q    Type
REMARK                         _______ _______ _______ _____ _____    ______ ____
ROOT
ATOM      1  C   UNL     1       1.593   4.259  20.024  0.00  0.00    +0.000 A 
ATOM      2  N   UNL     1       1.931   2.951  20.028  0.00  0.00    +0.000 NA
ATOM      3  C   UNL     1       3.139   2.590  19.569  0.00  0.00    +0.000 A 
ATOM      4  N   UNL     1       4.100   3.386  19.070  0.00  0.00    +0.000 NA
ATOM      5  C   UNL     1       3.727   4.679  19.093  0.00  0.00    +0.000 A 
ATOM      6  C   UNL     1       2.520   5.192  19.548  0.00  0.00    +0.000 A 
ATOM      7  C   UNL     1       2.647   6.608  19.381  0.00  0.00    +0.000 A 
ATOM      8  N   UNL     1       3.818   6.922  18.793  0.00  0.00    +0.000 NA
ATOM      9  N   UNL     1       4.467   5.746  18.669  0.00  0.00    +0.000 N 
ENDROOT
BRANCH   7  10
ATOM     10  C   UNL     1       1.728   7.688  19.765  0.00  0.00    +0.000 A 
ATOM     11  C   UNL     1       1.359   8.659  18.817  0.00  0.00    +0.000 A 
ATOM     12  C   UNL     1       0.618   9.782  19.192  0.00  0.00    +0.000 A 
ATOM     13  C   UNL     1       0.208   9.915  20.514  0.00  0.00    +0.000 A 
ATOM     14  N   UNL     1      -0.385  11.107  20.952  0.00  0.00    +0.000 N 
ATOM     15  C   UNL     1      -0.738  11.328  22.257  0.00  0.00    +0.000 A 
ATOM     16  O   UNL     1      -1.067  12.431  22.676  0.00  0.00    +0.000 OA
ATOM     17  C   UNL     1      -0.731  10.144  23.152  0.00  0.00    +0.000 A 
ATOM     18  C   UNL     1      -0.145   9.000  22.775  0.00  0.00    +0.000 A 
ATOM     19  C   UNL     1       0.457   8.900  21.444  0.00  0.00    +0.000 A 
ATOM     20  C   UNL     1       1.265   7.820  21.081  0.00  0.00    +0.000 A 
ATOM     21  H   UNL     1      -0.420  11.911  20.340  0.00  0.00    +0.000 HD
ENDBRANCH   7  10
BRANCH   9  22
ATOM     22  C   UNL     1       5.824   5.705  18.175  0.00  0.00    +0.000 C 
ATOM     23  C   UNL     1       6.245   6.923  17.357  0.00  0.00    +0.000 C 
ATOM     24  C   UNL     1       7.766   6.821  17.318  0.00  0.00    +0.000 C 
ATOM     25  C   UNL     1       8.174   6.119  18.613  0.00  0.00    +0.000 C 
ATOM     26  C   UNL     1       6.884   5.645  19.278  0.00  0.00    +0.000 C 
ENDBRANCH   9  22
BRANCH   1  27
ATOM     27  N   UNL     1       0.315   4.554  20.489  0.00  0.00    +0.000 N 
ATOM     28  H   UNL     1       0.316   5.458  20.949  0.00  0.00    +0.000 HD
ATOM     29  H   UNL     1      -0.123   3.806  21.011  0.00  0.00    +0.000 HD
ENDBRANCH   1  27
TORSDOF 3
ENDMDL
MODEL 8
REMARK VINA RESULT:      -7.9      3.363      5.689
REMARK  Name = 
REMARK  3 active torsions:
REMARK  status: ('A' for Active; 'I' for Inactive)
REMARK    1  A    between atoms: N_1  and  C_2
REMARK    2  A    between atoms: C_8  and  C_9
REMARK    3  A    between atoms: N_21  and  C_22
REMARK                            x       y       z     vdW  Elec       q    Type
REMARK                         _______ _______ _______ _____ _____    ______ ____
ROOT
ATOM      1  C   UNL     1       1.037   9.661  21.761  0.00  0.00    +0.000 A 
ATOM      2  N   UNL     1       0.365  10.500  22.579  0.00  0.00    +0.000 NA
ATOM      3  C   UNL     1      -0.601  11.275  22.063  0.00  0.00    +0.000 A 
ATOM      4  N   UNL     1      -1.004  11.344  20.783  0.00  0.00    +0.000 NA
ATOM      5  C   UNL     1      -0.317  10.487  20.006  0.00  0.00    +0.000 A 
ATOM      6  C   UNL     1       0.694   9.624  20.405  0.00  0.00    +0.000 A 
ATOM      7  C   UNL     1       1.060   8.924  19.212  0.00  0.00    +0.000 A 
ATOM      8  N   UNL     1       0.372   9.387  18.150  0.00  0.00    +0.000 NA
ATOM      9  N   UNL     1      -0.479  10.298  18.663  0.00  0.00    +0.000 N 
ENDROOT
BRANCH   7  10
ATOM     10  C   UNL     1       2.013   7.822  19.020  0.00  0.00    +0.000 A 
ATOM     11  C   UNL     1       2.040   6.756  19.936  0.00  0.00    +0.000 A 
ATOM     12  C   UNL     1       3.037   5.780  19.872  0.00  0.00    +0.000 A 
ATOM     13  C   UNL     1       3.989   5.846  18.861  0.00  0.00    +0.000 A 
ATOM     14  N   UNL     1       5.092   4.983  18.874  0.00  0.00    +0.000 N 
ATOM     15  C   UNL     1       6.103   5.052  17.951  0.00  0.00    +0.000 A 
ATOM     16  O   UNL     1       7.156   4.439  18.076  0.00  0.00    +0.000 OA
ATOM     17  C   UNL     1       5.848   5.895  16.756  0.00  0.00    +0.000 A 
ATOM     18  C   UNL     1       4.820   6.752  16.725  0.00  0.00    +0.000 A 
ATOM     19  C   UNL     1       3.906   6.827  17.866  0.00  0.00    +0.000 A 
ATOM     20  C   UNL     1       2.955   7.844  17.982  0.00  0.00    +0.000 A 
ATOM     21  H   UNL     1       5.259   4.384  19.671  0.00  0.00    +0.000 HD
ENDBRANCH   7  10
BRANCH   9  22
ATOM     22  C   UNL     1      -1.469  10.933  17.822  0.00  0.00    +0.000 C 
ATOM     23  C   UNL     1      -2.024  10.050  16.707  0.00  0.00    +0.000 C 
ATOM     24  C   UNL     1      -3.283  10.785  16.261  0.00  0.00    +0.000 C 
ATOM     25  C   UNL     1      -3.798  11.525  17.494  0.00  0.00    +0.000 C 
ATOM     26  C   UNL     1      -2.727  11.377  18.572  0.00  0.00    +0.000 C 
ENDBRANCH   9  22
BRANCH   1  27
ATOM     27  N   UNL     1       2.042   8.909  22.361  0.00  0.00    +0.000 N 
ATOM     28  H   UNL     1       2.167   8.036  21.860  0.00  0.00    +0.000 HD
ATOM     29  H   UNL     1       1.955   8.819  23.365  0.00  0.00    +0.000 HD
ENDBRANCH   1  27
TORSDOF 3
ENDMDL
MODEL 9
REMARK VINA RESULT:      -7.5      3.673      6.299
REMARK  Name = 
REMARK  3 active torsions:
REMARK  status: ('A' for Active; 'I' for Inactive)
REMARK    1  A    between atoms: N_1  and  C_2
REMARK    2  A    between atoms: C_8  and  C_9
REMARK    3  A    between atoms: N_21  and  C_22
REMARK                            x       y       z     vdW  Elec       q    Type
REMARK                         _______ _______ _______ _____ _____    ______ ____
ROOT
ATOM      1  C   UNL     1       0.739   9.989  21.794  0.00  0.00    +0.000 A 
ATOM      2  N   UNL     1       0.050  10.773  22.651  0.00  0.00    +0.000 NA
ATOM      3  C   UNL     1      -0.948  11.534  22.177  0.00  0.00    +0.000 A 
ATOM      4  N   UNL     1      -1.369  11.638  20.905  0.00  0.00    +0.000 NA
ATOM      5  C   UNL     1      -0.664  10.835  20.087  0.00  0.00    +0.000 A 
ATOM      6  C   UNL     1       0.380   9.992  20.441  0.00  0.00    +0.000 A 
ATOM      7  C   UNL     1       0.753   9.351  19.218  0.00  0.00    +0.000 A 
ATOM      8  N   UNL     1       0.037   9.831  18.183  0.00  0.00    +0.000 NA
ATOM      9  N   UNL     1      -0.837  10.693  18.740  0.00  0.00    +0.000 N 
ENDROOT
BRANCH   7  10
ATOM     10  C   UNL     1       1.740   8.290  18.973  0.00  0.00    +0.000 A 
ATOM     11  C   UNL     1       2.644   8.412  17.904  0.00  0.00    +0.000 A 
ATOM     12  C   UNL     1       3.484   7.354  17.549  0.00  0.00    +0.000 A 
ATOM     13  C   UNL     1       3.450   6.180  18.294  0.00  0.00    +0.000 A 
ATOM     14  N   UNL     1       4.152   5.049  17.859  0.00  0.00    +0.000 N 
ATOM     15  C   UNL     1       4.094   3.842  18.506  0.00  0.00    +0.000 A 
ATOM     16  O   UNL     1       4.542   2.809  18.022  0.00  0.00    +0.000 OA
ATOM     17  C   UNL     1       3.480   3.847  19.857  0.00  0.00    +0.000 A 
ATOM     18  C   UNL     1       2.776   4.901  20.289  0.00  0.00    +0.000 A 
ATOM     19  C   UNL     1       2.648   6.084  19.437  0.00  0.00    +0.000 A 
ATOM     20  C   UNL     1       1.755   7.115  19.737  0.00  0.00    +0.000 A 
ATOM     21  H   UNL     1       4.598   5.045  16.952  0.00  0.00    +0.000 HD
ENDBRANCH   7  10
BRANCH   9  22
ATOM     22  C   UNL     1      -1.858  11.325  17.936  0.00  0.00    +0.000 C 
ATOM     23  C   UNL     1      -2.158  10.624  16.613  0.00  0.00    +0.000 C 
ATOM     24  C   UNL     1      -3.491  11.226  16.183  0.00  0.00    +0.000 C 
ATOM     25  C   UNL     1      -4.224  11.591  17.473  0.00  0.00    +0.000 C 
ATOM     26  C   UNL     1      -3.229  11.389  18.613  0.00  0.00    +0.000 C 
ENDBRANCH   9  22
BRANCH   1  27
ATOM     27  N   UNL     1       1.777   9.249  22.353  0.00  0.00    +0.000 N 
ATOM     28  H   UNL     1       2.068   8.522  21.709  0.00  0.00    +0.000 HD
ATOM     29  H   UNL     1       1.607   8.940  23.301  0.00  0.00    +0.000 HD
ENDBRANCH   1  27
TORSDOF 3
ENDMDL
