MODEL 1
REMARK VINA RESULT:      -6.7      0.000      0.000
REMARK  Name = 
REMARK  10 active torsions:
REMARK  status: ('A' for Active; 'I' for Inactive)
REMARK    1  A    between atoms: C_1  and  O_2
REMARK    2  A    between atoms: O_2  and  C_3
REMARK    3  A    between atoms: C_8  and  C_9
REMARK    4  A    between atoms: C_9  and  C_10
REMARK    5  A    between atoms: C_10  and  C_11
REMARK    6  A    between atoms: C_11  and  C_12
REMARK    7  A    between atoms: C_13  and  C_14
REMARK    8  A    between atoms: C_17  and  C_18
REMARK    9  A    between atoms: C_19  and  C_20
REMARK   10  A    between atoms: C_21  and  C_22
REMARK                            x       y       z     vdW  Elec       q    Type
REMARK                         _______ _______ _______ _____ _____    ______ ____
ROOT
ATOM      1  C   UNL     1       4.433   6.415  17.570  0.00  0.00    +0.000 C 
ATOM      2  C   UNL     1       4.558   6.042  16.084  0.00  0.00    +0.000 C 
ATOM      3  C   UNL     1       5.875   6.539  18.301  0.00  0.00    +0.000 C 
ATOM      4  C   UNL     1       6.954   7.340  17.576  0.00  0.00    +0.000 C 
ATOM      5  C   UNL     1       6.465   5.202  18.850  0.00  0.00    +0.000 C 
ATOM      6  C   UNL     1       5.919   3.951  18.178  0.00  0.00    +0.000 C 
ATOM      7  C   UNL     1       4.383   3.865  18.261  0.00  0.00    +0.000 C 
ATOM      8  C   UNL     1       3.845   3.009  17.087  0.00  0.00    +0.000 C 
ATOM      9  C   UNL     1       3.789   3.249  19.522  0.00  0.00    +0.000 C 
ATOM     10  C   UNL     1       4.514   2.181  20.273  0.00  0.00    +0.000 C 
ATOM     11  C   UNL     1       2.635   3.895  19.820  0.00  0.00    +0.000 C 
ATOM     12  C   UNL     1       2.322   5.025  18.831  0.00  0.00    +0.000 C 
ATOM     13  C   UNL     1       3.767   5.305  18.447  0.00  0.00    +0.000 C 
ENDROOT
BRANCH  11  14
ATOM     14  C   UNL     1       1.960   3.749  21.121  0.00  0.00    +0.000 C 
ATOM     15  O   UNL     1       1.158   2.849  21.346  0.00  0.00    +0.000 OA
ENDBRANCH  11  14
BRANCH   1  16
ATOM     16  C   UNL     1       3.805   7.855  17.642  0.00  0.00    +0.000 C 
BRANCH  16  17
ATOM     17  C   UNL     1       2.275   8.069  17.548  0.00  0.00    +0.000 C 
BRANCH  17  23
ATOM     18  C   UNL     1       1.040  10.043  18.788  0.00  0.00    +0.000 C 
ATOM     19  O   UNL     1       0.627  10.246  20.133  0.00  0.00    +0.000 OA
ATOM     20  C   UNL     1       1.053   9.212  20.897  0.00  0.00    +0.000 C 
ATOM     21  O   UNL     1       0.868   9.071  22.082  0.00  0.00    +0.000 OA
ATOM     22  C   UNL     1       1.754   8.242  20.043  0.00  0.00    +0.000 C 
ATOM     23  C   UNL     1       1.740   8.724  18.796  0.00  0.00    +0.000 C 
BRANCH  18  25
ATOM     24  C   UNL     1       1.556  12.332  18.810  0.00  0.00    +0.000 C 
ATOM     25  O   UNL     1       1.935  11.048  18.338  0.00  0.00    +0.000 OA
ENDBRANCH  18  25
ENDBRANCH  17  23
ENDBRANCH  16  17
ENDBRANCH   1  16
TORSDOF 5
ENDMDL
MODEL 2
REMARK VINA RESULT:      -6.7      1.810      4.291
REMARK  Name = 
REMARK  10 active torsions:
REMARK  status: ('A' for Active; 'I' for Inactive)
REMARK    1  A    between atoms: C_1  and  O_2
REMARK    2  A    between atoms: O_2  and  C_3
REMARK    3  A    between atoms: C_8  and  C_9
REMARK    4  A    between atoms: C_9  and  C_10
REMARK    5  A    between atoms: C_10  and  C_11
REMARK    6  A    between atoms: C_11  and  C_12
REMARK    7  A    between atoms: C_13  and  C_14
REMARK    8  A    between atoms: C_17  and  C_18
REMARK    9  A    between atoms: C_19  and  C_20
REMARK   10  A    between atoms: C_21  and  C_22
REMARK                            x       y       z     vdW  Elec       q    Type
REMARK                         _______ _______ _______ _____ _____    ______ ____
ROOT
ATOM      1  C   UNL     1       2.318   4.620  19.422  0.00  0.00    +0.000 C 
ATOM      2  C   UNL     1       2.717   3.848  20.691  0.00  0.00    +0.000 C 
ATOM      3  C   UNL     1       1.498   3.701  18.369  0.00  0.00    +0.000 C 
ATOM      4  C   UNL     1       0.359   2.851  18.931  0.00  0.00    +0.000 C 
ATOM      5  C   UNL     1       2.373   2.859  17.389  0.00  0.00    +0.000 C 
ATOM      6  C   UNL     1       3.787   2.590  17.883  0.00  0.00    +0.000 C 
ATOM      7  C   UNL     1       4.550   3.888  18.210  0.00  0.00    +0.000 C 
ATOM      8  C   UNL     1       5.650   3.595  19.260  0.00  0.00    +0.000 C 
ATOM      9  C   UNL     1       5.260   4.586  17.056  0.00  0.00    +0.000 C 
ATOM     10  C   UNL     1       5.819   3.807  15.912  0.00  0.00    +0.000 C 
ATOM     11  C   UNL     1       5.182   5.926  17.245  0.00  0.00    +0.000 C 
ATOM     12  C   UNL     1       4.402   6.298  18.512  0.00  0.00    +0.000 C 
ATOM     13  C   UNL     1       3.533   5.048  18.535  0.00  0.00    +0.000 C 
ENDROOT
BRANCH  11  14
ATOM     14  C   UNL     1       5.507   6.895  16.183  0.00  0.00    +0.000 C 
ATOM     15  O   UNL     1       4.933   6.897  15.100  0.00  0.00    +0.000 OA
ENDBRANCH  11  14
BRANCH   1  16
ATOM     16  C   UNL     1       1.316   5.752  19.856  0.00  0.00    +0.000 C 
BRANCH  16  17
ATOM     17  C   UNL     1       1.649   6.714  21.022  0.00  0.00    +0.000 C 
BRANCH  17  23
ATOM     18  C   UNL     1       1.055   9.207  21.647  0.00  0.00    +0.000 C 
ATOM     19  O   UNL     1       0.942  10.404  20.889  0.00  0.00    +0.000 OA
ATOM     20  C   UNL     1       1.111  10.124  19.575  0.00  0.00    +0.000 C 
ATOM     21  O   UNL     1       1.080  10.915  18.664  0.00  0.00    +0.000 OA
ATOM     22  C   UNL     1       1.386   8.689  19.423  0.00  0.00    +0.000 C 
ATOM     23  C   UNL     1       1.363   8.145  20.644  0.00  0.00    +0.000 C 
BRANCH  18  25
ATOM     24  C   UNL     1      -0.694  10.007  22.992  0.00  0.00    +0.000 C 
ATOM     25  O   UNL     1      -0.148   8.879  22.325  0.00  0.00    +0.000 OA
ENDBRANCH  18  25
ENDBRANCH  17  23
ENDBRANCH  16  17
ENDBRANCH   1  16
TORSDOF 5
ENDMDL
MODEL 3
REMARK VINA RESULT:      -6.6      1.580      2.173
REMARK  Name = 
REMARK  10 active torsions:
REMARK  status: ('A' for Active; 'I' for Inactive)
REMARK    1  A    between atoms: C_1  and  O_2
REMARK    2  A    between atoms: O_2  and  C_3
REMARK    3  A    between atoms: C_8  and  C_9
REMARK    4  A    between atoms: C_9  and  C_10
REMARK    5  A    between atoms: C_10  and  C_11
REMARK    6  A    between atoms: C_11  and  C_12
REMARK    7  A    between atoms: C_13  and  C_14
REMARK    8  A    between atoms: C_17  and  C_18
REMARK    9  A    between atoms: C_19  and  C_20
REMARK   10  A    between atoms: C_21  and  C_22
REMARK                            x       y       z     vdW  Elec       q    Type
REMARK                         _______ _______ _______ _____ _____    ______ ____
ROOT
ATOM      1  C   UNL     1       2.572   6.523  18.609  0.00  0.00    +0.000 C 
ATOM      2  C   UNL     1       1.664   6.800  17.399  0.00  0.00    +0.000 C 
ATOM      3  C   UNL     1       4.134   6.395  18.196  0.00  0.00    +0.000 C 
ATOM      4  C   UNL     1       4.695   7.469  17.266  0.00  0.00    +0.000 C 
ATOM      5  C   UNL     1       4.591   4.977  17.730  0.00  0.00    +0.000 C 
ATOM      6  C   UNL     1       3.465   4.092  17.215  0.00  0.00    +0.000 C 
ATOM      7  C   UNL     1       2.340   3.914  18.253  0.00  0.00    +0.000 C 
ATOM      8  C   UNL     1       1.009   3.596  17.527  0.00  0.00    +0.000 C 
ATOM      9  C   UNL     1       2.517   2.810  19.287  0.00  0.00    +0.000 C 
ATOM     10  C   UNL     1       3.264   1.559  18.959  0.00  0.00    +0.000 C 
ATOM     11  C   UNL     1       1.987   3.227  20.463  0.00  0.00    +0.000 C 
ATOM     12  C   UNL     1       1.419   4.648  20.381  0.00  0.00    +0.000 C 
ATOM     13  C   UNL     1       2.339   5.123  19.265  0.00  0.00    +0.000 C 
ENDROOT
BRANCH  11  14
ATOM     14  C   UNL     1       2.241   2.530  21.736  0.00  0.00    +0.000 C 
ATOM     15  O   UNL     1       1.339   2.227  22.509  0.00  0.00    +0.000 OA
ENDBRANCH  11  14
BRANCH   1  16
ATOM     16  C   UNL     1       2.492   7.778  19.554  0.00  0.00    +0.000 C 
BRANCH  16  17
ATOM     17  C   UNL     1       1.483   8.920  19.285  0.00  0.00    +0.000 C 
BRANCH  17  23
ATOM     18  C   UNL     1      -0.398  10.228  20.594  0.00  0.00    +0.000 C 
ATOM     19  O   UNL     1      -0.718  10.359  21.973  0.00  0.00    +0.000 OA
ATOM     20  C   UNL     1       0.218   9.721  22.716  0.00  0.00    +0.000 C 
ATOM     21  O   UNL     1       0.242   9.636  23.920  0.00  0.00    +0.000 OA
ATOM     22  C   UNL     1       1.199   9.097  21.818  0.00  0.00    +0.000 C 
ATOM     23  C   UNL     1       0.835   9.385  20.565  0.00  0.00    +0.000 C 
BRANCH  18  25
ATOM     24  C   UNL     1      -1.325  12.152  19.623  0.00  0.00    +0.000 C 
ATOM     25  O   UNL     1      -0.128  11.477  19.979  0.00  0.00    +0.000 OA
ENDBRANCH  18  25
ENDBRANCH  17  23
ENDBRANCH  16  17
ENDBRANCH   1  16
TORSDOF 5
ENDMDL
MODEL 4
REMARK VINA RESULT:      -6.6      4.397      6.797
REMARK  Name = 
REMARK  10 active torsions:
REMARK  status: ('A' for Active; 'I' for Inactive)
REMARK    1  A    between atoms: C_1  and  O_2
REMARK    2  A    between atoms: O_2  and  C_3
REMARK    3  A    between atoms: C_8  and  C_9
REMARK    4  A    between atoms: C_9  and  C_10
REMARK    5  A    between atoms: C_10  and  C_11
REMARK    6  A    between atoms: C_11  and  C_12
REMARK    7  A    between atoms: C_13  and  C_14
REMARK    8  A    between atoms: C_17  and  C_18
REMARK    9  A    between atoms: C_19  and  C_20
REMARK   10  A    between atoms: C_21  and  C_22
REMARK                            x       y       z     vdW  Elec       q    Type
REMARK                         _______ _______ _______ _____ _____    ______ ____
ROOT
ATOM      1  C   UNL     1       4.669   4.525  17.091  0.00  0.00    +0.000 C 
ATOM      2  C   UNL     1       6.141   4.392  17.514  0.00  0.00    +0.000 C 
ATOM      3  C   UNL     1       4.080   6.012  17.354  0.00  0.00    +0.000 C 
ATOM      4  C   UNL     1       4.939   7.190  16.895  0.00  0.00    +0.000 C 
ATOM      5  C   UNL     1       3.525   6.270  18.790  0.00  0.00    +0.000 C 
ATOM      6  C   UNL     1       4.085   5.339  19.856  0.00  0.00    +0.000 C 
ATOM      7  C   UNL     1       3.857   3.854  19.515  0.00  0.00    +0.000 C 
ATOM      8  C   UNL     1       4.935   2.988  20.213  0.00  0.00    +0.000 C 
ATOM      9  C   UNL     1       2.519   3.246  19.918  0.00  0.00    +0.000 C 
ATOM     10  C   UNL     1       1.789   3.726  21.129  0.00  0.00    +0.000 C 
ATOM     11  C   UNL     1       2.148   2.347  18.974  0.00  0.00    +0.000 C 
ATOM     12  C   UNL     1       3.155   2.254  17.822  0.00  0.00    +0.000 C 
ATOM     13  C   UNL     1       3.684   3.675  17.958  0.00  0.00    +0.000 C 
ENDROOT
BRANCH  11  14
ATOM     14  C   UNL     1       0.784   1.793  18.902  0.00  0.00    +0.000 C 
ATOM     15  O   UNL     1      -0.080   2.271  18.174  0.00  0.00    +0.000 OA
ENDBRANCH  11  14
BRANCH   1  16
ATOM     16  C   UNL     1       4.607   4.322  15.533  0.00  0.00    +0.000 C 
BRANCH  16  17
ATOM     17  C   UNL     1       5.548   3.324  14.816  0.00  0.00    +0.000 C 
BRANCH  17  23
ATOM     18  C   UNL     1       6.450   3.894  12.403  0.00  0.00    +0.000 C 
ATOM     19  O   UNL     1       7.438   4.793  11.917  0.00  0.00    +0.000 OA
ATOM     20  C   UNL     1       8.058   5.391  12.961  0.00  0.00    +0.000 C 
ATOM     21  O   UNL     1       8.942   6.210  12.897  0.00  0.00    +0.000 OA
ATOM     22  C   UNL     1       7.453   4.916  14.213  0.00  0.00    +0.000 C 
ATOM     23  C   UNL     1       6.497   4.040  13.889  0.00  0.00    +0.000 C 
BRANCH  18  25
ATOM     24  C   UNL     1       5.618   1.944  11.399  0.00  0.00    +0.000 C 
ATOM     25  O   UNL     1       6.723   2.546  12.054  0.00  0.00    +0.000 OA
ENDBRANCH  18  25
ENDBRANCH  17  23
ENDBRANCH  16  17
ENDBRANCH   1  16
TORSDOF 5
ENDMDL
MODEL 5
REMARK VINA RESULT:      -6.5      2.046      3.915
REMARK  Name = 
REMARK  10 active torsions:
REMARK  status: ('A' for Active; 'I' for Inactive)
REMARK    1  A    between atoms: C_1  and  O_2
REMARK    2  A    between atoms: O_2  and  C_3
REMARK    3  A    between atoms: C_8  and  C_9
REMARK    4  A    between atoms: C_9  and  C_10
REMARK    5  A    between atoms: C_10  and  C_11
REMARK    6  A    between atoms: C_11  and  C_12
REMARK    7  A    between atoms: C_13  and  C_14
REMARK    8  A    between atoms: C_17  and  C_18
REMARK    9  A    between atoms: C_19  and  C_20
REMARK   10  A    between atoms: C_21  and  C_22
REMARK                            x       y       z     vdW  Elec       q    Type
REMARK                         _______ _______ _______ _____ _____    ______ ____
ROOT
ATOM      1  C   UNL     1       2.491   4.825  19.792  0.00  0.00    +0.000 C 
ATOM      2  C   UNL     1       2.909   3.979  21.006  0.00  0.00    +0.000 C 
ATOM      3  C   UNL     1       1.477   4.035  18.805  0.00  0.00    +0.000 C 
ATOM      4  C   UNL     1       0.302   3.307  19.455  0.00  0.00    +0.000 C 
ATOM      5  C   UNL     1       2.157   3.124  17.734  0.00  0.00    +0.000 C 
ATOM      6  C   UNL     1       3.568   2.681  18.091  0.00  0.00    +0.000 C 
ATOM      7  C   UNL     1       4.504   3.875  18.367  0.00  0.00    +0.000 C 
ATOM      8  C   UNL     1       5.652   3.429  19.307  0.00  0.00    +0.000 C 
ATOM      9  C   UNL     1       5.184   4.517  17.165  0.00  0.00    +0.000 C 
ATOM     10  C   UNL     1       5.544   3.710  15.962  0.00  0.00    +0.000 C 
ATOM     11  C   UNL     1       5.280   5.851  17.381  0.00  0.00    +0.000 C 
ATOM     12  C   UNL     1       4.666   6.276  18.721  0.00  0.00    +0.000 C 
ATOM     13  C   UNL     1       3.662   5.135  18.804  0.00  0.00    +0.000 C 
ENDROOT
BRANCH  11  14
ATOM     14  C   UNL     1       5.620   6.804  16.310  0.00  0.00    +0.000 C 
ATOM     15  O   UNL     1       4.953   6.903  15.286  0.00  0.00    +0.000 OA
ENDBRANCH  11  14
BRANCH   1  16
ATOM     16  C   UNL     1       1.671   6.052  20.335  0.00  0.00    +0.000 C 
BRANCH  16  17
ATOM     17  C   UNL     1       1.925   7.484  19.807  0.00  0.00    +0.000 C 
BRANCH  17  23
ATOM     18  C   UNL     1       0.371   9.597  20.093  0.00  0.00    +0.000 C 
ATOM     19  O   UNL     1      -0.160  10.273  21.225  0.00  0.00    +0.000 OA
ATOM     20  C   UNL     1       0.334   9.717  22.356  0.00  0.00    +0.000 C 
ATOM     21  O   UNL     1       0.083  10.050  23.489  0.00  0.00    +0.000 OA
ATOM     22  C   UNL     1       1.208   8.592  21.995  0.00  0.00    +0.000 C 
ATOM     23  C   UNL     1       1.225   8.511  20.660  0.00  0.00    +0.000 C 
BRANCH  18  25
ATOM     24  C   UNL     1       0.530  11.692  19.049  0.00  0.00    +0.000 C 
ATOM     25  O   UNL     1       1.165  10.444  19.278  0.00  0.00    +0.000 OA
ENDBRANCH  18  25
ENDBRANCH  17  23
ENDBRANCH  16  17
ENDBRANCH   1  16
TORSDOF 5
ENDMDL
MODEL 6
REMARK VINA RESULT:      -6.4      3.443      5.602
REMARK  Name = 
REMARK  10 active torsions:
REMARK  status: ('A' for Active; 'I' for Inactive)
REMARK    1  A    between atoms: C_1  and  O_2
REMARK    2  A    between atoms: O_2  and  C_3
REMARK    3  A    between atoms: C_8  and  C_9
REMARK    4  A    between atoms: C_9  and  C_10
REMARK    5  A    between atoms: C_10  and  C_11
REMARK    6  A    between atoms: C_11  and  C_12
REMARK    7  A    between atoms: C_13  and  C_14
REMARK    8  A    between atoms: C_17  and  C_18
REMARK    9  A    between atoms: C_19  and  C_20
REMARK   10  A    between atoms: C_21  and  C_22
REMARK                            x       y       z     vdW  Elec       q    Type
REMARK                         _______ _______ _______ _____ _____    ______ ____
ROOT
ATOM      1  C   UNL     1       6.870   6.376  17.554  0.00  0.00    +0.000 C 
ATOM      2  C   UNL     1       7.338   5.359  16.500  0.00  0.00    +0.000 C 
ATOM      3  C   UNL     1       7.116   5.856  19.069  0.00  0.00    +0.000 C 
ATOM      4  C   UNL     1       8.487   5.261  19.385  0.00  0.00    +0.000 C 
ATOM      5  C   UNL     1       5.983   4.960  19.663  0.00  0.00    +0.000 C 
ATOM      6  C   UNL     1       5.118   4.268  18.620  0.00  0.00    +0.000 C 
ATOM      7  C   UNL     1       4.473   5.266  17.639  0.00  0.00    +0.000 C 
ATOM      8  C   UNL     1       4.171   4.555  16.297  0.00  0.00    +0.000 C 
ATOM      9  C   UNL     1       3.160   5.909  18.066  0.00  0.00    +0.000 C 
ATOM     10  C   UNL     1       2.192   5.178  18.937  0.00  0.00    +0.000 C 
ATOM     11  C   UNL     1       3.130   7.184  17.606  0.00  0.00    +0.000 C 
ATOM     12  C   UNL     1       4.407   7.565  16.847  0.00  0.00    +0.000 C 
ATOM     13  C   UNL     1       5.322   6.593  17.578  0.00  0.00    +0.000 C 
ENDROOT
BRANCH  11  14
ATOM     14  C   UNL     1       2.144   8.172  18.079  0.00  0.00    +0.000 C 
ATOM     15  O   UNL     1       1.782   9.118  17.388  0.00  0.00    +0.000 OA
ENDBRANCH  11  14
BRANCH   1  16
ATOM     16  C   UNL     1       7.770   7.657  17.402  0.00  0.00    +0.000 C 
BRANCH  16  17
ATOM     17  C   UNL     1       8.491   8.280  18.621  0.00  0.00    +0.000 C 
BRANCH  17  23
ATOM     18  C   UNL     1       9.621  10.581  19.246  0.00  0.00    +0.000 C 
ATOM     19  O   UNL     1       9.503  11.900  18.728  0.00  0.00    +0.000 OA
ATOM     20  C   UNL     1       8.543  11.926  17.774  0.00  0.00    +0.000 C 
ATOM     21  O   UNL     1       8.195  12.888  17.132  0.00  0.00    +0.000 OA
ATOM     22  C   UNL     1       8.003  10.570  17.600  0.00  0.00    +0.000 C 
ATOM     23  C   UNL     1       8.643   9.771  18.459  0.00  0.00    +0.000 C 
BRANCH  18  25
ATOM     24  C   UNL     1       9.334  11.786  21.238  0.00  0.00    +0.000 C 
ATOM     25  O   UNL     1       9.292  10.507  20.624  0.00  0.00    +0.000 OA
ENDBRANCH  18  25
ENDBRANCH  17  23
ENDBRANCH  16  17
ENDBRANCH   1  16
TORSDOF 5
ENDMDL
MODEL 7
REMARK VINA RESULT:      -6.3      6.491      9.085
REMARK  Name = 
REMARK  10 active torsions:
REMARK  status: ('A' for Active; 'I' for Inactive)
REMARK    1  A    between atoms: C_1  and  O_2
REMARK    2  A    between atoms: O_2  and  C_3
REMARK    3  A    between atoms: C_8  and  C_9
REMARK    4  A    between atoms: C_9  and  C_10
REMARK    5  A    between atoms: C_10  and  C_11
REMARK    6  A    between atoms: C_11  and  C_12
REMARK    7  A    between atoms: C_13  and  C_14
REMARK    8  A    between atoms: C_17  and  C_18
REMARK    9  A    between atoms: C_19  and  C_20
REMARK   10  A    between atoms: C_21  and  C_22
REMARK                            x       y       z     vdW  Elec       q    Type
REMARK                         _______ _______ _______ _____ _____    ______ ____
ROOT
ATOM      1  C   UNL     1      -0.602  11.645  21.343  0.00  0.00    +0.000 C 
ATOM      2  C   UNL     1       0.574  12.626  21.199  0.00  0.00    +0.000 C 
ATOM      3  C   UNL     1      -0.139  10.098  21.202  0.00  0.00    +0.000 C 
ATOM      4  C   UNL     1       1.095   9.668  21.993  0.00  0.00    +0.000 C 
ATOM      5  C   UNL     1      -0.069   9.550  19.742  0.00  0.00    +0.000 C 
ATOM      6  C   UNL     1       0.095  10.623  18.675  0.00  0.00    +0.000 C 
ATOM      7  C   UNL     1      -1.023  11.682  18.734  0.00  0.00    +0.000 C 
ATOM      8  C   UNL     1      -0.509  13.014  18.134  0.00  0.00    +0.000 C 
ATOM      9  C   UNL     1      -2.316  11.370  17.992  0.00  0.00    +0.000 C 
ATOM     10  C   UNL     1      -2.310  10.540  16.750  0.00  0.00    +0.000 C 
ATOM     11  C   UNL     1      -3.356  11.877  18.697  0.00  0.00    +0.000 C 
ATOM     12  C   UNL     1      -2.909  12.562  19.994  0.00  0.00    +0.000 C 
ATOM     13  C   UNL     1      -1.645  11.734  20.182  0.00  0.00    +0.000 C 
ENDROOT
BRANCH  11  14
ATOM     14  C   UNL     1      -4.756  11.510  18.417  0.00  0.00    +0.000 C 
ATOM     15  O   UNL     1      -5.339  11.878  17.404  0.00  0.00    +0.000 OA
ENDBRANCH  11  14
BRANCH   1  16
ATOM     16  C   UNL     1      -1.151  11.784  22.810  0.00  0.00    +0.000 C 
BRANCH  16  17
ATOM     17  C   UNL     1      -1.520  13.165  23.402  0.00  0.00    +0.000 C 
BRANCH  17  23
ATOM     18  C   UNL     1      -3.768  14.545  23.474  0.00  0.00    +0.000 C 
ATOM     19  O   UNL     1      -5.124  14.191  23.712  0.00  0.00    +0.000 OA
ATOM     20  C   UNL     1      -5.198  12.879  24.038  0.00  0.00    +0.000 C 
ATOM     21  O   UNL     1      -6.202  12.260  24.296  0.00  0.00    +0.000 OA
ATOM     22  C   UNL     1      -3.851  12.296  23.987  0.00  0.00    +0.000 C 
ATOM     23  C   UNL     1      -3.004  13.273  23.645  0.00  0.00    +0.000 C 
BRANCH  18  25
ATOM     24  C   UNL     1      -4.309  16.423  24.772  0.00  0.00    +0.000 C 
ATOM     25  O   UNL     1      -3.289  15.510  24.397  0.00  0.00    +0.000 OA
ENDBRANCH  18  25
ENDBRANCH  17  23
ENDBRANCH  16  17
ENDBRANCH   1  16
TORSDOF 5
ENDMDL
MODEL 8
REMARK VINA RESULT:      -6.3      1.190      1.821
REMARK  Name = 
REMARK  10 active torsions:
REMARK  status: ('A' for Active; 'I' for Inactive)
REMARK    1  A    between atoms: C_1  and  O_2
REMARK    2  A    between atoms: O_2  and  C_3
REMARK    3  A    between atoms: C_8  and  C_9
REMARK    4  A    between atoms: C_9  and  C_10
REMARK    5  A    between atoms: C_10  and  C_11
REMARK    6  A    between atoms: C_11  and  C_12
REMARK    7  A    between atoms: C_13  and  C_14
REMARK    8  A    between atoms: C_17  and  C_18
REMARK    9  A    between atoms: C_19  and  C_20
REMARK   10  A    between atoms: C_21  and  C_22
REMARK                            x       y       z     vdW  Elec       q    Type
REMARK                         _______ _______ _______ _____ _____    ______ ____
ROOT
ATOM      1  C   UNL     1       4.348   6.551  17.469  0.00  0.00    +0.000 C 
ATOM      2  C   UNL     1       4.524   6.161  15.992  0.00  0.00    +0.000 C 
ATOM      3  C   UNL     1       5.764   6.717  18.240  0.00  0.00    +0.000 C 
ATOM      4  C   UNL     1       6.846   7.533  17.535  0.00  0.00    +0.000 C 
ATOM      5  C   UNL     1       6.368   5.402  18.825  0.00  0.00    +0.000 C 
ATOM      6  C   UNL     1       5.870   4.130  18.154  0.00  0.00    +0.000 C 
ATOM      7  C   UNL     1       4.334   4.010  18.195  0.00  0.00    +0.000 C 
ATOM      8  C   UNL     1       3.850   3.127  17.018  0.00  0.00    +0.000 C 
ATOM      9  C   UNL     1       3.717   3.398  19.446  0.00  0.00    +0.000 C 
ATOM     10  C   UNL     1       4.444   2.357  20.232  0.00  0.00    +0.000 C 
ATOM     11  C   UNL     1       2.541   4.021  19.701  0.00  0.00    +0.000 C 
ATOM     12  C   UNL     1       2.231   5.130  18.688  0.00  0.00    +0.000 C 
ATOM     13  C   UNL     1       3.681   5.438  18.342  0.00  0.00    +0.000 C 
ENDROOT
BRANCH  11  14
ATOM     14  C   UNL     1       1.832   3.878  20.985  0.00  0.00    +0.000 C 
ATOM     15  O   UNL     1       1.064   2.949  21.208  0.00  0.00    +0.000 OA
ENDBRANCH  11  14
BRANCH   1  16
ATOM     16  C   UNL     1       3.686   7.978  17.503  0.00  0.00    +0.000 C 
BRANCH  16  17
ATOM     17  C   UNL     1       2.157   8.149  17.674  0.00  0.00    +0.000 C 
BRANCH  17  23
ATOM     18  C   UNL     1       0.487   9.967  18.604  0.00  0.00    +0.000 C 
ATOM     19  O   UNL     1       0.604  11.360  18.862  0.00  0.00    +0.000 OA
ATOM     20  C   UNL     1       1.820  11.794  18.455  0.00  0.00    +0.000 C 
ATOM     21  O   UNL     1       2.242  12.922  18.534  0.00  0.00    +0.000 OA
ATOM     22  C   UNL     1       2.585  10.655  17.930  0.00  0.00    +0.000 C 
ATOM     23  C   UNL     1       1.806   9.572  18.024  0.00  0.00    +0.000 C 
BRANCH  18  25
ATOM     24  C   UNL     1      -1.764  10.301  18.032  0.00  0.00    +0.000 C 
ATOM     25  O   UNL     1      -0.543   9.673  17.673  0.00  0.00    +0.000 OA
ENDBRANCH  18  25
ENDBRANCH  17  23
ENDBRANCH  16  17
ENDBRANCH   1  16
TORSDOF 5
ENDMDL
MODEL 9
REMARK VINA RESULT:      -6.3      1.559      2.734
REMARK  Name = 
REMARK  10 active torsions:
REMARK  status: ('A' for Active; 'I' for Inactive)
REMARK    1  A    between atoms: C_1  and  O_2
REMARK    2  A    between atoms: O_2  and  C_3
REMARK    3  A    between atoms: C_8  and  C_9
REMARK    4  A    between atoms: C_9  and  C_10
REMARK    5  A    between atoms: C_10  and  C_11
REMARK    6  A    between atoms: C_11  and  C_12
REMARK    7  A    between atoms: C_13  and  C_14
REMARK    8  A    between atoms: C_17  and  C_18
REMARK    9  A    between atoms: C_19  and  C_20
REMARK   10  A    between atoms: C_21  and  C_22
REMARK                            x       y       z     vdW  Elec       q    Type
REMARK                         _______ _______ _______ _____ _____    ______ ____
ROOT
ATOM      1  C   UNL     1       2.635   6.547  18.712  0.00  0.00    +0.000 C 
ATOM      2  C   UNL     1       1.846   6.974  17.463  0.00  0.00    +0.000 C 
ATOM      3  C   UNL     1       4.201   6.276  18.392  0.00  0.00    +0.000 C 
ATOM      4  C   UNL     1       4.931   7.327  17.559  0.00  0.00    +0.000 C 
ATOM      5  C   UNL     1       4.543   4.841  17.882  0.00  0.00    +0.000 C 
ATOM      6  C   UNL     1       3.372   4.104  17.250  0.00  0.00    +0.000 C 
ATOM      7  C   UNL     1       2.165   3.996  18.203  0.00  0.00    +0.000 C 
ATOM      8  C   UNL     1       0.862   3.853  17.379  0.00  0.00    +0.000 C 
ATOM      9  C   UNL     1       2.158   2.833  19.187  0.00  0.00    +0.000 C 
ATOM     10  C   UNL     1       2.795   1.528  18.840  0.00  0.00    +0.000 C 
ATOM     11  C   UNL     1       1.594   3.248  20.347  0.00  0.00    +0.000 C 
ATOM     12  C   UNL     1       1.179   4.724  20.305  0.00  0.00    +0.000 C 
ATOM     13  C   UNL     1       2.217   5.150  19.277  0.00  0.00    +0.000 C 
ENDROOT
BRANCH  11  14
ATOM     14  C   UNL     1       1.688   2.470  21.595  0.00  0.00    +0.000 C 
ATOM     15  O   UNL     1       2.720   2.413  22.255  0.00  0.00    +0.000 OA
ENDBRANCH  11  14
BRANCH   1  16
ATOM     16  C   UNL     1       2.618   7.758  19.715  0.00  0.00    +0.000 C 
BRANCH  16  17
ATOM     17  C   UNL     1       1.437   7.974  20.692  0.00  0.00    +0.000 C 
BRANCH  17  23
ATOM     18  C   UNL     1       0.675  10.323  21.619  0.00  0.00    +0.000 C 
ATOM     19  O   UNL     1       0.140  11.489  21.006  0.00  0.00    +0.000 OA
ATOM     20  C   UNL     1      -0.068  11.252  19.690  0.00  0.00    +0.000 C 
ATOM     21  O   UNL     1      -0.509  12.032  18.881  0.00  0.00    +0.000 OA
ATOM     22  C   UNL     1       0.373   9.886  19.373  0.00  0.00    +0.000 C 
ATOM     23  C   UNL     1       0.821   9.338  20.507  0.00  0.00    +0.000 C 
BRANCH  18  25
ATOM     24  C   UNL     1      -1.110  10.760  23.078  0.00  0.00    +0.000 C 
ATOM     25  O   UNL     1      -0.186   9.788  22.612  0.00  0.00    +0.000 OA
ENDBRANCH  18  25
ENDBRANCH  17  23
ENDBRANCH  16  17
ENDBRANCH   1  16
TORSDOF 5
ENDMDL
