MODEL 1
REMARK VINA RESULT:      -7.8      0.000      0.000
REMARK  Name = 
REMARK  2 active torsions:
REMARK  status: ('A' for Active; 'I' for Inactive)
REMARK    1  A    between atoms: C_2  and  C_5
REMARK    2  A    between atoms: N_3  and  O_4
REMARK                            x       y       z     vdW  Elec       q    Type
REMARK                         _______ _______ _______ _____ _____    ______ ____
ROOT
ATOM      1  C   UNL     1      -0.101  11.044  20.121  0.00  0.00    +0.000 A 
ATOM      2  C   UNL     1      -0.864  11.143  21.298  0.00  0.00    +0.000 A 
ATOM      3  C   UNL     1      -0.716  10.214  22.327  0.00  0.00    +0.000 A 
ATOM      4  C   UNL     1       0.187   9.165  22.189  0.00  0.00    +0.000 A 
ATOM      5  C   UNL     1       0.938   9.020  21.014  0.00  0.00    +0.000 A 
ATOM      6  C   UNL     1       0.801   9.969  19.973  0.00  0.00    +0.000 A 
ATOM      7  C   UNL     1       1.684   9.746  18.774  0.00  0.00    +0.000 C 
ATOM      8  C   UNL     1       1.689   8.258  18.427  0.00  0.00    +0.000 C 
ATOM      9  N   UNL     1       2.210   7.441  19.527  0.00  0.00    +0.000 N 
ATOM     10  C   UNL     1       2.460   6.116  19.333  0.00  0.00    +0.000 A 
ATOM     11  N   UNL     1       2.433   5.135  20.209  0.00  0.00    +0.000 NA
ATOM     12  C   UNL     1       2.739   3.989  19.510  0.00  0.00    +0.000 A 
ATOM     13  C   UNL     1       2.814   2.655  19.938  0.00  0.00    +0.000 A 
ATOM     14  C   UNL     1       3.172   1.669  19.006  0.00  0.00    +0.000 A 
ATOM     15  C   UNL     1       3.449   2.003  17.678  0.00  0.00    +0.000 A 
ATOM     16  C   UNL     1       3.370   3.325  17.231  0.00  0.00    +0.000 A 
ATOM     17  C   UNL     1       3.006   4.280  18.182  0.00  0.00    +0.000 A 
ATOM     18  N   UNL     1       2.827   5.633  18.100  0.00  0.00    +0.000 N 
ATOM     19  C   UNL     1       1.936   7.874  20.906  0.00  0.00    +0.000 C 
ATOM     20  H   UNL     1       2.964   6.188  17.274  0.00  0.00    +0.000 HD
ENDROOT
BRANCH   1  22
ATOM     21  O   UNL     1       0.096  13.211  19.121  0.00  0.00    +0.000 OA
ATOM     22  C   UNL     1      -0.331  12.063  19.051  0.00  0.00    +0.000 C 
ATOM     23  N   UNL     1      -1.056  11.638  17.959  0.00  0.00    +0.000 N 
ATOM     24  H   UNL     1      -1.603  10.787  17.924  0.00  0.00    +0.000 HD
BRANCH  23  25
ATOM     25  O   UNL     1      -1.337  12.622  16.984  0.00  0.00    +0.000 OA
ATOM     26  H   UNL     1      -1.482  12.077  16.179  0.00  0.00    +0.000 HD
ENDBRANCH  23  25
ENDBRANCH   1  22
TORSDOF 2
ENDMDL
MODEL 2
REMARK VINA RESULT:      -7.8      3.714      7.611
REMARK  Name = 
REMARK  2 active torsions:
REMARK  status: ('A' for Active; 'I' for Inactive)
REMARK    1  A    between atoms: C_2  and  C_5
REMARK    2  A    between atoms: N_3  and  O_4
REMARK                            x       y       z     vdW  Elec       q    Type
REMARK                         _______ _______ _______ _____ _____    ______ ____
ROOT
ATOM      1  C   UNL     1       5.297   5.429  17.325  0.00  0.00    +0.000 A 
ATOM      2  C   UNL     1       5.858   4.374  18.066  0.00  0.00    +0.000 A 
ATOM      3  C   UNL     1       5.242   3.907  19.225  0.00  0.00    +0.000 A 
ATOM      4  C   UNL     1       4.062   4.497  19.669  0.00  0.00    +0.000 A 
ATOM      5  C   UNL     1       3.496   5.572  18.971  0.00  0.00    +0.000 A 
ATOM      6  C   UNL     1       4.112   6.041  17.786  0.00  0.00    +0.000 A 
ATOM      7  C   UNL     1       3.400   7.171  17.089  0.00  0.00    +0.000 C 
ATOM      8  C   UNL     1       2.930   8.183  18.132  0.00  0.00    +0.000 C 
ATOM      9  N   UNL     1       1.996   7.587  19.092  0.00  0.00    +0.000 N 
ATOM     10  C   UNL     1       1.334   8.380  19.981  0.00  0.00    +0.000 A 
ATOM     11  N   UNL     1       0.884   8.078  21.180  0.00  0.00    +0.000 NA
ATOM     12  C   UNL     1       0.309   9.228  21.674  0.00  0.00    +0.000 A 
ATOM     13  C   UNL     1      -0.289   9.483  22.916  0.00  0.00    +0.000 A 
ATOM     14  C   UNL     1      -0.822  10.760  23.156  0.00  0.00    +0.000 A 
ATOM     15  C   UNL     1      -0.760  11.758  22.181  0.00  0.00    +0.000 A 
ATOM     16  C   UNL     1      -0.158  11.524  20.941  0.00  0.00    +0.000 A 
ATOM     17  C   UNL     1       0.366  10.247  20.736  0.00  0.00    +0.000 A 
ATOM     18  N   UNL     1       1.014   9.681  19.675  0.00  0.00    +0.000 N 
ATOM     19  C   UNL     1       2.190   6.179  19.471  0.00  0.00    +0.000 C 
ATOM     20  H   UNL     1       1.207  10.138  18.801  0.00  0.00    +0.000 HD
ENDROOT
BRANCH   1  22
ATOM     21  O   UNL     1       5.600   6.776  15.369  0.00  0.00    +0.000 OA
ATOM     22  C   UNL     1       6.028   5.893  16.106  0.00  0.00    +0.000 C 
ATOM     23  N   UNL     1       7.230   5.271  15.848  0.00  0.00    +0.000 N 
ATOM     24  H   UNL     1       7.541   4.412  16.285  0.00  0.00    +0.000 HD
BRANCH  23  25
ATOM     25  O   UNL     1       7.882   5.658  14.655  0.00  0.00    +0.000 OA
ATOM     26  H   UNL     1       7.179   6.163  14.191  0.00  0.00    +0.000 HD
ENDBRANCH  23  25
ENDBRANCH   1  22
TORSDOF 2
ENDMDL
MODEL 3
REMARK VINA RESULT:      -7.7      3.730      7.841
REMARK  Name = 
REMARK  2 active torsions:
REMARK  status: ('A' for Active; 'I' for Inactive)
REMARK    1  A    between atoms: C_2  and  C_5
REMARK    2  A    between atoms: N_3  and  O_4
REMARK                            x       y       z     vdW  Elec       q    Type
REMARK                         _______ _______ _______ _____ _____    ______ ____
ROOT
ATOM      1  C   UNL     1       4.389   3.895  18.873  0.00  0.00    +0.000 A 
ATOM      2  C   UNL     1       4.482   2.820  19.774  0.00  0.00    +0.000 A 
ATOM      3  C   UNL     1       3.561   2.672  20.809  0.00  0.00    +0.000 A 
ATOM      4  C   UNL     1       2.541   3.603  20.968  0.00  0.00    +0.000 A 
ATOM      5  C   UNL     1       2.440   4.705  20.107  0.00  0.00    +0.000 A 
ATOM      6  C   UNL     1       3.366   4.852  19.046  0.00  0.00    +0.000 A 
ATOM      7  C   UNL     1       3.144   6.045  18.154  0.00  0.00    +0.000 C 
ATOM      8  C   UNL     1       2.806   7.259  19.018  0.00  0.00    +0.000 C 
ATOM      9  N   UNL     1       1.584   7.050  19.801  0.00  0.00    +0.000 N 
ATOM     10  C   UNL     1       1.030   8.088  20.488  0.00  0.00    +0.000 A 
ATOM     11  N   UNL     1       0.305   8.057  21.586  0.00  0.00    +0.000 NA
ATOM     12  C   UNL     1       0.005   9.368  21.884  0.00  0.00    +0.000 A 
ATOM     13  C   UNL     1      -0.707   9.914  22.961  0.00  0.00    +0.000 A 
ATOM     14  C   UNL     1      -0.885  11.306  23.012  0.00  0.00    +0.000 A 
ATOM     15  C   UNL     1      -0.366  12.133  22.013  0.00  0.00    +0.000 A 
ATOM     16  C   UNL     1       0.354  11.606  20.937  0.00  0.00    +0.000 A 
ATOM     17  C   UNL     1       0.518  10.220  20.919  0.00  0.00    +0.000 A 
ATOM     18  N   UNL     1       1.156   9.383  20.047  0.00  0.00    +0.000 N 
ATOM     19  C   UNL     1       1.296   5.694  20.294  0.00  0.00    +0.000 C 
ATOM     20  H   UNL     1       1.624   9.669  19.205  0.00  0.00    +0.000 HD
ENDROOT
BRANCH   1  22
ATOM     21  O   UNL     1       5.171   3.866  16.611  0.00  0.00    +0.000 OA
ATOM     22  C   UNL     1       5.427   4.003  17.803  0.00  0.00    +0.000 C 
ATOM     23  N   UNL     1       6.708   4.274  18.229  0.00  0.00    +0.000 N 
ATOM     24  H   UNL     1       7.027   4.197  19.187  0.00  0.00    +0.000 HD
BRANCH  23  25
ATOM     25  O   UNL     1       7.702   4.301  17.223  0.00  0.00    +0.000 OA
ATOM     26  H   UNL     1       7.223   4.720  16.474  0.00  0.00    +0.000 HD
ENDBRANCH  23  25
ENDBRANCH   1  22
TORSDOF 2
ENDMDL
MODEL 4
REMARK VINA RESULT:      -7.5      1.184      1.338
REMARK  Name = 
REMARK  2 active torsions:
REMARK  status: ('A' for Active; 'I' for Inactive)
REMARK    1  A    between atoms: C_2  and  C_5
REMARK    2  A    between atoms: N_3  and  O_4
REMARK                            x       y       z     vdW  Elec       q    Type
REMARK                         _______ _______ _______ _____ _____    ______ ____
ROOT
ATOM      1  C   UNL     1      -0.686  11.561  20.895  0.00  0.00    +0.000 A 
ATOM      2  C   UNL     1      -1.370  11.581  22.123  0.00  0.00    +0.000 A 
ATOM      3  C   UNL     1      -1.103  10.631  23.106  0.00  0.00    +0.000 A 
ATOM      4  C   UNL     1      -0.157   9.638  22.872  0.00  0.00    +0.000 A 
ATOM      5  C   UNL     1       0.518   9.571  21.645  0.00  0.00    +0.000 A 
ATOM      6  C   UNL     1       0.258  10.542  20.649  0.00  0.00    +0.000 A 
ATOM      7  C   UNL     1       1.067  10.405  19.386  0.00  0.00    +0.000 C 
ATOM      8  C   UNL     1       1.127   8.932  18.988  0.00  0.00    +0.000 C 
ATOM      9  N   UNL     1       1.766   8.111  20.022  0.00  0.00    +0.000 N 
ATOM     10  C   UNL     1       2.071   6.808  19.765  0.00  0.00    +0.000 A 
ATOM     11  N   UNL     1       2.157   5.801  20.607  0.00  0.00    +0.000 NA
ATOM     12  C   UNL     1       2.474   4.695  19.849  0.00  0.00    +0.000 A 
ATOM     13  C   UNL     1       2.648   3.355  20.226  0.00  0.00    +0.000 A 
ATOM     14  C   UNL     1       2.993   2.419  19.238  0.00  0.00    +0.000 A 
ATOM     15  C   UNL     1       3.160   2.809  17.907  0.00  0.00    +0.000 A 
ATOM     16  C   UNL     1       2.980   4.138  17.512  0.00  0.00    +0.000 A 
ATOM     17  C   UNL     1       2.633   5.042  18.517  0.00  0.00    +0.000 A 
ATOM     18  N   UNL     1       2.377   6.384  18.495  0.00  0.00    +0.000 N 
ATOM     19  C   UNL     1       1.565   8.485  21.430  0.00  0.00    +0.000 C 
ATOM     20  H   UNL     1       2.427   6.972  17.681  0.00  0.00    +0.000 HD
ENDROOT
BRANCH   1  22
ATOM     21  O   UNL     1      -1.864  12.402  18.987  0.00  0.00    +0.000 OA
ATOM     22  C   UNL     1      -1.044  12.598  19.878  0.00  0.00    +0.000 C 
ATOM     23  N   UNL     1      -0.398  13.809  19.998  0.00  0.00    +0.000 N 
ATOM     24  H   UNL     1       0.422  13.973  20.568  0.00  0.00    +0.000 HD
BRANCH  23  25
ATOM     25  O   UNL     1      -0.681  14.762  18.992  0.00  0.00    +0.000 OA
ATOM     26  H   UNL     1      -0.660  15.604  19.497  0.00  0.00    +0.000 HD
ENDBRANCH  23  25
ENDBRANCH   1  22
TORSDOF 2
ENDMDL
MODEL 5
REMARK VINA RESULT:      -7.4      4.070      8.293
REMARK  Name = 
REMARK  2 active torsions:
REMARK  status: ('A' for Active; 'I' for Inactive)
REMARK    1  A    between atoms: C_2  and  C_5
REMARK    2  A    between atoms: N_3  and  O_4
REMARK                            x       y       z     vdW  Elec       q    Type
REMARK                         _______ _______ _______ _____ _____    ______ ____
ROOT
ATOM      1  C   UNL     1       4.458   4.179  17.642  0.00  0.00    +0.000 A 
ATOM      2  C   UNL     1       4.980   4.140  16.337  0.00  0.00    +0.000 A 
ATOM      3  C   UNL     1       5.103   5.304  15.580  0.00  0.00    +0.000 A 
ATOM      4  C   UNL     1       4.695   6.523  16.112  0.00  0.00    +0.000 A 
ATOM      5  C   UNL     1       4.140   6.590  17.398  0.00  0.00    +0.000 A 
ATOM      6  C   UNL     1       4.025   5.412  18.173  0.00  0.00    +0.000 A 
ATOM      7  C   UNL     1       3.455   5.600  19.555  0.00  0.00    +0.000 C 
ATOM      8  C   UNL     1       2.268   6.559  19.480  0.00  0.00    +0.000 C 
ATOM      9  N   UNL     1       2.660   7.877  18.972  0.00  0.00    +0.000 N 
ATOM     10  C   UNL     1       1.774   8.912  19.008  0.00  0.00    +0.000 A 
ATOM     11  N   UNL     1       1.696   9.958  18.214  0.00  0.00    +0.000 NA
ATOM     12  C   UNL     1       0.621  10.696  18.658  0.00  0.00    +0.000 A 
ATOM     13  C   UNL     1       0.065  11.882  18.158  0.00  0.00    +0.000 A 
ATOM     14  C   UNL     1      -1.036  12.442  18.826  0.00  0.00    +0.000 A 
ATOM     15  C   UNL     1      -1.570  11.834  19.965  0.00  0.00    +0.000 A 
ATOM     16  C   UNL     1      -1.034  10.646  20.471  0.00  0.00    +0.000 A 
ATOM     17  C   UNL     1       0.057  10.113  19.781  0.00  0.00    +0.000 A 
ATOM     18  N   UNL     1       0.808   8.990  19.982  0.00  0.00    +0.000 N 
ATOM     19  C   UNL     1       3.725   7.945  17.959  0.00  0.00    +0.000 C 
ATOM     20  H   UNL     1       0.688   8.337  20.736  0.00  0.00    +0.000 HD
ENDROOT
BRANCH   1  22
ATOM     21  O   UNL     1       3.491   2.039  18.105  0.00  0.00    +0.000 OA
ATOM     22  C   UNL     1       4.332   2.887  18.383  0.00  0.00    +0.000 C 
ATOM     23  N   UNL     1       5.229   2.690  19.410  0.00  0.00    +0.000 N 
ATOM     24  H   UNL     1       5.804   3.414  19.822  0.00  0.00    +0.000 HD
BRANCH  23  25
ATOM     25  O   UNL     1       5.061   1.502  20.158  0.00  0.00    +0.000 OA
ATOM     26  H   UNL     1       4.472   1.800  20.886  0.00  0.00    +0.000 HD
ENDBRANCH  23  25
ENDBRANCH   1  22
TORSDOF 2
ENDMDL
MODEL 6
REMARK VINA RESULT:      -7.4      4.019      8.055
REMARK  Name = 
REMARK  2 active torsions:
REMARK  status: ('A' for Active; 'I' for Inactive)
REMARK    1  A    between atoms: C_2  and  C_5
REMARK    2  A    between atoms: N_3  and  O_4
REMARK                            x       y       z     vdW  Elec       q    Type
REMARK                         _______ _______ _______ _____ _____    ______ ____
ROOT
ATOM      1  C   UNL     1       4.649   4.444  18.230  0.00  0.00    +0.000 A 
ATOM      2  C   UNL     1       4.271   3.505  19.206  0.00  0.00    +0.000 A 
ATOM      3  C   UNL     1       3.081   3.649  19.916  0.00  0.00    +0.000 A 
ATOM      4  C   UNL     1       2.256   4.742  19.671  0.00  0.00    +0.000 A 
ATOM      5  C   UNL     1       2.620   5.714  18.728  0.00  0.00    +0.000 A 
ATOM      6  C   UNL     1       3.822   5.563  17.996  0.00  0.00    +0.000 A 
ATOM      7  C   UNL     1       4.098   6.639  16.978  0.00  0.00    +0.000 C 
ATOM      8  C   UNL     1       3.765   8.000  17.587  0.00  0.00    +0.000 C 
ATOM      9  N   UNL     1       2.353   8.097  17.971  0.00  0.00    +0.000 N 
ATOM     10  C   UNL     1       1.834   9.295  18.361  0.00  0.00    +0.000 A 
ATOM     11  N   UNL     1       0.832   9.532  19.180  0.00  0.00    +0.000 NA
ATOM     12  C   UNL     1       0.716  10.902  19.256  0.00  0.00    +0.000 A 
ATOM     13  C   UNL     1      -0.157  11.699  20.010  0.00  0.00    +0.000 A 
ATOM     14  C   UNL     1      -0.073  13.095  19.882  0.00  0.00    +0.000 A 
ATOM     15  C   UNL     1       0.859  13.682  19.023  0.00  0.00    +0.000 A 
ATOM     16  C   UNL     1       1.744  12.903  18.272  0.00  0.00    +0.000 A 
ATOM     17  C   UNL     1       1.638  11.519  18.426  0.00  0.00    +0.000 A 
ATOM     18  N   UNL     1       2.327  10.479  17.870  0.00  0.00    +0.000 N 
ATOM     19  C   UNL     1       1.682   6.886  18.467  0.00  0.00    +0.000 C 
ATOM     20  H   UNL     1       3.063  10.567  17.191  0.00  0.00    +0.000 HD
ENDROOT
BRANCH   1  22
ATOM     21  O   UNL     1       6.029   4.007  16.324  0.00  0.00    +0.000 OA
ATOM     22  C   UNL     1       5.952   4.237  17.526  0.00  0.00    +0.000 C 
ATOM     23  N   UNL     1       7.082   4.324  18.309  0.00  0.00    +0.000 N 
ATOM     24  H   UNL     1       7.086   4.307  19.322  0.00  0.00    +0.000 HD
BRANCH  23  25
ATOM     25  O   UNL     1       8.307   4.054  17.658  0.00  0.00    +0.000 OA
ATOM     26  H   UNL     1       8.152   3.154  17.295  0.00  0.00    +0.000 HD
ENDBRANCH  23  25
ENDBRANCH   1  22
TORSDOF 2
ENDMDL
MODEL 7
REMARK VINA RESULT:      -7.2      2.585      3.554
REMARK  Name = 
REMARK  2 active torsions:
REMARK  status: ('A' for Active; 'I' for Inactive)
REMARK    1  A    between atoms: C_2  and  C_5
REMARK    2  A    between atoms: N_3  and  O_4
REMARK                            x       y       z     vdW  Elec       q    Type
REMARK                         _______ _______ _______ _____ _____    ______ ____
ROOT
ATOM      1  C   UNL     1      -0.509  11.598  21.094  0.00  0.00    +0.000 A 
ATOM      2  C   UNL     1      -0.349  12.866  20.506  0.00  0.00    +0.000 A 
ATOM      3  C   UNL     1       0.271  13.006  19.266  0.00  0.00    +0.000 A 
ATOM      4  C   UNL     1       0.753  11.884  18.601  0.00  0.00    +0.000 A 
ATOM      5  C   UNL     1       0.639  10.610  19.176  0.00  0.00    +0.000 A 
ATOM      6  C   UNL     1      -0.002  10.462  20.429  0.00  0.00    +0.000 A 
ATOM      7  C   UNL     1      -0.110   9.048  20.937  0.00  0.00    +0.000 C 
ATOM      8  C   UNL     1       1.213   8.326  20.690  0.00  0.00    +0.000 C 
ATOM      9  N   UNL     1       1.546   8.266  19.264  0.00  0.00    +0.000 N 
ATOM     10  C   UNL     1       2.592   7.504  18.840  0.00  0.00    +0.000 A 
ATOM     11  N   UNL     1       3.360   7.670  17.784  0.00  0.00    +0.000 NA
ATOM     12  C   UNL     1       4.279   6.645  17.813  0.00  0.00    +0.000 A 
ATOM     13  C   UNL     1       5.350   6.361  16.953  0.00  0.00    +0.000 A 
ATOM     14  C   UNL     1       6.130   5.221  17.206  0.00  0.00    +0.000 A 
ATOM     15  C   UNL     1       5.850   4.385  18.290  0.00  0.00    +0.000 A 
ATOM     16  C   UNL     1       4.792   4.659  19.162  0.00  0.00    +0.000 A 
ATOM     17  C   UNL     1       4.040   5.802  18.886  0.00  0.00    +0.000 A 
ATOM     18  N   UNL     1       2.966   6.366  19.514  0.00  0.00    +0.000 N 
ATOM     19  C   UNL     1       1.156   9.398  18.409  0.00  0.00    +0.000 C 
ATOM     20  H   UNL     1       2.507   5.995  20.328  0.00  0.00    +0.000 HD
ENDROOT
BRANCH   1  22
ATOM     21  O   UNL     1      -0.582  11.119  23.439  0.00  0.00    +0.000 OA
ATOM     22  C   UNL     1      -1.162  11.528  22.437  0.00  0.00    +0.000 C 
ATOM     23  N   UNL     1      -2.469  11.958  22.497  0.00  0.00    +0.000 N 
ATOM     24  H   UNL     1      -3.064  12.112  21.692  0.00  0.00    +0.000 HD
BRANCH  23  25
ATOM     25  O   UNL     1      -3.108  11.821  23.751  0.00  0.00    +0.000 OA
ATOM     26  H   UNL     1      -2.344  11.717  24.360  0.00  0.00    +0.000 HD
ENDBRANCH  23  25
ENDBRANCH   1  22
TORSDOF 2
ENDMDL
MODEL 8
REMARK VINA RESULT:      -7.0      3.757      8.531
REMARK  Name = 
REMARK  2 active torsions:
REMARK  status: ('A' for Active; 'I' for Inactive)
REMARK    1  A    between atoms: C_2  and  C_5
REMARK    2  A    between atoms: N_3  and  O_4
REMARK                            x       y       z     vdW  Elec       q    Type
REMARK                         _______ _______ _______ _____ _____    ______ ____
ROOT
ATOM      1  C   UNL     1       2.045   7.389  19.520  0.00  0.00    +0.000 A 
ATOM      2  C   UNL     1       2.265   7.570  18.143  0.00  0.00    +0.000 A 
ATOM      3  C   UNL     1       2.011   8.797  17.533  0.00  0.00    +0.000 A 
ATOM      4  C   UNL     1       1.521   9.858  18.287  0.00  0.00    +0.000 A 
ATOM      5  C   UNL     1       1.260   9.700  19.655  0.00  0.00    +0.000 A 
ATOM      6  C   UNL     1       1.529   8.459  20.281  0.00  0.00    +0.000 A 
ATOM      7  C   UNL     1       1.255   8.408  21.761  0.00  0.00    +0.000 C 
ATOM      8  C   UNL     1      -0.069   9.113  22.049  0.00  0.00    +0.000 C 
ATOM      9  N   UNL     1      -0.038  10.522  21.646  0.00  0.00    +0.000 N 
ATOM     10  C   UNL     1      -1.062  11.352  21.990  0.00  0.00    +0.000 A 
ATOM     11  N   UNL     1      -1.498  12.427  21.369  0.00  0.00    +0.000 NA
ATOM     12  C   UNL     1      -2.561  12.893  22.110  0.00  0.00    +0.000 A 
ATOM     13  C   UNL     1      -3.414  13.984  21.888  0.00  0.00    +0.000 A 
ATOM     14  C   UNL     1      -4.421  14.251  22.829  0.00  0.00    +0.000 A 
ATOM     15  C   UNL     1      -4.574  13.452  23.964  0.00  0.00    +0.000 A 
ATOM     16  C   UNL     1      -3.739  12.355  24.196  0.00  0.00    +0.000 A 
ATOM     17  C   UNL     1      -2.751  12.113  23.239  0.00  0.00    +0.000 A 
ATOM     18  N   UNL     1      -1.788  11.150  23.140  0.00  0.00    +0.000 N 
ATOM     19  C   UNL     1       0.747  10.890  20.458  0.00  0.00    +0.000 C 
ATOM     20  H   UNL     1      -1.621  10.423  23.813  0.00  0.00    +0.000 HD
ENDROOT
BRANCH   1  22
ATOM     21  O   UNL     1       3.439   5.545  20.142  0.00  0.00    +0.000 OA
ATOM     22  C   UNL     1       2.317   6.038  20.100  0.00  0.00    +0.000 C 
ATOM     23  N   UNL     1       1.224   5.364  20.598  0.00  0.00    +0.000 N 
ATOM     24  H   UNL     1       0.259   5.613  20.417  0.00  0.00    +0.000 HD
BRANCH  23  25
ATOM     25  O   UNL     1       1.470   4.057  21.078  0.00  0.00    +0.000 OA
ATOM     26  H   UNL     1       1.870   4.233  21.958  0.00  0.00    +0.000 HD
ENDBRANCH  23  25
ENDBRANCH   1  22
TORSDOF 2
ENDMDL
MODEL 9
REMARK VINA RESULT:      -6.9      9.537     11.294
REMARK  Name = 
REMARK  2 active torsions:
REMARK  status: ('A' for Active; 'I' for Inactive)
REMARK    1  A    between atoms: C_2  and  C_5
REMARK    2  A    between atoms: N_3  and  O_4
REMARK                            x       y       z     vdW  Elec       q    Type
REMARK                         _______ _______ _______ _____ _____    ______ ____
ROOT
ATOM      1  C   UNL     1      11.005  13.786  18.571  0.00  0.00    +0.000 A 
ATOM      2  C   UNL     1      12.187  13.026  18.530  0.00  0.00    +0.000 A 
ATOM      3  C   UNL     1      12.333  11.887  19.319  0.00  0.00    +0.000 A 
ATOM      4  C   UNL     1      11.305  11.497  20.170  0.00  0.00    +0.000 A 
ATOM      5  C   UNL     1      10.127  12.252  20.259  0.00  0.00    +0.000 A 
ATOM      6  C   UNL     1       9.970  13.402  19.450  0.00  0.00    +0.000 A 
ATOM      7  C   UNL     1       8.651  14.117  19.590  0.00  0.00    +0.000 C 
ATOM      8  C   UNL     1       8.279  14.192  21.069  0.00  0.00    +0.000 C 
ATOM      9  N   UNL     1       8.134  12.862  21.666  0.00  0.00    +0.000 N 
ATOM     10  C   UNL     1       7.629  12.731  22.925  0.00  0.00    +0.000 A 
ATOM     11  N   UNL     1       7.862  11.789  23.813  0.00  0.00    +0.000 NA
ATOM     12  C   UNL     1       7.127  12.124  24.929  0.00  0.00    +0.000 A 
ATOM     13  C   UNL     1       7.032  11.493  26.178  0.00  0.00    +0.000 A 
ATOM     14  C   UNL     1       6.179  12.045  27.146  0.00  0.00    +0.000 A 
ATOM     15  C   UNL     1       5.438  13.198  26.877  0.00  0.00    +0.000 A 
ATOM     16  C   UNL     1       5.528  13.846  25.641  0.00  0.00    +0.000 A 
ATOM     17  C   UNL     1       6.389  13.274  24.702  0.00  0.00    +0.000 A 
ATOM     18  N   UNL     1       6.722  13.633  23.427  0.00  0.00    +0.000 N 
ATOM     19  C   UNL     1       9.010  11.783  21.184  0.00  0.00    +0.000 C 
ATOM     20  H   UNL     1       6.346  14.420  22.927  0.00  0.00    +0.000 HD
ENDROOT
BRANCH   1  22
ATOM     21  O   UNL     1      10.890  16.145  18.179  0.00  0.00    +0.000 OA
ATOM     22  C   UNL     1      10.930  15.010  17.715  0.00  0.00    +0.000 C 
ATOM     23  N   UNL     1      10.914  14.796  16.355  0.00  0.00    +0.000 N 
ATOM     24  H   UNL     1      10.742  13.901  15.913  0.00  0.00    +0.000 HD
BRANCH  23  25
ATOM     25  O   UNL     1      10.768  15.948  15.549  0.00  0.00    +0.000 OA
ATOM     26  H   UNL     1      10.378  16.592  16.181  0.00  0.00    +0.000 HD
ENDBRANCH  23  25
ENDBRANCH   1  22
TORSDOF 2
ENDMDL
