MODEL 1
REMARK VINA RESULT:      -8.0      0.000      0.000
REMARK  Name = 
REMARK  6 active torsions:
REMARK  status: ('A' for Active; 'I' for Inactive)
REMARK    1  A    between atoms: C_1  and  C_2
REMARK    2  A    between atoms: C_2  and  O_3
REMARK    3  A    between atoms: O_3  and  C_4
REMARK    4  A    between atoms: C_10  and  C_11
REMARK    5  A    between atoms: C_13  and  C_14
REMARK    6  A    between atoms: C_21  and  C_22
REMARK                            x       y       z     vdW  Elec       q    Type
REMARK                         _______ _______ _______ _____ _____    ______ ____
ROOT
ATOM      1  C   UNL     1      -0.444  11.533  21.200  0.00  0.00    +0.000 A 
ATOM      2  C   UNL     1      -0.986  11.500  22.488  0.00  0.00    +0.000 A 
ATOM      3  C   UNL     1      -0.851  10.367  23.295  0.00  0.00    +0.000 A 
ATOM      4  C   UNL     1      -0.162   9.247  22.827  0.00  0.00    +0.000 A 
ATOM      5  C   UNL     1       0.386   9.252  21.543  0.00  0.00    +0.000 A 
ATOM      6  C   UNL     1       1.156   8.118  21.047  0.00  0.00    +0.000 A 
ATOM      7  C   UNL     1       1.655   8.106  19.798  0.00  0.00    +0.000 A 
ATOM      8  C   UNL     1       1.339   9.238  18.873  0.00  0.00    +0.000 A 
ATOM      9  O   UNL     1       1.576   9.203  17.671  0.00  0.00    +0.000 OA
ATOM     10  O   UNL     1       0.742  10.368  19.432  0.00  0.00    +0.000 OA
ATOM     11  C   UNL     1       0.229  10.386  20.744  0.00  0.00    +0.000 A 
ENDROOT
BRANCH   7  12
ATOM     12  C   UNL     1       2.474   6.993  19.387  0.00  0.00    +0.000 A 
ATOM     13  N   UNL     1       3.284   6.946  18.335  0.00  0.00    +0.000 NA
ATOM     14  C   UNL     1       3.894   5.696  18.197  0.00  0.00    +0.000 A 
ATOM     15  C   UNL     1       3.561   4.784  19.187  0.00  0.00    +0.000 A 
ATOM     16  C   UNL     1       4.020   3.397  19.496  0.00  0.00    +0.000 C 
ATOM     17  S   UNL     1       2.367   5.470  20.209  0.00  0.00    +0.000 S 
BRANCH  14  18
ATOM     18  C   UNL     1       4.823   5.433  17.092  0.00  0.00    +0.000 A 
ATOM     19  C   UNL     1       5.997   6.190  16.966  0.00  0.00    +0.000 A 
ATOM     20  C   UNL     1       6.896   5.953  15.916  0.00  0.00    +0.000 A 
ATOM     21  C   UNL     1       6.629   4.951  14.985  0.00  0.00    +0.000 A 
ATOM     22 CL   UNL     1       7.728   4.656  13.695  0.00  0.00    +0.000 Cl
ATOM     23  C   UNL     1       5.467   4.194  15.087  0.00  0.00    +0.000 A 
ATOM     24  C   UNL     1       4.561   4.451  16.121  0.00  0.00    +0.000 A 
ENDBRANCH  14  18
ENDBRANCH   7  12
BRANCH   1  25
ATOM     25  O   UNL     1      -0.528  12.617  20.355  0.00  0.00    +0.000 OA
BRANCH  25  27
ATOM     26  C   UNL     1      -2.580  12.074  19.171  0.00  0.00    +0.000 C 
ATOM     27  C   UNL     1      -1.853  13.071  20.057  0.00  0.00    +0.000 C 
ENDBRANCH  25  27
ENDBRANCH   1  25
TORSDOF 4
ENDMDL
MODEL 2
REMARK VINA RESULT:      -7.9      0.395      1.005
REMARK  Name = 
REMARK  6 active torsions:
REMARK  status: ('A' for Active; 'I' for Inactive)
REMARK    1  A    between atoms: C_1  and  C_2
REMARK    2  A    between atoms: C_2  and  O_3
REMARK    3  A    between atoms: O_3  and  C_4
REMARK    4  A    between atoms: C_10  and  C_11
REMARK    5  A    between atoms: C_13  and  C_14
REMARK    6  A    between atoms: C_21  and  C_22
REMARK                            x       y       z     vdW  Elec       q    Type
REMARK                         _______ _______ _______ _____ _____    ______ ____
ROOT
ATOM      1  C   UNL     1      -0.334  11.312  21.061  0.00  0.00    +0.000 A 
ATOM      2  C   UNL     1      -0.869  11.245  22.351  0.00  0.00    +0.000 A 
ATOM      3  C   UNL     1      -0.692  10.108  23.143  0.00  0.00    +0.000 A 
ATOM      4  C   UNL     1       0.031   9.018  22.658  0.00  0.00    +0.000 A 
ATOM      5  C   UNL     1       0.573   9.056  21.373  0.00  0.00    +0.000 A 
ATOM      6  C   UNL     1       1.378   7.954  20.859  0.00  0.00    +0.000 A 
ATOM      7  C   UNL     1       1.871   7.974  19.608  0.00  0.00    +0.000 A 
ATOM      8  C   UNL     1       1.513   9.106  18.698  0.00  0.00    +0.000 A 
ATOM      9  O   UNL     1       1.745   9.093  17.495  0.00  0.00    +0.000 OA
ATOM     10  O   UNL     1       0.881  10.209  19.273  0.00  0.00    +0.000 OA
ATOM     11  C   UNL     1       0.375  10.194  20.587  0.00  0.00    +0.000 A 
ENDROOT
BRANCH   7  12
ATOM     12  C   UNL     1       2.725   6.894  19.180  0.00  0.00    +0.000 A 
ATOM     13  N   UNL     1       3.481   6.862  18.088  0.00  0.00    +0.000 NA
ATOM     14  C   UNL     1       4.148   5.641  17.946  0.00  0.00    +0.000 A 
ATOM     15  C   UNL     1       3.913   4.738  18.973  0.00  0.00    +0.000 A 
ATOM     16  C   UNL     1       4.459   3.384  19.289  0.00  0.00    +0.000 C 
ATOM     17  S   UNL     1       2.739   5.389  20.040  0.00  0.00    +0.000 S 
BRANCH  14  18
ATOM     18  C   UNL     1       5.031   5.398  16.800  0.00  0.00    +0.000 A 
ATOM     19  C   UNL     1       4.641   4.506  15.790  0.00  0.00    +0.000 A 
ATOM     20  C   UNL     1       5.473   4.261  14.688  0.00  0.00    +0.000 A 
ATOM     21  C   UNL     1       6.701   4.912  14.585  0.00  0.00    +0.000 A 
ATOM     22 CL   UNL     1       7.725   4.615  13.235  0.00  0.00    +0.000 Cl
ATOM     23  C   UNL     1       7.110   5.794  15.580  0.00  0.00    +0.000 A 
ATOM     24  C   UNL     1       6.288   6.015  16.690  0.00  0.00    +0.000 A 
ENDBRANCH  14  18
ENDBRANCH   7  12
BRANCH   1  25
ATOM     25  O   UNL     1      -0.458  12.403  20.230  0.00  0.00    +0.000 OA
BRANCH  25  27
ATOM     26  C   UNL     1      -2.067  11.971  18.459  0.00  0.00    +0.000 C 
ATOM     27  C   UNL     1      -1.785  12.685  19.769  0.00  0.00    +0.000 C 
ENDBRANCH  25  27
ENDBRANCH   1  25
TORSDOF 4
ENDMDL
MODEL 3
REMARK VINA RESULT:      -7.5      4.168      8.918
REMARK  Name = 
REMARK  6 active torsions:
REMARK  status: ('A' for Active; 'I' for Inactive)
REMARK    1  A    between atoms: C_1  and  C_2
REMARK    2  A    between atoms: C_2  and  O_3
REMARK    3  A    between atoms: O_3  and  C_4
REMARK    4  A    between atoms: C_10  and  C_11
REMARK    5  A    between atoms: C_13  and  C_14
REMARK    6  A    between atoms: C_21  and  C_22
REMARK                            x       y       z     vdW  Elec       q    Type
REMARK                         _______ _______ _______ _____ _____    ______ ____
ROOT
ATOM      1  C   UNL     1       5.010   4.718  18.604  0.00  0.00    +0.000 A 
ATOM      2  C   UNL     1       5.800   4.468  17.478  0.00  0.00    +0.000 A 
ATOM      3  C   UNL     1       5.703   5.273  16.340  0.00  0.00    +0.000 A 
ATOM      4  C   UNL     1       4.816   6.351  16.313  0.00  0.00    +0.000 A 
ATOM      5  C   UNL     1       4.013   6.621  17.422  0.00  0.00    +0.000 A 
ATOM      6  C   UNL     1       3.116   7.770  17.443  0.00  0.00    +0.000 A 
ATOM      7  C   UNL     1       2.316   8.012  18.496  0.00  0.00    +0.000 A 
ATOM      8  C   UNL     1       2.281   7.035  19.629  0.00  0.00    +0.000 A 
ATOM      9  O   UNL     1       1.437   7.073  20.515  0.00  0.00    +0.000 OA
ATOM     10  O   UNL     1       3.264   6.044  19.644  0.00  0.00    +0.000 OA
ATOM     11  C   UNL     1       4.110   5.797  18.546  0.00  0.00    +0.000 A 
ENDROOT
BRANCH   7  12
ATOM     12  C   UNL     1       1.508   9.206  18.496  0.00  0.00    +0.000 A 
ATOM     13  N   UNL     1       0.196   9.279  18.296  0.00  0.00    +0.000 NA
ATOM     14  C   UNL     1      -0.265  10.599  18.312  0.00  0.00    +0.000 A 
ATOM     15  C   UNL     1       0.718  11.546  18.559  0.00  0.00    +0.000 A 
ATOM     16  C   UNL     1       0.686  13.026  18.751  0.00  0.00    +0.000 C 
ATOM     17  S   UNL     1       2.245  10.769  18.631  0.00  0.00    +0.000 S 
BRANCH  14  18
ATOM     18  C   UNL     1      -1.686  10.899  18.104  0.00  0.00    +0.000 A 
ATOM     19  C   UNL     1      -2.396  11.637  19.063  0.00  0.00    +0.000 A 
ATOM     20  C   UNL     1      -3.754  11.932  18.882  0.00  0.00    +0.000 A 
ATOM     21  C   UNL     1      -4.414  11.496  17.734  0.00  0.00    +0.000 A 
ATOM     22 CL   UNL     1      -6.080  11.856  17.506  0.00  0.00    +0.000 Cl
ATOM     23  C   UNL     1      -3.731  10.757  16.775  0.00  0.00    +0.000 A 
ATOM     24  C   UNL     1      -2.382  10.442  16.972  0.00  0.00    +0.000 A 
ENDBRANCH  14  18
ENDBRANCH   7  12
BRANCH   1  25
ATOM     25  O   UNL     1       5.060   3.975  19.762  0.00  0.00    +0.000 OA
BRANCH  25  27
ATOM     26  C   UNL     1       3.143   2.652  20.458  0.00  0.00    +0.000 C 
ATOM     27  C   UNL     1       4.455   2.679  19.695  0.00  0.00    +0.000 C 
ENDBRANCH  25  27
ENDBRANCH   1  25
TORSDOF 4
ENDMDL
MODEL 4
REMARK VINA RESULT:      -7.5      0.998      1.140
REMARK  Name = 
REMARK  6 active torsions:
REMARK  status: ('A' for Active; 'I' for Inactive)
REMARK    1  A    between atoms: C_1  and  C_2
REMARK    2  A    between atoms: C_2  and  O_3
REMARK    3  A    between atoms: O_3  and  C_4
REMARK    4  A    between atoms: C_10  and  C_11
REMARK    5  A    between atoms: C_13  and  C_14
REMARK    6  A    between atoms: C_21  and  C_22
REMARK                            x       y       z     vdW  Elec       q    Type
REMARK                         _______ _______ _______ _____ _____    ______ ____
ROOT
ATOM      1  C   UNL     1      -0.205  12.304  21.372  0.00  0.00    +0.000 A 
ATOM      2  C   UNL     1      -0.988  12.291  22.530  0.00  0.00    +0.000 A 
ATOM      3  C   UNL     1      -1.231  11.100  23.218  0.00  0.00    +0.000 A 
ATOM      4  C   UNL     1      -0.687   9.899  22.762  0.00  0.00    +0.000 A 
ATOM      5  C   UNL     1       0.095   9.882  21.606  0.00  0.00    +0.000 A 
ATOM      6  C   UNL     1       0.721   8.652  21.135  0.00  0.00    +0.000 A 
ATOM      7  C   UNL     1       1.446   8.628  20.003  0.00  0.00    +0.000 A 
ATOM      8  C   UNL     1       1.538   9.864  19.166  0.00  0.00    +0.000 A 
ATOM      9  O   UNL     1       1.998   9.867  18.030  0.00  0.00    +0.000 OA
ATOM     10  O   UNL     1       1.066  11.050  19.729  0.00  0.00    +0.000 OA
ATOM     11  C   UNL     1       0.317  11.079  20.921  0.00  0.00    +0.000 A 
ENDROOT
BRANCH   7  12
ATOM     12  C   UNL     1       2.106   7.402  19.626  0.00  0.00    +0.000 A 
ATOM     13  N   UNL     1       2.824   7.189  18.529  0.00  0.00    +0.000 NA
ATOM     14  C   UNL     1       3.282   5.870  18.449  0.00  0.00    +0.000 A 
ATOM     15  C   UNL     1       2.927   5.074  19.527  0.00  0.00    +0.000 A 
ATOM     16  C   UNL     1       3.253   3.669  19.912  0.00  0.00    +0.000 C 
ATOM     17  S   UNL     1       1.895   5.963  20.569  0.00  0.00    +0.000 S 
BRANCH  14  18
ATOM     18  C   UNL     1       4.091   5.426  17.308  0.00  0.00    +0.000 A 
ATOM     19  C   UNL     1       4.766   6.367  16.517  0.00  0.00    +0.000 A 
ATOM     20  C   UNL     1       5.543   5.961  15.422  0.00  0.00    +0.000 A 
ATOM     21  C   UNL     1       5.656   4.607  15.114  0.00  0.00    +0.000 A 
ATOM     22 CL   UNL     1       6.607   4.103  13.773  0.00  0.00    +0.000 Cl
ATOM     23  C   UNL     1       4.988   3.658  15.881  0.00  0.00    +0.000 A 
ATOM     24  C   UNL     1       4.193   4.070  16.956  0.00  0.00    +0.000 A 
ENDBRANCH  14  18
ENDBRANCH   7  12
BRANCH   1  25
ATOM     25  O   UNL     1       0.086  13.440  20.650  0.00  0.00    +0.000 OA
BRANCH  25  27
ATOM     26  C   UNL     1      -0.458  15.065  18.926  0.00  0.00    +0.000 C 
ATOM     27  C   UNL     1      -0.931  13.874  19.739  0.00  0.00    +0.000 C 
ENDBRANCH  25  27
ENDBRANCH   1  25
TORSDOF 4
ENDMDL
MODEL 5
REMARK VINA RESULT:      -7.5      3.738      8.391
REMARK  Name = 
REMARK  6 active torsions:
REMARK  status: ('A' for Active; 'I' for Inactive)
REMARK    1  A    between atoms: C_1  and  C_2
REMARK    2  A    between atoms: C_2  and  O_3
REMARK    3  A    between atoms: O_3  and  C_4
REMARK    4  A    between atoms: C_10  and  C_11
REMARK    5  A    between atoms: C_13  and  C_14
REMARK    6  A    between atoms: C_21  and  C_22
REMARK                            x       y       z     vdW  Elec       q    Type
REMARK                         _______ _______ _______ _____ _____    ______ ____
ROOT
ATOM      1  C   UNL     1       2.892   3.846  18.515  0.00  0.00    +0.000 A 
ATOM      2  C   UNL     1       2.890   2.774  19.412  0.00  0.00    +0.000 A 
ATOM      3  C   UNL     1       2.502   2.952  20.742  0.00  0.00    +0.000 A 
ATOM      4  C   UNL     1       2.101   4.209  21.197  0.00  0.00    +0.000 A 
ATOM      5  C   UNL     1       2.098   5.298  20.325  0.00  0.00    +0.000 A 
ATOM      6  C   UNL     1       1.635   6.611  20.757  0.00  0.00    +0.000 A 
ATOM      7  C   UNL     1       1.665   7.669  19.928  0.00  0.00    +0.000 A 
ATOM      8  C   UNL     1       2.265   7.516  18.566  0.00  0.00    +0.000 A 
ATOM      9  O   UNL     1       2.518   8.469  17.839  0.00  0.00    +0.000 OA
ATOM     10  O   UNL     1       2.545   6.219  18.137  0.00  0.00    +0.000 OA
ATOM     11  C   UNL     1       2.504   5.107  19.001  0.00  0.00    +0.000 A 
ENDROOT
BRANCH   7  12
ATOM     12  C   UNL     1       1.121   8.925  20.384  0.00  0.00    +0.000 A 
ATOM     13  N   UNL     1       1.270  10.113  19.807  0.00  0.00    +0.000 NA
ATOM     14  C   UNL     1       0.654  11.132  20.539  0.00  0.00    +0.000 A 
ATOM     15  C   UNL     1      -0.004  10.700  21.681  0.00  0.00    +0.000 A 
ATOM     16  C   UNL     1      -0.852  11.393  22.696  0.00  0.00    +0.000 C 
ATOM     17  S   UNL     1       0.282   9.024  21.898  0.00  0.00    +0.000 S 
BRANCH  14  18
ATOM     18  C   UNL     1       0.706  12.524  20.076  0.00  0.00    +0.000 A 
ATOM     19  C   UNL     1      -0.236  12.991  19.149  0.00  0.00    +0.000 A 
ATOM     20  C   UNL     1      -0.201  14.318  18.695  0.00  0.00    +0.000 A 
ATOM     21  C   UNL     1       0.776  15.190  19.172  0.00  0.00    +0.000 A 
ATOM     22 CL   UNL     1       0.825  16.818  18.618  0.00  0.00    +0.000 Cl
ATOM     23  C   UNL     1       1.724  14.744  20.086  0.00  0.00    +0.000 A 
ATOM     24  C   UNL     1       1.701  13.413  20.516  0.00  0.00    +0.000 A 
ENDBRANCH  14  18
ENDBRANCH   7  12
BRANCH   1  25
ATOM     25  O   UNL     1       3.251   3.743  17.190  0.00  0.00    +0.000 OA
BRANCH  25  27
ATOM     26  C   UNL     1       5.120   4.942  16.200  0.00  0.00    +0.000 C 
ATOM     27  C   UNL     1       4.658   3.693  16.929  0.00  0.00    +0.000 C 
ENDBRANCH  25  27
ENDBRANCH   1  25
TORSDOF 4
ENDMDL
MODEL 6
REMARK VINA RESULT:      -7.5      4.150      9.210
REMARK  Name = 
REMARK  6 active torsions:
REMARK  status: ('A' for Active; 'I' for Inactive)
REMARK    1  A    between atoms: C_1  and  C_2
REMARK    2  A    between atoms: C_2  and  O_3
REMARK    3  A    between atoms: O_3  and  C_4
REMARK    4  A    between atoms: C_10  and  C_11
REMARK    5  A    between atoms: C_13  and  C_14
REMARK    6  A    between atoms: C_21  and  C_22
REMARK                            x       y       z     vdW  Elec       q    Type
REMARK                         _______ _______ _______ _____ _____    ______ ____
ROOT
ATOM      1  C   UNL     1       4.781   4.962  18.655  0.00  0.00    +0.000 A 
ATOM      2  C   UNL     1       5.565   4.873  17.501  0.00  0.00    +0.000 A 
ATOM      3  C   UNL     1       5.428   5.804  16.467  0.00  0.00    +0.000 A 
ATOM      4  C   UNL     1       4.507   6.846  16.576  0.00  0.00    +0.000 A 
ATOM      5  C   UNL     1       3.709   6.957  17.715  0.00  0.00    +0.000 A 
ATOM      6  C   UNL     1       2.776   8.065  17.880  0.00  0.00    +0.000 A 
ATOM      7  C   UNL     1       1.982   8.154  18.962  0.00  0.00    +0.000 A 
ATOM      8  C   UNL     1       1.993   7.049  19.970  0.00  0.00    +0.000 A 
ATOM      9  O   UNL     1       1.159   6.954  20.863  0.00  0.00    +0.000 OA
ATOM     10  O   UNL     1       3.006   6.097  19.860  0.00  0.00    +0.000 OA
ATOM     11  C   UNL     1       3.847   6.010  18.733  0.00  0.00    +0.000 A 
ENDROOT
BRANCH   7  12
ATOM     12  C   UNL     1       1.136   9.312  19.109  0.00  0.00    +0.000 A 
ATOM     13  N   UNL     1       0.976  10.047  20.205  0.00  0.00    +0.000 NA
ATOM     14  C   UNL     1       0.042  11.070  20.020  0.00  0.00    +0.000 A 
ATOM     15  C   UNL     1      -0.496  11.130  18.742  0.00  0.00    +0.000 A 
ATOM     16  C   UNL     1      -1.435  12.078  18.072  0.00  0.00    +0.000 C 
ATOM     17  S   UNL     1       0.081   9.801  17.824  0.00  0.00    +0.000 S 
BRANCH  14  18
ATOM     18  C   UNL     1      -0.285  11.993  21.112  0.00  0.00    +0.000 A 
ATOM     19  C   UNL     1      -1.251  11.638  22.066  0.00  0.00    +0.000 A 
ATOM     20  C   UNL     1      -1.577  12.508  23.116  0.00  0.00    +0.000 A 
ATOM     21  C   UNL     1      -0.933  13.740  23.225  0.00  0.00    +0.000 A 
ATOM     22 CL   UNL     1      -1.329  14.811  24.511  0.00  0.00    +0.000 Cl
ATOM     23  C   UNL     1       0.021  14.114  22.285  0.00  0.00    +0.000 A 
ATOM     24  C   UNL     1       0.324  13.254  21.224  0.00  0.00    +0.000 A 
ENDBRANCH  14  18
ENDBRANCH   7  12
BRANCH   1  25
ATOM     25  O   UNL     1       4.869   4.089  19.717  0.00  0.00    +0.000 OA
BRANCH  25  27
ATOM     26  C   UNL     1       2.952   2.595  19.684  0.00  0.00    +0.000 C 
ATOM     27  C   UNL     1       4.445   2.747  19.453  0.00  0.00    +0.000 C 
ENDBRANCH  25  27
ENDBRANCH   1  25
TORSDOF 4
ENDMDL
MODEL 7
REMARK VINA RESULT:      -7.4      3.841      8.710
REMARK  Name = 
REMARK  6 active torsions:
REMARK  status: ('A' for Active; 'I' for Inactive)
REMARK    1  A    between atoms: C_1  and  C_2
REMARK    2  A    between atoms: C_2  and  O_3
REMARK    3  A    between atoms: O_3  and  C_4
REMARK    4  A    between atoms: C_10  and  C_11
REMARK    5  A    between atoms: C_13  and  C_14
REMARK    6  A    between atoms: C_21  and  C_22
REMARK                            x       y       z     vdW  Elec       q    Type
REMARK                         _______ _______ _______ _____ _____    ______ ____
ROOT
ATOM      1  C   UNL     1       4.492   4.030  17.954  0.00  0.00    +0.000 A 
ATOM      2  C   UNL     1       5.277   4.214  16.812  0.00  0.00    +0.000 A 
ATOM      3  C   UNL     1       5.310   5.447  16.156  0.00  0.00    +0.000 A 
ATOM      4  C   UNL     1       4.562   6.522  16.638  0.00  0.00    +0.000 A 
ATOM      5  C   UNL     1       3.767   6.365  17.774  0.00  0.00    +0.000 A 
ATOM      6  C   UNL     1       3.016   7.484  18.332  0.00  0.00    +0.000 A 
ATOM      7  C   UNL     1       2.223   7.325  19.406  0.00  0.00    +0.000 A 
ATOM      8  C   UNL     1       2.039   5.959  19.985  0.00  0.00    +0.000 A 
ATOM      9  O   UNL     1       1.181   5.699  20.821  0.00  0.00    +0.000 OA
ATOM     10  O   UNL     1       2.892   4.954  19.528  0.00  0.00    +0.000 OA
ATOM     11  C   UNL     1       3.733   5.122  18.410  0.00  0.00    +0.000 A 
ENDROOT
BRANCH   7  12
ATOM     12  C   UNL     1       1.566   8.483  19.961  0.00  0.00    +0.000 A 
ATOM     13  N   UNL     1       1.431   9.674  19.387  0.00  0.00    +0.000 NA
ATOM     14  C   UNL     1       0.784  10.589  20.222  0.00  0.00    +0.000 A 
ATOM     15  C   UNL     1       0.393  10.069  21.447  0.00  0.00    +0.000 A 
ATOM     16  C   UNL     1      -0.384  10.628  22.594  0.00  0.00    +0.000 C 
ATOM     17  S   UNL     1       0.972   8.462  21.590  0.00  0.00    +0.000 S 
BRANCH  14  18
ATOM     18  C   UNL     1       0.541  11.967  19.779  0.00  0.00    +0.000 A 
ATOM     19  C   UNL     1      -0.420  12.227  18.791  0.00  0.00    +0.000 A 
ATOM     20  C   UNL     1      -0.666  13.536  18.354  0.00  0.00    +0.000 A 
ATOM     21  C   UNL     1       0.046  14.599  18.908  0.00  0.00    +0.000 A 
ATOM     22 CL   UNL     1      -0.250  16.208  18.376  0.00  0.00    +0.000 Cl
ATOM     23  C   UNL     1       1.009  14.362  19.882  0.00  0.00    +0.000 A 
ATOM     24  C   UNL     1       1.269  13.051  20.296  0.00  0.00    +0.000 A 
ENDBRANCH  14  18
ENDBRANCH   7  12
BRANCH   1  25
ATOM     25  O   UNL     1       4.420   2.849  18.659  0.00  0.00    +0.000 OA
BRANCH  25  27
ATOM     26  C   UNL     1       2.221   1.813  18.693  0.00  0.00    +0.000 C 
ATOM     27  C   UNL     1       3.606   1.826  18.073  0.00  0.00    +0.000 C 
ENDBRANCH  25  27
ENDBRANCH   1  25
TORSDOF 4
ENDMDL
MODEL 8
REMARK VINA RESULT:      -7.3      1.583      2.509
REMARK  Name = 
REMARK  6 active torsions:
REMARK  status: ('A' for Active; 'I' for Inactive)
REMARK    1  A    between atoms: C_1  and  C_2
REMARK    2  A    between atoms: C_2  and  O_3
REMARK    3  A    between atoms: O_3  and  C_4
REMARK    4  A    between atoms: C_10  and  C_11
REMARK    5  A    between atoms: C_13  and  C_14
REMARK    6  A    between atoms: C_21  and  C_22
REMARK                            x       y       z     vdW  Elec       q    Type
REMARK                         _______ _______ _______ _____ _____    ______ ____
ROOT
ATOM      1  C   UNL     1      -1.429  12.243  21.340  0.00  0.00    +0.000 A 
ATOM      2  C   UNL     1      -2.171  12.853  20.324  0.00  0.00    +0.000 A 
ATOM      3  C   UNL     1      -2.094  12.395  19.007  0.00  0.00    +0.000 A 
ATOM      4  C   UNL     1      -1.278  11.311  18.684  0.00  0.00    +0.000 A 
ATOM      5  C   UNL     1      -0.523  10.686  19.678  0.00  0.00    +0.000 A 
ATOM      6  C   UNL     1       0.298   9.518  19.381  0.00  0.00    +0.000 A 
ATOM      7  C   UNL     1       1.052   8.936  20.330  0.00  0.00    +0.000 A 
ATOM      8  C   UNL     1       1.118   9.550  21.692  0.00  0.00    +0.000 A 
ATOM      9  O   UNL     1       1.934   9.207  22.539  0.00  0.00    +0.000 OA
ATOM     10  O   UNL     1       0.200  10.562  21.978  0.00  0.00    +0.000 OA
ATOM     11  C   UNL     1      -0.599  11.165  20.988  0.00  0.00    +0.000 A 
ENDROOT
BRANCH   7  12
ATOM     12  C   UNL     1       1.782   7.737  19.999  0.00  0.00    +0.000 A 
ATOM     13  N   UNL     1       2.568   7.550  18.943  0.00  0.00    +0.000 NA
ATOM     14  C   UNL     1       3.085   6.252  18.897  0.00  0.00    +0.000 A 
ATOM     15  C   UNL     1       2.705   5.446  19.961  0.00  0.00    +0.000 A 
ATOM     16  C   UNL     1       3.069   4.058  20.372  0.00  0.00    +0.000 C 
ATOM     17  S   UNL     1       1.581   6.295  20.939  0.00  0.00    +0.000 S 
BRANCH  14  18
ATOM     18  C   UNL     1       3.973   5.837  17.805  0.00  0.00    +0.000 A 
ATOM     19  C   UNL     1       4.884   6.751  17.255  0.00  0.00    +0.000 A 
ATOM     20  C   UNL     1       5.739   6.372  16.211  0.00  0.00    +0.000 A 
ATOM     21  C   UNL     1       5.695   5.072  15.712  0.00  0.00    +0.000 A 
ATOM     22 CL   UNL     1       6.741   4.602  14.431  0.00  0.00    +0.000 Cl
ATOM     23  C   UNL     1       4.793   4.153  16.237  0.00  0.00    +0.000 A 
ATOM     24  C   UNL     1       3.924   4.542  17.262  0.00  0.00    +0.000 A 
ENDBRANCH  14  18
ENDBRANCH   7  12
BRANCH   1  25
ATOM     25  O   UNL     1      -1.463  12.632  22.661  0.00  0.00    +0.000 OA
BRANCH  25  27
ATOM     26  C   UNL     1      -3.742  12.871  23.472  0.00  0.00    +0.000 C 
ATOM     27  C   UNL     1      -2.483  12.023  23.462  0.00  0.00    +0.000 C 
ENDBRANCH  25  27
ENDBRANCH   1  25
TORSDOF 4
ENDMDL
MODEL 9
REMARK VINA RESULT:      -7.3      3.588      8.520
REMARK  Name = 
REMARK  6 active torsions:
REMARK  status: ('A' for Active; 'I' for Inactive)
REMARK    1  A    between atoms: C_1  and  C_2
REMARK    2  A    between atoms: C_2  and  O_3
REMARK    3  A    between atoms: O_3  and  C_4
REMARK    4  A    between atoms: C_10  and  C_11
REMARK    5  A    between atoms: C_13  and  C_14
REMARK    6  A    between atoms: C_21  and  C_22
REMARK                            x       y       z     vdW  Elec       q    Type
REMARK                         _______ _______ _______ _____ _____    ______ ____
ROOT
ATOM      1  C   UNL     1       3.739   3.693  17.784  0.00  0.00    +0.000 A 
ATOM      2  C   UNL     1       3.720   2.514  18.535  0.00  0.00    +0.000 A 
ATOM      3  C   UNL     1       3.201   2.498  19.832  0.00  0.00    +0.000 A 
ATOM      4  C   UNL     1       2.683   3.663  20.398  0.00  0.00    +0.000 A 
ATOM      5  C   UNL     1       2.693   4.855  19.673  0.00  0.00    +0.000 A 
ATOM      6  C   UNL     1       2.111   6.076  20.217  0.00  0.00    +0.000 A 
ATOM      7  C   UNL     1       2.151   7.233  19.533  0.00  0.00    +0.000 A 
ATOM      8  C   UNL     1       2.883   7.289  18.230  0.00  0.00    +0.000 A 
ATOM      9  O   UNL     1       3.142   8.340  17.656  0.00  0.00    +0.000 OA
ATOM     10  O   UNL     1       3.281   6.074  17.672  0.00  0.00    +0.000 OA
ATOM     11  C   UNL     1       3.229   4.859  18.383  0.00  0.00    +0.000 A 
ENDROOT
BRANCH   7  12
ATOM     12  C   UNL     1       1.491   8.390  20.086  0.00  0.00    +0.000 A 
ATOM     13  N   UNL     1       1.356   9.581  19.511  0.00  0.00    +0.000 NA
ATOM     14  C   UNL     1       0.705  10.496  20.344  0.00  0.00    +0.000 A 
ATOM     15  C   UNL     1       0.311   9.976  21.568  0.00  0.00    +0.000 A 
ATOM     16  C   UNL     1      -0.470  10.534  22.712  0.00  0.00    +0.000 C 
ATOM     17  S   UNL     1       0.892   8.369  21.713  0.00  0.00    +0.000 S 
BRANCH  14  18
ATOM     18  C   UNL     1       0.462  11.873  19.899  0.00  0.00    +0.000 A 
ATOM     19  C   UNL     1      -0.837  12.285  19.569  0.00  0.00    +0.000 A 
ATOM     20  C   UNL     1      -1.089  13.596  19.141  0.00  0.00    +0.000 A 
ATOM     21  C   UNL     1      -0.040  14.510  19.047  0.00  0.00    +0.000 A 
ATOM     22 CL   UNL     1      -0.342  16.120  18.522  0.00  0.00    +0.000 Cl
ATOM     23  C   UNL     1       1.257  14.119  19.362  0.00  0.00    +0.000 A 
ATOM     24  C   UNL     1       1.507  12.803  19.763  0.00  0.00    +0.000 A 
ENDBRANCH  14  18
ENDBRANCH   7  12
BRANCH   1  25
ATOM     25  O   UNL     1       4.224   3.781  16.498  0.00  0.00    +0.000 OA
BRANCH  25  27
ATOM     26  C   UNL     1       5.996   4.490  14.992  0.00  0.00    +0.000 C 
ATOM     27  C   UNL     1       5.636   3.990  16.380  0.00  0.00    +0.000 C 
ENDBRANCH  25  27
ENDBRANCH   1  25
TORSDOF 4
ENDMDL
