MODEL 1
REMARK VINA RESULT:      -8.5      0.000      0.000
REMARK  Name = 
REMARK  7 active torsions:
REMARK  status: ('A' for Active; 'I' for Inactive)
REMARK    1  A    between atoms: C_1  and  C_2
REMARK    2  A    between atoms: C_2  and  C_3
REMARK    3  A    between atoms: C_2  and  C_4
REMARK    4  A    between atoms: C_4  and  C_5
REMARK    5  A    between atoms: C_8  and  S_9
REMARK    6  A    between atoms: S_9  and  N_12
REMARK    7  A    between atoms: C_20  and  C_21
REMARK                            x       y       z     vdW  Elec       q    Type
REMARK                         _______ _______ _______ _____ _____    ______ ____
ROOT
ATOM      1  S   UNL     1       4.872   5.796  17.840  0.00  0.00    +0.000 S 
ATOM      2  O   UNL     1       5.275   4.823  18.841  0.00  0.00    +0.000 OA
ATOM      3  O   UNL     1       5.356   7.160  17.900  0.00  0.00    +0.000 OA
ENDROOT
BRANCH   1   4
ATOM      4  N   UNL     1       3.114   5.803  17.781  0.00  0.00    +0.000 N 
ATOM      5  C   UNL     1       2.573   4.721  18.600  0.00  0.00    +0.000 A 
ATOM      6  C   UNL     1       1.931   3.600  18.109  0.00  0.00    +0.000 A 
ATOM      7  C   UNL     1       1.077   2.899  18.975  0.00  0.00    +0.000 A 
ATOM      8  C   UNL     1       0.933   3.281  20.322  0.00  0.00    +0.000 A 
ATOM      9  C   UNL     1       1.559   4.429  20.805  0.00  0.00    +0.000 A 
ATOM     10  C   UNL     1       2.285   5.183  19.900  0.00  0.00    +0.000 A 
ATOM     11  C   UNL     1       2.509   6.677  19.968  0.00  0.00    +0.000 C 
ATOM     12  C   UNL     1       2.384   6.948  18.453  0.00  0.00    +0.000 C 
ATOM     13  C   UNL     1       2.623   8.321  17.900  0.00  0.00    +0.000 C 
ENDBRANCH   1   4
BRANCH   1  17
ATOM     14  C   UNL     1       6.305   4.074  13.797  0.00  0.00    +0.000 A 
ATOM     15  C   UNL     1       7.111   4.971  14.511  0.00  0.00    +0.000 A 
ATOM     16  C   UNL     1       6.686   5.497  15.744  0.00  0.00    +0.000 A 
ATOM     17  C   UNL     1       5.434   5.136  16.265  0.00  0.00    +0.000 A 
ATOM     18  C   UNL     1       4.643   4.212  15.590  0.00  0.00    +0.000 A 
ATOM     19  C   UNL     1       5.077   3.691  14.362  0.00  0.00    +0.000 A 
BRANCH  14  20
ATOM     20  C   UNL     1       6.710   3.563  12.427  0.00  0.00    +0.000 C 
BRANCH  20  22
ATOM     21  C   UNL     1       4.640   2.873  11.099  0.00  0.00    +0.000 C 
ATOM     22  C   UNL     1       5.883   2.393  11.850  0.00  0.00    +0.000 C 
ATOM     23  C   UNL     1       6.753   1.562  10.895  0.00  0.00    +0.000 C 
ENDBRANCH  20  22
ENDBRANCH  14  20
ENDBRANCH   1  17
TORSDOF 4
ENDMDL
MODEL 2
REMARK VINA RESULT:      -8.1      0.071      1.008
REMARK  Name = 
REMARK  7 active torsions:
REMARK  status: ('A' for Active; 'I' for Inactive)
REMARK    1  A    between atoms: C_1  and  C_2
REMARK    2  A    between atoms: C_2  and  C_3
REMARK    3  A    between atoms: C_2  and  C_4
REMARK    4  A    between atoms: C_4  and  C_5
REMARK    5  A    between atoms: C_8  and  S_9
REMARK    6  A    between atoms: S_9  and  N_12
REMARK    7  A    between atoms: C_20  and  C_21
REMARK                            x       y       z     vdW  Elec       q    Type
REMARK                         _______ _______ _______ _____ _____    ______ ____
ROOT
ATOM      1  S   UNL     1       4.854   5.800  17.802  0.00  0.00    +0.000 S 
ATOM      2  O   UNL     1       5.262   4.832  18.805  0.00  0.00    +0.000 OA
ATOM      3  O   UNL     1       5.350   7.160  17.843  0.00  0.00    +0.000 OA
ENDROOT
BRANCH   1   4
ATOM      4  N   UNL     1       3.095   5.821  17.766  0.00  0.00    +0.000 N 
ATOM      5  C   UNL     1       2.556   4.741  18.590  0.00  0.00    +0.000 A 
ATOM      6  C   UNL     1       1.898   3.626  18.104  0.00  0.00    +0.000 A 
ATOM      7  C   UNL     1       1.051   2.930  18.979  0.00  0.00    +0.000 A 
ATOM      8  C   UNL     1       0.927   3.310  20.329  0.00  0.00    +0.000 A 
ATOM      9  C   UNL     1       1.569   4.451  20.807  0.00  0.00    +0.000 A 
ATOM     10  C   UNL     1       2.289   5.202  19.894  0.00  0.00    +0.000 A 
ATOM     11  C   UNL     1       2.527   6.694  19.963  0.00  0.00    +0.000 C 
ATOM     12  C   UNL     1       2.383   6.970  18.451  0.00  0.00    +0.000 C 
ATOM     13  C   UNL     1       2.626   8.342  17.899  0.00  0.00    +0.000 C 
ENDBRANCH   1   4
BRANCH   1  17
ATOM     14  C   UNL     1       6.238   4.082  13.740  0.00  0.00    +0.000 A 
ATOM     15  C   UNL     1       5.026   3.668  14.308  0.00  0.00    +0.000 A 
ATOM     16  C   UNL     1       4.594   4.188  15.542  0.00  0.00    +0.000 A 
ATOM     17  C   UNL     1       5.388   5.122  16.225  0.00  0.00    +0.000 A 
ATOM     18  C   UNL     1       6.572   5.575  15.652  0.00  0.00    +0.000 A 
ATOM     19  C   UNL     1       6.993   5.053  14.421  0.00  0.00    +0.000 A 
BRANCH  14  20
ATOM     20  C   UNL     1       6.760   3.470  12.454  0.00  0.00    +0.000 C 
BRANCH  20  22
ATOM     21  C   UNL     1       4.673   2.860  11.113  0.00  0.00    +0.000 C 
ATOM     22  C   UNL     1       5.917   2.335  11.831  0.00  0.00    +0.000 C 
ATOM     23  C   UNL     1       6.772   1.539  10.834  0.00  0.00    +0.000 C 
ENDBRANCH  20  22
ENDBRANCH  14  20
ENDBRANCH   1  17
TORSDOF 4
ENDMDL
MODEL 3
REMARK VINA RESULT:      -7.5      4.919      7.549
REMARK  Name = 
REMARK  7 active torsions:
REMARK  status: ('A' for Active; 'I' for Inactive)
REMARK    1  A    between atoms: C_1  and  C_2
REMARK    2  A    between atoms: C_2  and  C_3
REMARK    3  A    between atoms: C_2  and  C_4
REMARK    4  A    between atoms: C_4  and  C_5
REMARK    5  A    between atoms: C_8  and  S_9
REMARK    6  A    between atoms: S_9  and  N_12
REMARK    7  A    between atoms: C_20  and  C_21
REMARK                            x       y       z     vdW  Elec       q    Type
REMARK                         _______ _______ _______ _____ _____    ______ ____
ROOT
ATOM      1  S   UNL     1       0.389  10.752  20.345  0.00  0.00    +0.000 S 
ATOM      2  O   UNL     1      -0.786  10.362  21.106  0.00  0.00    +0.000 OA
ATOM      3  O   UNL     1       1.402  11.602  20.935  0.00  0.00    +0.000 OA
ENDROOT
BRANCH   1   4
ATOM      4  N   UNL     1      -0.167  11.466  18.836  0.00  0.00    +0.000 N 
ATOM      5  C   UNL     1      -1.468  10.916  18.461  0.00  0.00    +0.000 A 
ATOM      6  C   UNL     1      -1.693  10.079  17.384  0.00  0.00    +0.000 A 
ATOM      7  C   UNL     1      -2.997  10.004  16.872  0.00  0.00    +0.000 A 
ATOM      8  C   UNL     1      -4.059  10.703  17.477  0.00  0.00    +0.000 A 
ATOM      9  C   UNL     1      -3.822  11.569  18.544  0.00  0.00    +0.000 A 
ATOM     10  C   UNL     1      -2.508  11.734  18.945  0.00  0.00    +0.000 A 
ATOM     11  C   UNL     1      -1.922  12.978  19.576  0.00  0.00    +0.000 C 
ATOM     12  C   UNL     1      -0.563  12.929  18.846  0.00  0.00    +0.000 C 
ATOM     13  C   UNL     1       0.514  13.920  19.169  0.00  0.00    +0.000 C 
ENDBRANCH   1   4
BRANCH   1  17
ATOM     14  C   UNL     1       2.509   6.808  19.195  0.00  0.00    +0.000 A 
ATOM     15  C   UNL     1       1.985   6.982  20.483  0.00  0.00    +0.000 A 
ATOM     16  C   UNL     1       1.334   8.177  20.842  0.00  0.00    +0.000 A 
ATOM     17  C   UNL     1       1.218   9.218  19.908  0.00  0.00    +0.000 A 
ATOM     18  C   UNL     1       1.693   9.042  18.612  0.00  0.00    +0.000 A 
ATOM     19  C   UNL     1       2.338   7.847  18.264  0.00  0.00    +0.000 A 
BRANCH  14  20
ATOM     20  C   UNL     1       3.287   5.562  18.818  0.00  0.00    +0.000 C 
BRANCH  20  22
ATOM     21  C   UNL     1       3.774   3.743  17.092  0.00  0.00    +0.000 C 
ATOM     22  C   UNL     1       2.743   4.735  17.632  0.00  0.00    +0.000 C 
ATOM     23  C   UNL     1       1.488   3.964  18.068  0.00  0.00    +0.000 C 
ENDBRANCH  20  22
ENDBRANCH  14  20
ENDBRANCH   1  17
TORSDOF 4
ENDMDL
MODEL 4
REMARK VINA RESULT:      -7.5      2.640      7.669
REMARK  Name = 
REMARK  7 active torsions:
REMARK  status: ('A' for Active; 'I' for Inactive)
REMARK    1  A    between atoms: C_1  and  C_2
REMARK    2  A    between atoms: C_2  and  C_3
REMARK    3  A    between atoms: C_2  and  C_4
REMARK    4  A    between atoms: C_4  and  C_5
REMARK    5  A    between atoms: C_8  and  S_9
REMARK    6  A    between atoms: S_9  and  N_12
REMARK    7  A    between atoms: C_20  and  C_21
REMARK                            x       y       z     vdW  Elec       q    Type
REMARK                         _______ _______ _______ _____ _____    ______ ____
ROOT
ATOM      1  S   UNL     1       3.211   5.792  19.272  0.00  0.00    +0.000 S 
ATOM      2  O   UNL     1       4.602   6.114  19.545  0.00  0.00    +0.000 OA
ATOM      3  O   UNL     1       2.471   4.911  20.151  0.00  0.00    +0.000 OA
ENDROOT
BRANCH   1   4
ATOM      4  N   UNL     1       3.118   5.186  17.624  0.00  0.00    +0.000 N 
ATOM      5  C   UNL     1       4.430   5.246  16.984  0.00  0.00    +0.000 A 
ATOM      6  C   UNL     1       4.770   6.101  15.952  0.00  0.00    +0.000 A 
ATOM      7  C   UNL     1       5.862   5.752  15.142  0.00  0.00    +0.000 A 
ATOM      8  C   UNL     1       6.633   4.606  15.413  0.00  0.00    +0.000 A 
ATOM      9  C   UNL     1       6.269   3.731  16.436  0.00  0.00    +0.000 A 
ATOM     10  C   UNL     1       5.109   4.020  17.134  0.00  0.00    +0.000 A 
ATOM     11  C   UNL     1       4.195   3.012  17.793  0.00  0.00    +0.000 C 
ATOM     12  C   UNL     1       2.866   3.704  17.424  0.00  0.00    +0.000 C 
ATOM     13  C   UNL     1       1.560   3.167  17.926  0.00  0.00    +0.000 C 
ENDBRANCH   1   4
BRANCH   1  17
ATOM     14  C   UNL     1       0.980   9.841  19.298  0.00  0.00    +0.000 A 
ATOM     15  C   UNL     1       1.020   9.046  20.452  0.00  0.00    +0.000 A 
ATOM     16  C   UNL     1       1.700   7.814  20.455  0.00  0.00    +0.000 A 
ATOM     17  C   UNL     1       2.336   7.362  19.288  0.00  0.00    +0.000 A 
ATOM     18  C   UNL     1       2.343   8.161  18.150  0.00  0.00    +0.000 A 
ATOM     19  C   UNL     1       1.665   9.389  18.157  0.00  0.00    +0.000 A 
BRANCH  14  20
ATOM     20  C   UNL     1       0.182  11.129  19.251  0.00  0.00    +0.000 C 
BRANCH  20  22
ATOM     21  C   UNL     1      -2.051  12.352  19.458  0.00  0.00    +0.000 C 
ATOM     22  C   UNL     1      -1.356  10.998  19.312  0.00  0.00    +0.000 C 
ATOM     23  C   UNL     1      -1.869  10.308  18.039  0.00  0.00    +0.000 C 
ENDBRANCH  20  22
ENDBRANCH  14  20
ENDBRANCH   1  17
TORSDOF 4
ENDMDL
MODEL 5
REMARK VINA RESULT:      -7.5      4.794      7.129
REMARK  Name = 
REMARK  7 active torsions:
REMARK  status: ('A' for Active; 'I' for Inactive)
REMARK    1  A    between atoms: C_1  and  C_2
REMARK    2  A    between atoms: C_2  and  C_3
REMARK    3  A    between atoms: C_2  and  C_4
REMARK    4  A    between atoms: C_4  and  C_5
REMARK    5  A    between atoms: C_8  and  S_9
REMARK    6  A    between atoms: S_9  and  N_12
REMARK    7  A    between atoms: C_20  and  C_21
REMARK                            x       y       z     vdW  Elec       q    Type
REMARK                         _______ _______ _______ _____ _____    ______ ____
ROOT
ATOM      1  S   UNL     1       0.382  10.268  19.916  0.00  0.00    +0.000 S 
ATOM      2  O   UNL     1      -0.753   9.584  20.511  0.00  0.00    +0.000 OA
ATOM      3  O   UNL     1       1.224  11.135  20.715  0.00  0.00    +0.000 OA
ENDROOT
BRANCH   1   4
ATOM      4  N   UNL     1      -0.204  11.154  18.514  0.00  0.00    +0.000 N 
ATOM      5  C   UNL     1      -1.576  10.759  18.200  0.00  0.00    +0.000 A 
ATOM      6  C   UNL     1      -1.957  10.040  17.083  0.00  0.00    +0.000 A 
ATOM      7  C   UNL     1      -3.294  10.129  16.668  0.00  0.00    +0.000 A 
ATOM      8  C   UNL     1      -4.238  10.870  17.406  0.00  0.00    +0.000 A 
ATOM      9  C   UNL     1      -3.843  11.618  18.514  0.00  0.00    +0.000 A 
ATOM     10  C   UNL     1      -2.494  11.627  18.824  0.00  0.00    +0.000 A 
ATOM     11  C   UNL     1      -1.747  12.754  19.502  0.00  0.00    +0.000 C 
ATOM     12  C   UNL     1      -0.454  12.641  18.667  0.00  0.00    +0.000 C 
ATOM     13  C   UNL     1       0.736  13.498  18.981  0.00  0.00    +0.000 C 
ENDBRANCH   1   4
BRANCH   1  17
ATOM     14  C   UNL     1       3.134   6.937  18.272  0.00  0.00    +0.000 A 
ATOM     15  C   UNL     1       2.583   6.832  19.557  0.00  0.00    +0.000 A 
ATOM     16  C   UNL     1       1.741   7.838  20.064  0.00  0.00    +0.000 A 
ATOM     17  C   UNL     1       1.457   8.972  19.287  0.00  0.00    +0.000 A 
ATOM     18  C   UNL     1       1.960   9.068  17.993  0.00  0.00    +0.000 A 
ATOM     19  C   UNL     1       2.796   8.058  17.495  0.00  0.00    +0.000 A 
BRANCH  14  20
ATOM     20  C   UNL     1       4.110   5.904  17.742  0.00  0.00    +0.000 C 
BRANCH  20  22
ATOM     21  C   UNL     1       6.418   6.874  17.238  0.00  0.00    +0.000 C 
ATOM     22  C   UNL     1       5.097   6.376  16.651  0.00  0.00    +0.000 C 
ATOM     23  C   UNL     1       5.386   5.224  15.677  0.00  0.00    +0.000 C 
ENDBRANCH  20  22
ENDBRANCH  14  20
ENDBRANCH   1  17
TORSDOF 4
ENDMDL
MODEL 6
REMARK VINA RESULT:      -7.4      3.860      7.855
REMARK  Name = 
REMARK  7 active torsions:
REMARK  status: ('A' for Active; 'I' for Inactive)
REMARK    1  A    between atoms: C_1  and  C_2
REMARK    2  A    between atoms: C_2  and  C_3
REMARK    3  A    between atoms: C_2  and  C_4
REMARK    4  A    between atoms: C_4  and  C_5
REMARK    5  A    between atoms: C_8  and  S_9
REMARK    6  A    between atoms: S_9  and  N_12
REMARK    7  A    between atoms: C_20  and  C_21
REMARK                            x       y       z     vdW  Elec       q    Type
REMARK                         _______ _______ _______ _____ _____    ______ ____
ROOT
ATOM      1  S   UNL     1       3.145   6.561  18.202  0.00  0.00    +0.000 S 
ATOM      2  O   UNL     1       2.237   5.669  17.501  0.00  0.00    +0.000 OA
ATOM      3  O   UNL     1       4.225   7.219  17.497  0.00  0.00    +0.000 OA
ENDROOT
BRANCH   1   4
ATOM      4  N   UNL     1       3.796   5.683  19.580  0.00  0.00    +0.000 N 
ATOM      5  C   UNL     1       2.896   4.599  19.965  0.00  0.00    +0.000 A 
ATOM      6  C   UNL     1       2.151   4.563  21.129  0.00  0.00    +0.000 A 
ATOM      7  C   UNL     1       1.711   3.312  21.589  0.00  0.00    +0.000 A 
ATOM      8  C   UNL     1       1.957   2.138  20.853  0.00  0.00    +0.000 A 
ATOM      9  C   UNL     1       2.733   2.175  19.695  0.00  0.00    +0.000 A 
ATOM     10  C   UNL     1       3.273   3.397  19.334  0.00  0.00    +0.000 A 
ATOM     11  C   UNL     1       4.565   3.606  18.575  0.00  0.00    +0.000 C 
ATOM     12  C   UNL     1       5.040   4.844  19.366  0.00  0.00    +0.000 C 
ATOM     13  C   UNL     1       6.287   5.573  18.965  0.00  0.00    +0.000 C 
ENDBRANCH   1   4
BRANCH   1  17
ATOM     14  C   UNL     1       0.512   9.955  19.911  0.00  0.00    +0.000 A 
ATOM     15  C   UNL     1       0.995   8.942  20.750  0.00  0.00    +0.000 A 
ATOM     16  C   UNL     1       1.800   7.907  20.240  0.00  0.00    +0.000 A 
ATOM     17  C   UNL     1       2.116   7.874  18.873  0.00  0.00    +0.000 A 
ATOM     18  C   UNL     1       1.681   8.897  18.037  0.00  0.00    +0.000 A 
ATOM     19  C   UNL     1       0.881   9.926  18.555  0.00  0.00    +0.000 A 
BRANCH  14  20
ATOM     20  C   UNL     1      -0.425  11.030  20.426  0.00  0.00    +0.000 C 
BRANCH  20  22
ATOM     21  C   UNL     1      -0.113  13.147  21.822  0.00  0.00    +0.000 C 
ATOM     22  C   UNL     1      -0.112  11.617  21.820  0.00  0.00    +0.000 C 
ATOM     23  C   UNL     1      -1.145  11.116  22.840  0.00  0.00    +0.000 C 
ENDBRANCH  20  22
ENDBRANCH  14  20
ENDBRANCH   1  17
TORSDOF 4
ENDMDL
MODEL 7
REMARK VINA RESULT:      -7.4      2.661      7.713
REMARK  Name = 
REMARK  7 active torsions:
REMARK  status: ('A' for Active; 'I' for Inactive)
REMARK    1  A    between atoms: C_1  and  C_2
REMARK    2  A    between atoms: C_2  and  C_3
REMARK    3  A    between atoms: C_2  and  C_4
REMARK    4  A    between atoms: C_4  and  C_5
REMARK    5  A    between atoms: C_8  and  S_9
REMARK    6  A    between atoms: S_9  and  N_12
REMARK    7  A    between atoms: C_20  and  C_21
REMARK                            x       y       z     vdW  Elec       q    Type
REMARK                         _______ _______ _______ _____ _____    ______ ____
ROOT
ATOM      1  S   UNL     1       3.158   5.705  19.279  0.00  0.00    +0.000 S 
ATOM      2  O   UNL     1       4.549   5.995  19.583  0.00  0.00    +0.000 OA
ATOM      3  O   UNL     1       2.382   4.829  20.132  0.00  0.00    +0.000 OA
ENDROOT
BRANCH   1   4
ATOM      4  N   UNL     1       3.086   5.120  17.621  0.00  0.00    +0.000 N 
ATOM      5  C   UNL     1       4.406   5.194  16.998  0.00  0.00    +0.000 A 
ATOM      6  C   UNL     1       4.754   6.063  15.981  0.00  0.00    +0.000 A 
ATOM      7  C   UNL     1       5.856   5.729  15.179  0.00  0.00    +0.000 A 
ATOM      8  C   UNL     1       6.628   4.582  15.444  0.00  0.00    +0.000 A 
ATOM      9  C   UNL     1       6.256   3.693  16.452  0.00  0.00    +0.000 A 
ATOM     10  C   UNL     1       5.087   3.969  17.140  0.00  0.00    +0.000 A 
ATOM     11  C   UNL     1       4.170   2.948  17.775  0.00  0.00    +0.000 C 
ATOM     12  C   UNL     1       2.842   3.641  17.399  0.00  0.00    +0.000 C 
ATOM     13  C   UNL     1       1.532   3.092  17.879  0.00  0.00    +0.000 C 
ENDBRANCH   1   4
BRANCH   1  17
ATOM     14  C   UNL     1       0.970   9.777  19.341  0.00  0.00    +0.000 A 
ATOM     15  C   UNL     1       1.555   9.305  18.158  0.00  0.00    +0.000 A 
ATOM     16  C   UNL     1       2.220   8.065  18.128  0.00  0.00    +0.000 A 
ATOM     17  C   UNL     1       2.315   7.293  19.296  0.00  0.00    +0.000 A 
ATOM     18  C   UNL     1       1.700   7.728  20.466  0.00  0.00    +0.000 A 
ATOM     19  C   UNL     1       1.038   8.964  20.485  0.00  0.00    +0.000 A 
BRANCH  14  20
ATOM     20  C   UNL     1       0.324  11.147  19.413  0.00  0.00    +0.000 C 
BRANCH  20  22
ATOM     21  C   UNL     1      -1.744  12.604  19.766  0.00  0.00    +0.000 C 
ATOM     22  C   UNL     1      -1.213  11.185  19.559  0.00  0.00    +0.000 C 
ATOM     23  C   UNL     1      -1.870  10.583  18.307  0.00  0.00    +0.000 C 
ENDBRANCH  20  22
ENDBRANCH  14  20
ENDBRANCH   1  17
TORSDOF 4
ENDMDL
MODEL 8
REMARK VINA RESULT:      -7.3      4.944      7.476
REMARK  Name = 
REMARK  7 active torsions:
REMARK  status: ('A' for Active; 'I' for Inactive)
REMARK    1  A    between atoms: C_1  and  C_2
REMARK    2  A    between atoms: C_2  and  C_3
REMARK    3  A    between atoms: C_2  and  C_4
REMARK    4  A    between atoms: C_4  and  C_5
REMARK    5  A    between atoms: C_8  and  S_9
REMARK    6  A    between atoms: S_9  and  N_12
REMARK    7  A    between atoms: C_20  and  C_21
REMARK                            x       y       z     vdW  Elec       q    Type
REMARK                         _______ _______ _______ _____ _____    ______ ____
ROOT
ATOM      1  S   UNL     1       0.355  10.627  20.170  0.00  0.00    +0.000 S 
ATOM      2  O   UNL     1      -0.789  10.057  20.861  0.00  0.00    +0.000 OA
ATOM      3  O   UNL     1       1.313  11.448  20.882  0.00  0.00    +0.000 OA
ENDROOT
BRANCH   1   4
ATOM      4  N   UNL     1      -0.251  11.512  18.776  0.00  0.00    +0.000 N 
ATOM      5  C   UNL     1      -1.561  11.000  18.379  0.00  0.00    +0.000 A 
ATOM      6  C   UNL     1      -1.817  10.296  17.217  0.00  0.00    +0.000 A 
ATOM      7  C   UNL     1      -3.136  10.273  16.740  0.00  0.00    +0.000 A 
ATOM      8  C   UNL     1      -4.181  10.886  17.457  0.00  0.00    +0.000 A 
ATOM      9  C   UNL     1      -3.913  11.620  18.612  0.00  0.00    +0.000 A 
ATOM     10  C   UNL     1      -2.588  11.747  18.989  0.00  0.00    +0.000 A 
ATOM     11  C   UNL     1      -1.988  12.911  19.746  0.00  0.00    +0.000 C 
ATOM     12  C   UNL     1      -0.653  12.960  18.973  0.00  0.00    +0.000 C 
ATOM     13  C   UNL     1       0.430  13.913  19.379  0.00  0.00    +0.000 C 
ENDBRANCH   1   4
BRANCH   1  17
ATOM     14  C   UNL     1       2.748   7.026  18.533  0.00  0.00    +0.000 A 
ATOM     15  C   UNL     1       2.532   8.157  17.734  0.00  0.00    +0.000 A 
ATOM     16  C   UNL     1       1.809   9.259  18.224  0.00  0.00    +0.000 A 
ATOM     17  C   UNL     1       1.281   9.228  19.524  0.00  0.00    +0.000 A 
ATOM     18  C   UNL     1       1.526   8.131  20.345  0.00  0.00    +0.000 A 
ATOM     19  C   UNL     1       2.250   7.038  19.848  0.00  0.00    +0.000 A 
BRANCH  14  20
ATOM     20  C   UNL     1       3.452   5.796  17.993  0.00  0.00    +0.000 C 
BRANCH  20  22
ATOM     21  C   UNL     1       1.962   3.754  17.626  0.00  0.00    +0.000 C 
ATOM     22  C   UNL     1       2.983   4.430  18.542  0.00  0.00    +0.000 C 
ATOM     23  C   UNL     1       4.191   3.498  18.717  0.00  0.00    +0.000 C 
ENDBRANCH  20  22
ENDBRANCH  14  20
ENDBRANCH   1  17
TORSDOF 4
ENDMDL
MODEL 9
REMARK VINA RESULT:      -7.3      3.807      7.845
REMARK  Name = 
REMARK  7 active torsions:
REMARK  status: ('A' for Active; 'I' for Inactive)
REMARK    1  A    between atoms: C_1  and  C_2
REMARK    2  A    between atoms: C_2  and  C_3
REMARK    3  A    between atoms: C_2  and  C_4
REMARK    4  A    between atoms: C_4  and  C_5
REMARK    5  A    between atoms: C_8  and  S_9
REMARK    6  A    between atoms: S_9  and  N_12
REMARK    7  A    between atoms: C_20  and  C_21
REMARK                            x       y       z     vdW  Elec       q    Type
REMARK                         _______ _______ _______ _____ _____    ______ ____
ROOT
ATOM      1  S   UNL     1       3.001   6.582  18.184  0.00  0.00    +0.000 S 
ATOM      2  O   UNL     1       1.940   5.769  17.616  0.00  0.00    +0.000 OA
ATOM      3  O   UNL     1       4.063   7.101  17.347  0.00  0.00    +0.000 OA
ENDROOT
BRANCH   1   4
ATOM      4  N   UNL     1       3.702   5.684  19.525  0.00  0.00    +0.000 N 
ATOM      5  C   UNL     1       2.818   4.589  19.920  0.00  0.00    +0.000 A 
ATOM      6  C   UNL     1       2.113   4.530  21.108  0.00  0.00    +0.000 A 
ATOM      7  C   UNL     1       1.693   3.270  21.560  0.00  0.00    +0.000 A 
ATOM      8  C   UNL     1       1.919   2.109  20.797  0.00  0.00    +0.000 A 
ATOM      9  C   UNL     1       2.656   2.169  19.615  0.00  0.00    +0.000 A 
ATOM     10  C   UNL     1       3.180   3.400  19.257  0.00  0.00    +0.000 A 
ATOM     11  C   UNL     1       4.445   3.628  18.460  0.00  0.00    +0.000 C 
ATOM     12  C   UNL     1       4.941   4.854  19.255  0.00  0.00    +0.000 C 
ATOM     13  C   UNL     1       6.171   5.596  18.827  0.00  0.00    +0.000 C 
ENDBRANCH   1   4
BRANCH   1  17
ATOM     14  C   UNL     1       0.888  10.251  20.040  0.00  0.00    +0.000 A 
ATOM     15  C   UNL     1       1.290  10.268  18.698  0.00  0.00    +0.000 A 
ATOM     16  C   UNL     1       1.930   9.155  18.123  0.00  0.00    +0.000 A 
ATOM     17  C   UNL     1       2.186   8.015  18.900  0.00  0.00    +0.000 A 
ATOM     18  C   UNL     1       1.753   7.966  20.222  0.00  0.00    +0.000 A 
ATOM     19  C   UNL     1       1.113   9.080  20.785  0.00  0.00    +0.000 A 
BRANCH  14  20
ATOM     20  C   UNL     1       0.274  11.470  20.699  0.00  0.00    +0.000 C 
BRANCH  20  22
ATOM     21  C   UNL     1      -1.051  11.220  22.869  0.00  0.00    +0.000 C 
ATOM     22  C   UNL     1      -1.119  11.287  21.343  0.00  0.00    +0.000 C 
ATOM     23  C   UNL     1      -2.038  12.447  20.933  0.00  0.00    +0.000 C 
ENDBRANCH  20  22
ENDBRANCH  14  20
ENDBRANCH   1  17
TORSDOF 4
ENDMDL
