MODEL 1
REMARK VINA RESULT:      -7.9      0.000      0.000
REMARK  Name = 
REMARK  4 active torsions:
REMARK  status: ('A' for Active; 'I' for Inactive)
REMARK    1  A    between atoms: C_2  and  C_5
REMARK    2  A    between atoms: N_3  and  O_4
REMARK    3  A    between atoms: N_10  and  C_11
REMARK    4  A    between atoms: C_11  and  C_12
REMARK                            x       y       z     vdW  Elec       q    Type
REMARK                         _______ _______ _______ _____ _____    ______ ____
ROOT
ATOM      1  C   UNL     1       2.980   4.164  19.679  0.00  0.00    +0.000 A 
ATOM      2  C   UNL     1       2.786   5.368  19.015  0.00  0.00    +0.000 A 
ATOM      3  C   UNL     1       3.836   5.807  18.203  0.00  0.00    +0.000 A 
ATOM      4  C   UNL     1       4.028   6.962  17.403  0.00  0.00    +0.000 A 
ATOM      5  C   UNL     1       5.265   6.858  16.811  0.00  0.00    +0.000 A 
ATOM      6  N   UNL     1       5.809   5.648  17.173  0.00  0.00    +0.000 N 
ATOM      7  C   UNL     1       4.983   5.014  18.084  0.00  0.00    +0.000 A 
ATOM      8  C   UNL     1       5.117   3.819  18.792  0.00  0.00    +0.000 A 
ATOM      9  N   UNL     1       4.109   3.409  19.603  0.00  0.00    +0.000 NA
ENDROOT
BRANCH   1  11
ATOM     10  O   UNL     1       0.685   3.820  20.266  0.00  0.00    +0.000 OA
ATOM     11  C   UNL     1       1.870   3.639  20.532  0.00  0.00    +0.000 C 
ATOM     12  N   UNL     1       2.270   2.943  21.645  0.00  0.00    +0.000 N 
ATOM     13  H   UNL     1       3.245   2.865  21.924  0.00  0.00    +0.000 HD
BRANCH  12  14
ATOM     14  O   UNL     1       1.264   2.472  22.511  0.00  0.00    +0.000 OA
ATOM     15  H   UNL     1       0.555   2.220  21.881  0.00  0.00    +0.000 HD
ENDBRANCH  12  14
ENDBRANCH   1  11
BRANCH   6  16
ATOM     16  C   UNL     1       7.065   5.133  16.628  0.00  0.00    +0.000 C 
BRANCH  16  17
ATOM     17  C   UNL     1       6.941   4.828  15.154  0.00  0.00    +0.000 A 
ATOM     18  C   UNL     1       5.982   3.931  14.679  0.00  0.00    +0.000 A 
ATOM     19  C   UNL     1       5.948   3.626  13.321  0.00  0.00    +0.000 A 
ATOM     20  C   UNL     1       6.848   4.245  12.465  0.00  0.00    +0.000 A 
ATOM     21  C   UNL     1       7.739   5.157  13.005  0.00  0.00    +0.000 A 
ATOM     22  N   UNL     1       7.808   5.459  14.322  0.00  0.00    +0.000 NA
ENDBRANCH  16  17
ENDBRANCH   6  16
TORSDOF 4
ENDMDL
MODEL 2
REMARK VINA RESULT:      -7.3      3.252      6.730
REMARK  Name = 
REMARK  4 active torsions:
REMARK  status: ('A' for Active; 'I' for Inactive)
REMARK    1  A    between atoms: C_2  and  C_5
REMARK    2  A    between atoms: N_3  and  O_4
REMARK    3  A    between atoms: N_10  and  C_11
REMARK    4  A    between atoms: C_11  and  C_12
REMARK                            x       y       z     vdW  Elec       q    Type
REMARK                         _______ _______ _______ _____ _____    ______ ____
ROOT
ATOM      1  C   UNL     1       5.744   5.556  16.998  0.00  0.00    +0.000 A 
ATOM      2  C   UNL     1       5.023   6.691  16.653  0.00  0.00    +0.000 A 
ATOM      3  C   UNL     1       3.949   7.022  17.485  0.00  0.00    +0.000 A 
ATOM      4  C   UNL     1       2.983   8.061  17.458  0.00  0.00    +0.000 A 
ATOM      5  C   UNL     1       2.164   7.896  18.550  0.00  0.00    +0.000 A 
ATOM      6  N   UNL     1       2.634   6.828  19.278  0.00  0.00    +0.000 N 
ATOM      7  C   UNL     1       3.687   6.230  18.608  0.00  0.00    +0.000 A 
ATOM      8  C   UNL     1       4.446   5.093  18.888  0.00  0.00    +0.000 A 
ATOM      9  N   UNL     1       5.470   4.756  18.063  0.00  0.00    +0.000 NA
ENDROOT
BRANCH   1  11
ATOM     10  O   UNL     1       7.864   4.522  16.585  0.00  0.00    +0.000 OA
ATOM     11  C   UNL     1       6.922   5.183  16.156  0.00  0.00    +0.000 C 
ATOM     12  N   UNL     1       6.882   5.642  14.863  0.00  0.00    +0.000 N 
ATOM     13  H   UNL     1       6.154   6.265  14.523  0.00  0.00    +0.000 HD
BRANCH  12  14
ATOM     14  O   UNL     1       7.992   5.363  14.042  0.00  0.00    +0.000 OA
ATOM     15  H   UNL     1       8.067   4.388  14.125  0.00  0.00    +0.000 HD
ENDBRANCH  12  14
ENDBRANCH   1  11
BRANCH   6  16
ATOM     16  C   UNL     1       2.090   6.434  20.576  0.00  0.00    +0.000 C 
BRANCH  16  17
ATOM     17  C   UNL     1       1.849   4.944  20.643  0.00  0.00    +0.000 A 
ATOM     18  C   UNL     1       1.026   4.303  19.714  0.00  0.00    +0.000 A 
ATOM     19  C   UNL     1       0.775   2.941  19.853  0.00  0.00    +0.000 A 
ATOM     20  C   UNL     1       1.373   2.245  20.894  0.00  0.00    +0.000 A 
ATOM     21  C   UNL     1       2.211   2.941  21.747  0.00  0.00    +0.000 A 
ATOM     22  N   UNL     1       2.459   4.268  21.648  0.00  0.00    +0.000 NA
ENDBRANCH  16  17
ENDBRANCH   6  16
TORSDOF 4
ENDMDL
MODEL 3
REMARK VINA RESULT:      -7.3      3.303      6.700
REMARK  Name = 
REMARK  4 active torsions:
REMARK  status: ('A' for Active; 'I' for Inactive)
REMARK    1  A    between atoms: C_2  and  C_5
REMARK    2  A    between atoms: N_3  and  O_4
REMARK    3  A    between atoms: N_10  and  C_11
REMARK    4  A    between atoms: C_11  and  C_12
REMARK                            x       y       z     vdW  Elec       q    Type
REMARK                         _______ _______ _______ _____ _____    ______ ____
ROOT
ATOM      1  C   UNL     1       5.836   5.482  17.045  0.00  0.00    +0.000 A 
ATOM      2  C   UNL     1       5.117   6.616  16.694  0.00  0.00    +0.000 A 
ATOM      3  C   UNL     1       4.025   6.936  17.505  0.00  0.00    +0.000 A 
ATOM      4  C   UNL     1       3.055   7.971  17.465  0.00  0.00    +0.000 A 
ATOM      5  C   UNL     1       2.212   7.793  18.537  0.00  0.00    +0.000 A 
ATOM      6  N   UNL     1       2.671   6.721  19.266  0.00  0.00    +0.000 N 
ATOM      7  C   UNL     1       3.742   6.134  18.615  0.00  0.00    +0.000 A 
ATOM      8  C   UNL     1       4.499   4.998  18.903  0.00  0.00    +0.000 A 
ATOM      9  N   UNL     1       5.542   4.671  18.097  0.00  0.00    +0.000 NA
ENDROOT
BRANCH   1  11
ATOM     10  O   UNL     1       7.946   4.420  16.655  0.00  0.00    +0.000 OA
ATOM     11  C   UNL     1       7.034   5.121  16.226  0.00  0.00    +0.000 C 
ATOM     12  N   UNL     1       7.047   5.637  14.954  0.00  0.00    +0.000 N 
ATOM     13  H   UNL     1       6.344   6.292  14.619  0.00  0.00    +0.000 HD
BRANCH  12  14
ATOM     14  O   UNL     1       8.178   5.371  14.159  0.00  0.00    +0.000 OA
ATOM     15  H   UNL     1       7.776   5.206  13.280  0.00  0.00    +0.000 HD
ENDBRANCH  12  14
ENDBRANCH   1  11
BRANCH   6  16
ATOM     16  C   UNL     1       2.101   6.315  20.550  0.00  0.00    +0.000 C 
BRANCH  16  17
ATOM     17  C   UNL     1       1.812   4.832  20.578  0.00  0.00    +0.000 A 
ATOM     18  C   UNL     1       2.300   4.020  21.604  0.00  0.00    +0.000 A 
ATOM     19  C   UNL     1       2.068   2.648  21.554  0.00  0.00    +0.000 A 
ATOM     20  C   UNL     1       1.331   2.123  20.503  0.00  0.00    +0.000 A 
ATOM     21  C   UNL     1       0.842   2.998  19.548  0.00  0.00    +0.000 A 
ATOM     22  N   UNL     1       1.067   4.333  19.560  0.00  0.00    +0.000 NA
ENDBRANCH  16  17
ENDBRANCH   6  16
TORSDOF 4
ENDMDL
MODEL 4
REMARK VINA RESULT:      -7.2      3.866      6.995
REMARK  Name = 
REMARK  4 active torsions:
REMARK  status: ('A' for Active; 'I' for Inactive)
REMARK    1  A    between atoms: C_2  and  C_5
REMARK    2  A    between atoms: N_3  and  O_4
REMARK    3  A    between atoms: N_10  and  C_11
REMARK    4  A    between atoms: C_11  and  C_12
REMARK                            x       y       z     vdW  Elec       q    Type
REMARK                         _______ _______ _______ _____ _____    ______ ____
ROOT
ATOM      1  C   UNL     1       6.593   5.252  15.065  0.00  0.00    +0.000 A 
ATOM      2  C   UNL     1       7.167   4.727  16.215  0.00  0.00    +0.000 A 
ATOM      3  C   UNL     1       6.485   4.960  17.413  0.00  0.00    +0.000 A 
ATOM      4  C   UNL     1       6.751   4.619  18.764  0.00  0.00    +0.000 A 
ATOM      5  C   UNL     1       5.717   5.108  19.527  0.00  0.00    +0.000 A 
ATOM      6  N   UNL     1       4.797   5.681  18.681  0.00  0.00    +0.000 N 
ATOM      7  C   UNL     1       5.278   5.667  17.384  0.00  0.00    +0.000 A 
ATOM      8  C   UNL     1       4.765   6.180  16.193  0.00  0.00    +0.000 A 
ATOM      9  N   UNL     1       5.443   5.978  15.034  0.00  0.00    +0.000 NA
ENDROOT
BRANCH   1  11
ATOM     10  O   UNL     1       8.271   5.609  13.395  0.00  0.00    +0.000 OA
ATOM     11  C   UNL     1       7.270   4.998  13.756  0.00  0.00    +0.000 C 
ATOM     12  N   UNL     1       6.683   4.034  12.975  0.00  0.00    +0.000 N 
ATOM     13  H   UNL     1       5.803   3.587  13.222  0.00  0.00    +0.000 HD
BRANCH  12  14
ATOM     14  O   UNL     1       7.249   3.793  11.709  0.00  0.00    +0.000 OA
ATOM     15  H   UNL     1       8.195   4.002  11.865  0.00  0.00    +0.000 HD
ENDBRANCH  12  14
ENDBRANCH   1  11
BRANCH   6  16
ATOM     16  C   UNL     1       3.501   6.193  19.125  0.00  0.00    +0.000 C 
BRANCH  16  17
ATOM     17  C   UNL     1       2.512   5.071  19.341  0.00  0.00    +0.000 A 
ATOM     18  C   UNL     1       2.033   4.766  20.617  0.00  0.00    +0.000 A 
ATOM     19  C   UNL     1       1.177   3.681  20.781  0.00  0.00    +0.000 A 
ATOM     20  C   UNL     1       0.794   2.946  19.668  0.00  0.00    +0.000 A 
ATOM     21  C   UNL     1       1.275   3.337  18.431  0.00  0.00    +0.000 A 
ATOM     22  N   UNL     1       2.123   4.375  18.243  0.00  0.00    +0.000 NA
ENDBRANCH  16  17
ENDBRANCH   6  16
TORSDOF 4
ENDMDL
MODEL 5
REMARK VINA RESULT:      -7.2      3.787      6.656
REMARK  Name = 
REMARK  4 active torsions:
REMARK  status: ('A' for Active; 'I' for Inactive)
REMARK    1  A    between atoms: C_2  and  C_5
REMARK    2  A    between atoms: N_3  and  O_4
REMARK    3  A    between atoms: N_10  and  C_11
REMARK    4  A    between atoms: C_11  and  C_12
REMARK                            x       y       z     vdW  Elec       q    Type
REMARK                         _______ _______ _______ _____ _____    ______ ____
ROOT
ATOM      1  C   UNL     1       6.451   4.672  14.925  0.00  0.00    +0.000 A 
ATOM      2  C   UNL     1       7.412   4.692  15.926  0.00  0.00    +0.000 A 
ATOM      3  C   UNL     1       6.965   5.007  17.212  0.00  0.00    +0.000 A 
ATOM      4  C   UNL     1       7.622   5.150  18.461  0.00  0.00    +0.000 A 
ATOM      5  C   UNL     1       6.668   5.465  19.400  0.00  0.00    +0.000 A 
ATOM      6  N   UNL     1       5.441   5.458  18.778  0.00  0.00    +0.000 N 
ATOM      7  C   UNL     1       5.603   5.249  17.420  0.00  0.00    +0.000 A 
ATOM      8  C   UNL     1       4.691   5.226  16.364  0.00  0.00    +0.000 A 
ATOM      9  N   UNL     1       5.131   4.949  15.110  0.00  0.00    +0.000 NA
ENDROOT
BRANCH   1  11
ATOM     10  O   UNL     1       7.584   5.033  12.847  0.00  0.00    +0.000 OA
ATOM     11  C   UNL     1       6.877   4.305  13.540  0.00  0.00    +0.000 C 
ATOM     12  N   UNL     1       6.413   3.095  13.088  0.00  0.00    +0.000 N 
ATOM     13  H   UNL     1       5.754   2.528  13.615  0.00  0.00    +0.000 HD
BRANCH  12  14
ATOM     14  O   UNL     1       6.742   2.727  11.769  0.00  0.00    +0.000 OA
ATOM     15  H   UNL     1       7.416   3.399  11.532  0.00  0.00    +0.000 HD
ENDBRANCH  12  14
ENDBRANCH   1  11
BRANCH   6  16
ATOM     16  C   UNL     1       4.175   5.622  19.490  0.00  0.00    +0.000 C 
BRANCH  16  17
ATOM     17  C   UNL     1       3.272   4.428  19.289  0.00  0.00    +0.000 A 
ATOM     18  C   UNL     1       1.984   4.574  18.767  0.00  0.00    +0.000 A 
ATOM     19  C   UNL     1       1.161   3.457  18.664  0.00  0.00    +0.000 A 
ATOM     20  C   UNL     1       1.649   2.217  19.052  0.00  0.00    +0.000 A 
ATOM     21  C   UNL     1       2.950   2.145  19.518  0.00  0.00    +0.000 A 
ATOM     22  N   UNL     1       3.767   3.216  19.647  0.00  0.00    +0.000 NA
ENDBRANCH  16  17
ENDBRANCH   6  16
TORSDOF 4
ENDMDL
MODEL 6
REMARK VINA RESULT:      -7.2      0.895      1.007
REMARK  Name = 
REMARK  4 active torsions:
REMARK  status: ('A' for Active; 'I' for Inactive)
REMARK    1  A    between atoms: C_2  and  C_5
REMARK    2  A    between atoms: N_3  and  O_4
REMARK    3  A    between atoms: N_10  and  C_11
REMARK    4  A    between atoms: C_11  and  C_12
REMARK                            x       y       z     vdW  Elec       q    Type
REMARK                         _______ _______ _______ _____ _____    ______ ____
ROOT
ATOM      1  C   UNL     1       3.041   4.247  19.222  0.00  0.00    +0.000 A 
ATOM      2  C   UNL     1       2.931   5.501  18.638  0.00  0.00    +0.000 A 
ATOM      3  C   UNL     1       4.022   5.930  17.875  0.00  0.00    +0.000 A 
ATOM      4  C   UNL     1       4.298   7.122  17.158  0.00  0.00    +0.000 A 
ATOM      5  C   UNL     1       5.538   6.984  16.581  0.00  0.00    +0.000 A 
ATOM      6  N   UNL     1       6.003   5.722  16.870  0.00  0.00    +0.000 N 
ATOM      7  C   UNL     1       5.122   5.080  17.722  0.00  0.00    +0.000 A 
ATOM      8  C   UNL     1       5.172   3.835  18.350  0.00  0.00    +0.000 A 
ATOM      9  N   UNL     1       4.125   3.432  19.115  0.00  0.00    +0.000 NA
ENDROOT
BRANCH   1  11
ATOM     10  O   UNL     1       1.779   3.910  21.229  0.00  0.00    +0.000 OA
ATOM     11  C   UNL     1       1.884   3.733  20.018  0.00  0.00    +0.000 C 
ATOM     12  N   UNL     1       0.945   3.037  19.299  0.00  0.00    +0.000 N 
ATOM     13  H   UNL     1       1.066   2.806  18.316  0.00  0.00    +0.000 HD
BRANCH  12  14
ATOM     14  O   UNL     1      -0.138   2.486  20.011  0.00  0.00    +0.000 OA
ATOM     15  H   UNL     1      -0.668   2.078  19.293  0.00  0.00    +0.000 HD
ENDBRANCH  12  14
ENDBRANCH   1  11
BRANCH   6  16
ATOM     16  C   UNL     1       7.238   5.171  16.314  0.00  0.00    +0.000 C 
BRANCH  16  17
ATOM     17  C   UNL     1       7.084   4.849  14.846  0.00  0.00    +0.000 A 
ATOM     18  C   UNL     1       6.157   3.902  14.406  0.00  0.00    +0.000 A 
ATOM     19  C   UNL     1       6.097   3.587  13.052  0.00  0.00    +0.000 A 
ATOM     20  C   UNL     1       6.938   4.243  12.165  0.00  0.00    +0.000 A 
ATOM     21  C   UNL     1       7.799   5.202  12.671  0.00  0.00    +0.000 A 
ATOM     22  N   UNL     1       7.893   5.516  13.984  0.00  0.00    +0.000 NA
ENDBRANCH  16  17
ENDBRANCH   6  16
TORSDOF 4
ENDMDL
MODEL 7
REMARK VINA RESULT:      -7.1      3.850      6.938
REMARK  Name = 
REMARK  4 active torsions:
REMARK  status: ('A' for Active; 'I' for Inactive)
REMARK    1  A    between atoms: C_2  and  C_5
REMARK    2  A    between atoms: N_3  and  O_4
REMARK    3  A    between atoms: N_10  and  C_11
REMARK    4  A    between atoms: C_11  and  C_12
REMARK                            x       y       z     vdW  Elec       q    Type
REMARK                         _______ _______ _______ _____ _____    ______ ____
ROOT
ATOM      1  C   UNL     1       5.840   4.830  15.789  0.00  0.00    +0.000 A 
ATOM      2  C   UNL     1       4.714   4.021  15.838  0.00  0.00    +0.000 A 
ATOM      3  C   UNL     1       3.880   4.182  16.948  0.00  0.00    +0.000 A 
ATOM      4  C   UNL     1       2.682   3.545  17.365  0.00  0.00    +0.000 A 
ATOM      5  C   UNL     1       2.293   4.124  18.549  0.00  0.00    +0.000 A 
ATOM      6  N   UNL     1       3.178   5.136  18.840  0.00  0.00    +0.000 N 
ATOM      7  C   UNL     1       4.202   5.146  17.909  0.00  0.00    +0.000 A 
ATOM      8  C   UNL     1       5.360   5.917  17.804  0.00  0.00    +0.000 A 
ATOM      9  N   UNL     1       6.184   5.740  16.740  0.00  0.00    +0.000 NA
ENDROOT
BRANCH   1  11
ATOM     10  O   UNL     1       6.597   3.859  13.736  0.00  0.00    +0.000 OA
ATOM     11  C   UNL     1       6.742   4.717  14.602  0.00  0.00    +0.000 C 
ATOM     12  N   UNL     1       7.758   5.640  14.552  0.00  0.00    +0.000 N 
ATOM     13  H   UNL     1       7.943   6.295  15.308  0.00  0.00    +0.000 HD
BRANCH  12  14
ATOM     14  O   UNL     1       8.668   5.543  13.482  0.00  0.00    +0.000 OA
ATOM     15  H   UNL     1       8.941   4.602  13.530  0.00  0.00    +0.000 HD
ENDBRANCH  12  14
ENDBRANCH   1  11
BRANCH   6  16
ATOM     16  C   UNL     1       3.009   6.060  19.960  0.00  0.00    +0.000 C 
BRANCH  16  17
ATOM     17  C   UNL     1       2.294   7.320  19.530  0.00  0.00    +0.000 A 
ATOM     18  C   UNL     1       2.336   7.759  18.205  0.00  0.00    +0.000 A 
ATOM     19  C   UNL     1       1.722   8.961  17.867  0.00  0.00    +0.000 A 
ATOM     20  C   UNL     1       1.055   9.682  18.848  0.00  0.00    +0.000 A 
ATOM     21  C   UNL     1       1.020   9.159  20.129  0.00  0.00    +0.000 A 
ATOM     22  N   UNL     1       1.623   8.004  20.491  0.00  0.00    +0.000 NA
ENDBRANCH  16  17
ENDBRANCH   6  16
TORSDOF 4
ENDMDL
MODEL 8
REMARK VINA RESULT:      -7.1      3.127      4.455
REMARK  Name = 
REMARK  4 active torsions:
REMARK  status: ('A' for Active; 'I' for Inactive)
REMARK    1  A    between atoms: C_2  and  C_5
REMARK    2  A    between atoms: N_3  and  O_4
REMARK    3  A    between atoms: N_10  and  C_11
REMARK    4  A    between atoms: C_11  and  C_12
REMARK                            x       y       z     vdW  Elec       q    Type
REMARK                         _______ _______ _______ _____ _____    ______ ____
ROOT
ATOM      1  C   UNL     1       1.544   7.326  20.494  0.00  0.00    +0.000 A 
ATOM      2  C   UNL     1       1.593   5.960  20.738  0.00  0.00    +0.000 A 
ATOM      3  C   UNL     1       2.335   5.193  19.835  0.00  0.00    +0.000 A 
ATOM      4  C   UNL     1       2.601   3.804  19.728  0.00  0.00    +0.000 A 
ATOM      5  C   UNL     1       3.410   3.617  18.633  0.00  0.00    +0.000 A 
ATOM      6  N   UNL     1       3.700   4.853  18.102  0.00  0.00    +0.000 N 
ATOM      7  C   UNL     1       2.995   5.832  18.779  0.00  0.00    +0.000 A 
ATOM      8  C   UNL     1       2.890   7.209  18.584  0.00  0.00    +0.000 A 
ATOM      9  N   UNL     1       2.145   7.949  19.445  0.00  0.00    +0.000 NA
ENDROOT
BRANCH   1  11
ATOM     10  O   UNL     1      -0.436   8.249  21.473  0.00  0.00    +0.000 OA
ATOM     11  C   UNL     1       0.790   8.190  21.454  0.00  0.00    +0.000 C 
ATOM     12  N   UNL     1       1.570   8.924  22.312  0.00  0.00    +0.000 N 
ATOM     13  H   UNL     1       2.584   8.953  22.245  0.00  0.00    +0.000 HD
BRANCH  12  14
ATOM     14  O   UNL     1       0.911   9.795  23.201  0.00  0.00    +0.000 OA
ATOM     15  H   UNL     1      -0.007   9.446  23.186  0.00  0.00    +0.000 HD
ENDBRANCH  12  14
ENDBRANCH   1  11
BRANCH   6  16
ATOM     16  C   UNL     1       4.641   5.058  17.002  0.00  0.00    +0.000 C 
BRANCH  16  17
ATOM     17  C   UNL     1       5.886   5.775  17.471  0.00  0.00    +0.000 A 
ATOM     18  C   UNL     1       6.682   5.249  18.492  0.00  0.00    +0.000 A 
ATOM     19  C   UNL     1       7.781   5.975  18.940  0.00  0.00    +0.000 A 
ATOM     20  C   UNL     1       8.080   7.191  18.342  0.00  0.00    +0.000 A 
ATOM     21  C   UNL     1       7.270   7.625  17.307  0.00  0.00    +0.000 A 
ATOM     22  N   UNL     1       6.184   6.950  16.862  0.00  0.00    +0.000 NA
ENDBRANCH  16  17
ENDBRANCH   6  16
TORSDOF 4
ENDMDL
MODEL 9
REMARK VINA RESULT:      -7.1      3.817      6.993
REMARK  Name = 
REMARK  4 active torsions:
REMARK  status: ('A' for Active; 'I' for Inactive)
REMARK    1  A    between atoms: C_2  and  C_5
REMARK    2  A    between atoms: N_3  and  O_4
REMARK    3  A    between atoms: N_10  and  C_11
REMARK    4  A    between atoms: C_11  and  C_12
REMARK                            x       y       z     vdW  Elec       q    Type
REMARK                         _______ _______ _______ _____ _____    ______ ____
ROOT
ATOM      1  C   UNL     1       5.787   4.861  17.199  0.00  0.00    +0.000 A 
ATOM      2  C   UNL     1       4.605   4.294  16.744  0.00  0.00    +0.000 A 
ATOM      3  C   UNL     1       3.505   4.373  17.603  0.00  0.00    +0.000 A 
ATOM      4  C   UNL     1       2.168   3.908  17.516  0.00  0.00    +0.000 A 
ATOM      5  C   UNL     1       1.519   4.286  18.668  0.00  0.00    +0.000 A 
ATOM      6  N   UNL     1       2.397   5.021  19.429  0.00  0.00    +0.000 N 
ATOM      7  C   UNL     1       3.645   5.030  18.831  0.00  0.00    +0.000 A 
ATOM      8  C   UNL     1       4.869   5.566  19.232  0.00  0.00    +0.000 A 
ATOM      9  N   UNL     1       5.944   5.462  18.410  0.00  0.00    +0.000 NA
ENDROOT
BRANCH   1  11
ATOM     10  O   UNL     1       8.056   4.345  16.638  0.00  0.00    +0.000 OA
ATOM     11  C   UNL     1       6.980   4.829  16.299  0.00  0.00    +0.000 C 
ATOM     12  N   UNL     1       6.791   5.392  15.061  0.00  0.00    +0.000 N 
ATOM     13  H   UNL     1       5.935   5.877  14.803  0.00  0.00    +0.000 HD
BRANCH  12  14
ATOM     14  O   UNL     1       7.899   5.436  14.194  0.00  0.00    +0.000 OA
ATOM     15  H   UNL     1       7.990   6.399  14.026  0.00  0.00    +0.000 HD
ENDBRANCH  12  14
ENDBRANCH   1  11
BRANCH   6  16
ATOM     16  C   UNL     1       2.019   5.701  20.667  0.00  0.00    +0.000 C 
BRANCH  16  17
ATOM     17  C   UNL     1       1.636   7.139  20.410  0.00  0.00    +0.000 A 
ATOM     18  C   UNL     1       0.884   7.864  21.337  0.00  0.00    +0.000 A 
ATOM     19  C   UNL     1       0.494   9.164  21.030  0.00  0.00    +0.000 A 
ATOM     20  C   UNL     1       0.889   9.723  19.822  0.00  0.00    +0.000 A 
ATOM     21  C   UNL     1       1.672   8.957  18.975  0.00  0.00    +0.000 A 
ATOM     22  N   UNL     1       2.050   7.685  19.239  0.00  0.00    +0.000 NA
ENDBRANCH  16  17
ENDBRANCH   6  16
TORSDOF 4
ENDMDL
