MODEL 1
REMARK VINA RESULT:      -7.4      0.000      0.000
REMARK  Name = 
REMARK  10 active torsions:
REMARK  status: ('A' for Active; 'I' for Inactive)
REMARK    1  A    between atoms: C_1  and  C_2
REMARK    2  A    between atoms: C_2  and  C_3
REMARK    3  A    between atoms: C_3  and  N_4
REMARK    4  A    between atoms: C_3  and  C_26
REMARK    5  A    between atoms: N_4  and  C_5
REMARK    6  A    between atoms: C_13  and  C_14
REMARK    7  A    between atoms: C_17  and  C_18
REMARK    8  A    between atoms: C_18  and  C_19
REMARK    9  A    between atoms: C_18  and  C_20
REMARK   10  A    between atoms: C_18  and  O_21
REMARK                            x       y       z     vdW  Elec       q    Type
REMARK                         _______ _______ _______ _____ _____    ______ ____
ROOT
ATOM      1  C   UNL     1       0.182  12.577  20.803  0.00  0.00    +0.000 A 
ATOM      2  C   UNL     1      -0.787  13.366  21.457  0.00  0.00    +0.000 A 
ATOM      3 CL   UNL     1      -1.560  14.765  20.789  0.00  0.00    +0.000 Cl
ATOM      4  C   UNL     1      -1.326  12.917  22.650  0.00  0.00    +0.000 A 
ATOM      5  N   UNL     1      -1.124  11.695  23.167  0.00  0.00    +0.000 NA
ATOM      6  C   UNL     1      -0.400  10.844  22.437  0.00  0.00    +0.000 A 
ATOM      7  C   UNL     1      -0.414   9.527  22.865  0.00  0.00    +0.000 A 
ATOM      8  C   UNL     1       0.218   8.514  22.147  0.00  0.00    +0.000 A 
ATOM      9  C   UNL     1       0.958   8.804  20.997  0.00  0.00    +0.000 A 
ATOM     10  C   UNL     1       1.008  10.160  20.596  0.00  0.00    +0.000 A 
ATOM     11  C   UNL     1       0.297  11.206  21.259  0.00  0.00    +0.000 A 
ENDROOT
BRANCH   9  12
ATOM     12  C   UNL     1       1.618   7.730  20.225  0.00  0.00    +0.000 A 
ATOM     13  C   UNL     1       1.749   6.430  20.680  0.00  0.00    +0.000 A 
ATOM     14  N   UNL     1       2.340   5.420  20.001  0.00  0.00    +0.000 NA
ATOM     15  C   UNL     1       2.864   5.734  18.799  0.00  0.00    +0.000 A 
ATOM     16  N   UNL     1       2.820   6.964  18.256  0.00  0.00    +0.000 NA
ATOM     17  C   UNL     1       2.197   7.922  18.980  0.00  0.00    +0.000 A 
BRANCH  15  18
ATOM     18  C   UNL     1       3.540   4.604  18.022  0.00  0.00    +0.000 C 
ATOM     19  C   UNL     1       2.489   3.665  17.433  0.00  0.00    +0.000 C 
ATOM     20  C   UNL     1       4.449   5.177  16.936  0.00  0.00    +0.000 C 
BRANCH  18  21
ATOM     21  O   UNL     1       4.366   3.805  18.895  0.00  0.00    +0.000 OA
ATOM     22  H   UNL     1       4.884   4.452  19.418  0.00  0.00    +0.000 HD
ENDBRANCH  18  21
ENDBRANCH  15  18
ENDBRANCH   9  12
BRANCH   1  23
ATOM     23  N   UNL     1       0.891  12.990  19.638  0.00  0.00    +0.000 N 
ATOM     24  H   UNL     1       0.949  12.234  18.961  0.00  0.00    +0.000 HD
BRANCH  23  25
ATOM     25  C   UNL     1       2.240  13.598  19.770  0.00  0.00    +0.000 C 
BRANCH  25  26
ATOM     26  C   UNL     1       2.346  14.833  18.890  0.00  0.00    +0.000 A 
ATOM     27  C   UNL     1       1.411  15.877  18.945  0.00  0.00    +0.000 A 
ATOM     28  C   UNL     1       1.552  17.002  18.127  0.00  0.00    +0.000 A 
ATOM     29  C   UNL     1       2.626  17.096  17.242  0.00  0.00    +0.000 A 
ATOM     30  C   UNL     1       3.559  16.066  17.176  0.00  0.00    +0.000 A 
ATOM     31  C   UNL     1       3.416  14.950  17.993  0.00  0.00    +0.000 A 
ATOM     32  F   UNL     1       4.339  13.980  17.913  0.00  0.00    +0.000 F 
ENDBRANCH  25  26
BRANCH  25  34
ATOM     33  C   UNL     1       4.009  14.246  21.526  0.00  0.00    +0.000 C 
ATOM     34  C   UNL     1       2.544  13.923  21.249  0.00  0.00    +0.000 C 
ENDBRANCH  25  34
ENDBRANCH  23  25
ENDBRANCH   1  23
TORSDOF 7
ENDMDL
MODEL 2
REMARK VINA RESULT:      -7.3      3.930      5.579
REMARK  Name = 
REMARK  10 active torsions:
REMARK  status: ('A' for Active; 'I' for Inactive)
REMARK    1  A    between atoms: C_1  and  C_2
REMARK    2  A    between atoms: C_2  and  C_3
REMARK    3  A    between atoms: C_3  and  N_4
REMARK    4  A    between atoms: C_3  and  C_26
REMARK    5  A    between atoms: N_4  and  C_5
REMARK    6  A    between atoms: C_13  and  C_14
REMARK    7  A    between atoms: C_17  and  C_18
REMARK    8  A    between atoms: C_18  and  C_19
REMARK    9  A    between atoms: C_18  and  C_20
REMARK   10  A    between atoms: C_18  and  O_21
REMARK                            x       y       z     vdW  Elec       q    Type
REMARK                         _______ _______ _______ _____ _____    ______ ____
ROOT
ATOM      1  C   UNL     1      -2.864  12.988  20.383  0.00  0.00    +0.000 A 
ATOM      2  C   UNL     1      -3.179  14.269  20.882  0.00  0.00    +0.000 A 
ATOM      3 CL   UNL     1      -4.663  14.706  21.661  0.00  0.00    +0.000 Cl
ATOM      4  C   UNL     1      -2.185  15.230  20.943  0.00  0.00    +0.000 A 
ATOM      5  N   UNL     1      -0.882  14.998  20.718  0.00  0.00    +0.000 NA
ATOM      6  C   UNL     1      -0.529  13.733  20.478  0.00  0.00    +0.000 A 
ATOM      7  C   UNL     1       0.832  13.478  20.497  0.00  0.00    +0.000 A 
ATOM      8  C   UNL     1       1.340  12.189  20.358  0.00  0.00    +0.000 A 
ATOM      9  C   UNL     1       0.491  11.105  20.120  0.00  0.00    +0.000 A 
ATOM     10  C   UNL     1      -0.895  11.382  20.052  0.00  0.00    +0.000 A 
ATOM     11  C   UNL     1      -1.451  12.678  20.281  0.00  0.00    +0.000 A 
ENDROOT
BRANCH   9  12
ATOM     12  C   UNL     1       1.026   9.733  19.987  0.00  0.00    +0.000 A 
ATOM     13  C   UNL     1       1.029   8.809  21.017  0.00  0.00    +0.000 A 
ATOM     14  N   UNL     1       1.503   7.545  20.932  0.00  0.00    +0.000 NA
ATOM     15  C   UNL     1       2.039   7.186  19.748  0.00  0.00    +0.000 A 
ATOM     16  N   UNL     1       2.115   7.998  18.678  0.00  0.00    +0.000 NA
ATOM     17  C   UNL     1       1.604   9.241  18.827  0.00  0.00    +0.000 A 
BRANCH  15  18
ATOM     18  C   UNL     1       2.584   5.761  19.638  0.00  0.00    +0.000 C 
ATOM     19  C   UNL     1       1.994   4.883  20.739  0.00  0.00    +0.000 C 
ATOM     20  C   UNL     1       2.295   5.189  18.251  0.00  0.00    +0.000 C 
BRANCH  18  21
ATOM     21  O   UNL     1       4.016   5.746  19.819  0.00  0.00    +0.000 OA
ATOM     22  H   UNL     1       4.151   5.534  20.766  0.00  0.00    +0.000 HD
ENDBRANCH  18  21
ENDBRANCH  15  18
ENDBRANCH   9  12
BRANCH   1  23
ATOM     23  N   UNL     1      -3.825  11.961  20.161  0.00  0.00    +0.000 N 
ATOM     24  H   UNL     1      -3.390  11.044  20.188  0.00  0.00    +0.000 HD
BRANCH  23  25
ATOM     25  C   UNL     1      -4.710  12.019  18.968  0.00  0.00    +0.000 C 
BRANCH  25  26
ATOM     26  C   UNL     1      -4.084  11.254  17.813  0.00  0.00    +0.000 A 
ATOM     27  C   UNL     1      -3.189  10.193  18.014  0.00  0.00    +0.000 A 
ATOM     28  C   UNL     1      -2.645   9.507  16.924  0.00  0.00    +0.000 A 
ATOM     29  C   UNL     1      -2.985   9.874  15.622  0.00  0.00    +0.000 A 
ATOM     30  C   UNL     1      -3.871  10.926  15.410  0.00  0.00    +0.000 A 
ATOM     31  C   UNL     1      -4.411  11.604  16.498  0.00  0.00    +0.000 A 
ATOM     32  F   UNL     1      -5.270  12.606  16.259  0.00  0.00    +0.000 F 
ENDBRANCH  25  26
BRANCH  25  34
ATOM     33  C   UNL     1      -7.178  12.569  19.457  0.00  0.00    +0.000 C 
ATOM     34  C   UNL     1      -6.116  11.483  19.313  0.00  0.00    +0.000 C 
ENDBRANCH  25  34
ENDBRANCH  23  25
ENDBRANCH   1  23
TORSDOF 7
ENDMDL
MODEL 3
REMARK VINA RESULT:      -7.3      0.509      1.126
REMARK  Name = 
REMARK  10 active torsions:
REMARK  status: ('A' for Active; 'I' for Inactive)
REMARK    1  A    between atoms: C_1  and  C_2
REMARK    2  A    between atoms: C_2  and  C_3
REMARK    3  A    between atoms: C_3  and  N_4
REMARK    4  A    between atoms: C_3  and  C_26
REMARK    5  A    between atoms: N_4  and  C_5
REMARK    6  A    between atoms: C_13  and  C_14
REMARK    7  A    between atoms: C_17  and  C_18
REMARK    8  A    between atoms: C_18  and  C_19
REMARK    9  A    between atoms: C_18  and  C_20
REMARK   10  A    between atoms: C_18  and  O_21
REMARK                            x       y       z     vdW  Elec       q    Type
REMARK                         _______ _______ _______ _____ _____    ______ ____
ROOT
ATOM      1  C   UNL     1       0.169  12.625  20.810  0.00  0.00    +0.000 A 
ATOM      2  C   UNL     1      -0.806  13.413  21.458  0.00  0.00    +0.000 A 
ATOM      3 CL   UNL     1      -1.585  14.803  20.779  0.00  0.00    +0.000 Cl
ATOM      4  C   UNL     1      -1.346  12.968  22.651  0.00  0.00    +0.000 A 
ATOM      5  N   UNL     1      -1.139  11.750  23.176  0.00  0.00    +0.000 NA
ATOM      6  C   UNL     1      -0.407  10.898  22.453  0.00  0.00    +0.000 A 
ATOM      7  C   UNL     1      -0.415   9.584  22.888  0.00  0.00    +0.000 A 
ATOM      8  C   UNL     1       0.224   8.571  22.178  0.00  0.00    +0.000 A 
ATOM      9  C   UNL     1       0.966   8.858  21.029  0.00  0.00    +0.000 A 
ATOM     10  C   UNL     1       1.010  10.212  20.619  0.00  0.00    +0.000 A 
ATOM     11  C   UNL     1       0.291  11.258  21.275  0.00  0.00    +0.000 A 
ENDROOT
BRANCH   9  12
ATOM     12  C   UNL     1       1.634   7.784  20.264  0.00  0.00    +0.000 A 
ATOM     13  C   UNL     1       2.196   7.970  19.013  0.00  0.00    +0.000 A 
ATOM     14  N   UNL     1       2.819   7.015  18.286  0.00  0.00    +0.000 NA
ATOM     15  C   UNL     1       2.860   5.782  18.830  0.00  0.00    +0.000 A 
ATOM     16  N   UNL     1       2.334   5.468  20.027  0.00  0.00    +0.000 NA
ATOM     17  C   UNL     1       1.742   6.475  20.709  0.00  0.00    +0.000 A 
BRANCH  15  18
ATOM     18  C   UNL     1       3.558   4.690  18.018  0.00  0.00    +0.000 C 
ATOM     19  C   UNL     1       4.456   5.315  16.952  0.00  0.00    +0.000 C 
ATOM     20  C   UNL     1       4.348   3.765  18.942  0.00  0.00    +0.000 C 
BRANCH  18  21
ATOM     21  O   UNL     1       2.592   3.875  17.319  0.00  0.00    +0.000 OA
ATOM     22  H   UNL     1       3.095   3.451  16.593  0.00  0.00    +0.000 HD
ENDBRANCH  18  21
ENDBRANCH  15  18
ENDBRANCH   9  12
BRANCH   1  23
ATOM     23  N   UNL     1       0.880  13.035  19.646  0.00  0.00    +0.000 N 
ATOM     24  H   UNL     1       0.947  12.276  18.975  0.00  0.00    +0.000 HD
BRANCH  23  25
ATOM     25  C   UNL     1       2.223  13.657  19.778  0.00  0.00    +0.000 C 
BRANCH  25  26
ATOM     26  C   UNL     1       2.323  14.883  18.885  0.00  0.00    +0.000 A 
ATOM     27  C   UNL     1       1.407  15.943  18.959  0.00  0.00    +0.000 A 
ATOM     28  C   UNL     1       1.543  17.058  18.127  0.00  0.00    +0.000 A 
ATOM     29  C   UNL     1       2.591  17.127  17.210  0.00  0.00    +0.000 A 
ATOM     30  C   UNL     1       3.506  16.082  17.126  0.00  0.00    +0.000 A 
ATOM     31  C   UNL     1       3.368  14.975  17.957  0.00  0.00    +0.000 A 
ATOM     32  F   UNL     1       4.272  13.990  17.859  0.00  0.00    +0.000 F 
ENDBRANCH  25  26
BRANCH  25  34
ATOM     33  C   UNL     1       3.987  14.271  21.551  0.00  0.00    +0.000 C 
ATOM     34  C   UNL     1       2.516  14.001  21.255  0.00  0.00    +0.000 C 
ENDBRANCH  25  34
ENDBRANCH  23  25
ENDBRANCH   1  23
TORSDOF 7
ENDMDL
MODEL 4
REMARK VINA RESULT:      -7.2      4.401      9.455
REMARK  Name = 
REMARK  10 active torsions:
REMARK  status: ('A' for Active; 'I' for Inactive)
REMARK    1  A    between atoms: C_1  and  C_2
REMARK    2  A    between atoms: C_2  and  C_3
REMARK    3  A    between atoms: C_3  and  N_4
REMARK    4  A    between atoms: C_3  and  C_26
REMARK    5  A    between atoms: N_4  and  C_5
REMARK    6  A    between atoms: C_13  and  C_14
REMARK    7  A    between atoms: C_17  and  C_18
REMARK    8  A    between atoms: C_18  and  C_19
REMARK    9  A    between atoms: C_18  and  C_20
REMARK   10  A    between atoms: C_18  and  O_21
REMARK                            x       y       z     vdW  Elec       q    Type
REMARK                         _______ _______ _______ _____ _____    ______ ____
ROOT
ATOM      1  C   UNL     1       3.212   3.704  17.456  0.00  0.00    +0.000 A 
ATOM      2  C   UNL     1       3.531   2.419  17.944  0.00  0.00    +0.000 A 
ATOM      3 CL   UNL     1       4.780   1.392  17.322  0.00  0.00    +0.000 Cl
ATOM      4  C   UNL     1       2.956   1.986  19.125  0.00  0.00    +0.000 A 
ATOM      5  N   UNL     1       2.231   2.758  19.950  0.00  0.00    +0.000 NA
ATOM      6  C   UNL     1       2.119   4.048  19.624  0.00  0.00    +0.000 A 
ATOM      7  C   UNL     1       1.587   4.869  20.605  0.00  0.00    +0.000 A 
ATOM      8  C   UNL     1       1.499   6.249  20.440  0.00  0.00    +0.000 A 
ATOM      9  C   UNL     1       1.881   6.853  19.239  0.00  0.00    +0.000 A 
ATOM     10  C   UNL     1       2.377   6.001  18.225  0.00  0.00    +0.000 A 
ATOM     11  C   UNL     1       2.563   4.596  18.397  0.00  0.00    +0.000 A 
ENDROOT
BRANCH   9  12
ATOM     12  C   UNL     1       1.803   8.320  19.066  0.00  0.00    +0.000 A 
ATOM     13  C   UNL     1       1.200   9.167  19.980  0.00  0.00    +0.000 A 
ATOM     14  N   UNL     1       1.114  10.512  19.859  0.00  0.00    +0.000 NA
ATOM     15  C   UNL     1       1.638  11.046  18.738  0.00  0.00    +0.000 A 
ATOM     16  N   UNL     1       2.232  10.329  17.767  0.00  0.00    +0.000 NA
ATOM     17  C   UNL     1       2.301   8.992  17.961  0.00  0.00    +0.000 A 
BRANCH  15  18
ATOM     18  C   UNL     1       1.544  12.565  18.585  0.00  0.00    +0.000 C 
ATOM     19  C   UNL     1       0.085  12.993  18.440  0.00  0.00    +0.000 C 
ATOM     20  C   UNL     1       2.217  13.259  19.769  0.00  0.00    +0.000 C 
BRANCH  18  21
ATOM     21  O   UNL     1       2.225  13.002  17.389  0.00  0.00    +0.000 OA
ATOM     22  H   UNL     1       3.113  13.283  17.690  0.00  0.00    +0.000 HD
ENDBRANCH  18  21
ENDBRANCH  15  18
ENDBRANCH   9  12
BRANCH   1  23
ATOM     23  N   UNL     1       3.646   4.208  16.197  0.00  0.00    +0.000 N 
ATOM     24  H   UNL     1       3.491   3.527  15.459  0.00  0.00    +0.000 HD
BRANCH  23  25
ATOM     25  C   UNL     1       5.024   4.746  16.049  0.00  0.00    +0.000 C 
BRANCH  25  26
ATOM     26  C   UNL     1       5.582   4.389  14.682  0.00  0.00    +0.000 A 
ATOM     27  C   UNL     1       4.823   3.718  13.712  0.00  0.00    +0.000 A 
ATOM     28  C   UNL     1       5.371   3.419  12.462  0.00  0.00    +0.000 A 
ATOM     29  C   UNL     1       6.685   3.782  12.166  0.00  0.00    +0.000 A 
ATOM     30  C   UNL     1       7.450   4.446  13.120  0.00  0.00    +0.000 A 
ATOM     31  C   UNL     1       6.899   4.744  14.362  0.00  0.00    +0.000 A 
ATOM     32  F   UNL     1       7.659   5.394  15.255  0.00  0.00    +0.000 F 
ENDBRANCH  25  26
BRANCH  25  34
ATOM     33  C   UNL     1       5.815   6.699  17.531  0.00  0.00    +0.000 C 
ATOM     34  C   UNL     1       5.036   6.271  16.291  0.00  0.00    +0.000 C 
ENDBRANCH  25  34
ENDBRANCH  23  25
ENDBRANCH   1  23
TORSDOF 7
ENDMDL
MODEL 5
REMARK VINA RESULT:      -7.2      4.422      6.028
REMARK  Name = 
REMARK  10 active torsions:
REMARK  status: ('A' for Active; 'I' for Inactive)
REMARK    1  A    between atoms: C_1  and  C_2
REMARK    2  A    between atoms: C_2  and  C_3
REMARK    3  A    between atoms: C_3  and  N_4
REMARK    4  A    between atoms: C_3  and  C_26
REMARK    5  A    between atoms: N_4  and  C_5
REMARK    6  A    between atoms: C_13  and  C_14
REMARK    7  A    between atoms: C_17  and  C_18
REMARK    8  A    between atoms: C_18  and  C_19
REMARK    9  A    between atoms: C_18  and  C_20
REMARK   10  A    between atoms: C_18  and  O_21
REMARK                            x       y       z     vdW  Elec       q    Type
REMARK                         _______ _______ _______ _____ _____    ______ ____
ROOT
ATOM      1  C   UNL     1      -1.700  11.154  18.653  0.00  0.00    +0.000 A 
ATOM      2  C   UNL     1      -2.073  12.397  19.205  0.00  0.00    +0.000 A 
ATOM      3 CL   UNL     1      -3.542  12.711  20.068  0.00  0.00    +0.000 Cl
ATOM      4  C   UNL     1      -1.144  13.421  19.247  0.00  0.00    +0.000 A 
ATOM      5  N   UNL     1       0.159  13.283  18.951  0.00  0.00    +0.000 NA
ATOM      6  C   UNL     1       0.583  12.052  18.657  0.00  0.00    +0.000 A 
ATOM      7  C   UNL     1       1.957  11.889  18.602  0.00  0.00    +0.000 A 
ATOM      8  C   UNL     1       2.541  10.641  18.400  0.00  0.00    +0.000 A 
ATOM      9  C   UNL     1       1.755   9.509  18.171  0.00  0.00    +0.000 A 
ATOM     10  C   UNL     1       0.352   9.694  18.180  0.00  0.00    +0.000 A 
ATOM     11  C   UNL     1      -0.277  10.942  18.473  0.00  0.00    +0.000 A 
ENDROOT
BRANCH   9  12
ATOM     12  C   UNL     1       2.372   8.180  17.971  0.00  0.00    +0.000 A 
ATOM     13  C   UNL     1       3.611   7.993  17.384  0.00  0.00    +0.000 A 
ATOM     14  N   UNL     1       4.211   6.795  17.188  0.00  0.00    +0.000 NA
ATOM     15  C   UNL     1       3.514   5.709  17.578  0.00  0.00    +0.000 A 
ATOM     16  N   UNL     1       2.294   5.757  18.142  0.00  0.00    +0.000 NA
ATOM     17  C   UNL     1       1.763   6.987  18.325  0.00  0.00    +0.000 A 
BRANCH  15  18
ATOM     18  C   UNL     1       4.177   4.348  17.360  0.00  0.00    +0.000 C 
ATOM     19  C   UNL     1       5.027   4.370  16.091  0.00  0.00    +0.000 C 
ATOM     20  C   UNL     1       5.007   3.960  18.583  0.00  0.00    +0.000 C 
BRANCH  18  21
ATOM     21  O   UNL     1       3.182   3.318  17.173  0.00  0.00    +0.000 OA
ATOM     22  H   UNL     1       2.385   3.790  16.853  0.00  0.00    +0.000 HD
ENDBRANCH  18  21
ENDBRANCH  15  18
ENDBRANCH   9  12
BRANCH   1  23
ATOM     23  N   UNL     1      -2.601  10.070  18.448  0.00  0.00    +0.000 N 
ATOM     24  H   UNL     1      -2.118   9.178  18.512  0.00  0.00    +0.000 HD
BRANCH  23  25
ATOM     25  C   UNL     1      -3.465  10.043  17.239  0.00  0.00    +0.000 C 
BRANCH  25  26
ATOM     26  C   UNL     1      -4.747  10.818  17.493  0.00  0.00    +0.000 A 
ATOM     27  C   UNL     1      -5.005  12.061  16.897  0.00  0.00    +0.000 A 
ATOM     28  C   UNL     1      -6.203  12.735  17.148  0.00  0.00    +0.000 A 
ATOM     29  C   UNL     1      -7.156  12.179  18.001  0.00  0.00    +0.000 A 
ATOM     30  C   UNL     1      -6.913  10.947  18.600  0.00  0.00    +0.000 A 
ATOM     31  C   UNL     1      -5.720  10.279  18.345  0.00  0.00    +0.000 A 
ATOM     32  F   UNL     1      -5.520   9.089  18.930  0.00  0.00    +0.000 F 
ENDBRANCH  25  26
BRANCH  25  34
ATOM     33  C   UNL     1      -3.088   9.942  14.693  0.00  0.00    +0.000 C 
ATOM     34  C   UNL     1      -2.698  10.594  16.016  0.00  0.00    +0.000 C 
ENDBRANCH  25  34
ENDBRANCH  23  25
ENDBRANCH   1  23
TORSDOF 7
ENDMDL
MODEL 6
REMARK VINA RESULT:      -7.2      3.996      5.657
REMARK  Name = 
REMARK  10 active torsions:
REMARK  status: ('A' for Active; 'I' for Inactive)
REMARK    1  A    between atoms: C_1  and  C_2
REMARK    2  A    between atoms: C_2  and  C_3
REMARK    3  A    between atoms: C_3  and  N_4
REMARK    4  A    between atoms: C_3  and  C_26
REMARK    5  A    between atoms: N_4  and  C_5
REMARK    6  A    between atoms: C_13  and  C_14
REMARK    7  A    between atoms: C_17  and  C_18
REMARK    8  A    between atoms: C_18  and  C_19
REMARK    9  A    between atoms: C_18  and  C_20
REMARK   10  A    between atoms: C_18  and  O_21
REMARK                            x       y       z     vdW  Elec       q    Type
REMARK                         _______ _______ _______ _____ _____    ______ ____
ROOT
ATOM      1  C   UNL     1      -2.794  12.993  20.281  0.00  0.00    +0.000 A 
ATOM      2  C   UNL     1      -3.125  14.218  20.898  0.00  0.00    +0.000 A 
ATOM      3 CL   UNL     1      -4.530  14.503  21.872  0.00  0.00    +0.000 Cl
ATOM      4  C   UNL     1      -2.193  15.240  20.907  0.00  0.00    +0.000 A 
ATOM      5  N   UNL     1      -0.915  15.112  20.517  0.00  0.00    +0.000 NA
ATOM      6  C   UNL     1      -0.515  13.891  20.154  0.00  0.00    +0.000 A 
ATOM      7  C   UNL     1       0.851  13.730  19.997  0.00  0.00    +0.000 A 
ATOM      8  C   UNL     1       1.417  12.490  19.714  0.00  0.00    +0.000 A 
ATOM      9  C   UNL     1       0.614  11.366  19.504  0.00  0.00    +0.000 A 
ATOM     10  C   UNL     1      -0.784  11.550  19.617  0.00  0.00    +0.000 A 
ATOM     11  C   UNL     1      -1.388  12.788  19.995  0.00  0.00    +0.000 A 
ENDROOT
BRANCH   9  12
ATOM     12  C   UNL     1       1.213  10.044  19.218  0.00  0.00    +0.000 A 
ATOM     13  C   UNL     1       1.316   9.031  20.156  0.00  0.00    +0.000 A 
ATOM     14  N   UNL     1       1.852   7.809  19.931  0.00  0.00    +0.000 NA
ATOM     15  C   UNL     1       2.345   7.592  18.696  0.00  0.00    +0.000 A 
ATOM     16  N   UNL     1       2.324   8.501  17.704  0.00  0.00    +0.000 NA
ATOM     17  C   UNL     1       1.757   9.694  17.992  0.00  0.00    +0.000 A 
BRANCH  15  18
ATOM     18  C   UNL     1       2.958   6.216  18.427  0.00  0.00    +0.000 C 
ATOM     19  C   UNL     1       4.129   6.340  17.456  0.00  0.00    +0.000 C 
ATOM     20  C   UNL     1       3.385   5.561  19.740  0.00  0.00    +0.000 C 
BRANCH  18  21
ATOM     21  O   UNL     1       1.994   5.340  17.804  0.00  0.00    +0.000 OA
ATOM     22  H   UNL     1       1.904   5.672  16.887  0.00  0.00    +0.000 HD
ENDBRANCH  18  21
ENDBRANCH  15  18
ENDBRANCH   9  12
BRANCH   1  23
ATOM     23  N   UNL     1      -3.710  11.917  20.104  0.00  0.00    +0.000 N 
ATOM     24  H   UNL     1      -3.227  11.023  20.110  0.00  0.00    +0.000 HD
BRANCH  23  25
ATOM     25  C   UNL     1      -4.653  11.927  18.955  0.00  0.00    +0.000 C 
BRANCH  25  26
ATOM     26  C   UNL     1      -4.039  11.204  17.767  0.00  0.00    +0.000 A 
ATOM     27  C   UNL     1      -3.126  10.150  17.920  0.00  0.00    +0.000 A 
ATOM     28  C   UNL     1      -2.594   9.504  16.800  0.00  0.00    +0.000 A 
ATOM     29  C   UNL     1      -2.964   9.904  15.516  0.00  0.00    +0.000 A 
ATOM     30  C   UNL     1      -3.868  10.949  15.352  0.00  0.00    +0.000 A 
ATOM     31  C   UNL     1      -4.396  11.588  16.469  0.00  0.00    +0.000 A 
ATOM     32  F   UNL     1      -5.273  12.584  16.276  0.00  0.00    +0.000 F 
ENDBRANCH  25  26
BRANCH  25  34
ATOM     33  C   UNL     1      -7.220  12.138  18.957  0.00  0.00    +0.000 C 
ATOM     34  C   UNL     1      -6.007  11.307  19.364  0.00  0.00    +0.000 C 
ENDBRANCH  25  34
ENDBRANCH  23  25
ENDBRANCH   1  23
TORSDOF 7
ENDMDL
MODEL 7
REMARK VINA RESULT:      -7.1      1.457      2.074
REMARK  Name = 
REMARK  10 active torsions:
REMARK  status: ('A' for Active; 'I' for Inactive)
REMARK    1  A    between atoms: C_1  and  C_2
REMARK    2  A    between atoms: C_2  and  C_3
REMARK    3  A    between atoms: C_3  and  N_4
REMARK    4  A    between atoms: C_3  and  C_26
REMARK    5  A    between atoms: N_4  and  C_5
REMARK    6  A    between atoms: C_13  and  C_14
REMARK    7  A    between atoms: C_17  and  C_18
REMARK    8  A    between atoms: C_18  and  C_19
REMARK    9  A    between atoms: C_18  and  C_20
REMARK   10  A    between atoms: C_18  and  O_21
REMARK                            x       y       z     vdW  Elec       q    Type
REMARK                         _______ _______ _______ _____ _____    ______ ____
ROOT
ATOM      1  C   UNL     1       0.181  12.624  21.478  0.00  0.00    +0.000 A 
ATOM      2  C   UNL     1      -0.868  13.320  22.113  0.00  0.00    +0.000 A 
ATOM      3 CL   UNL     1      -1.519  14.841  21.599  0.00  0.00    +0.000 Cl
ATOM      4  C   UNL     1      -1.585  12.690  23.115  0.00  0.00    +0.000 A 
ATOM      5  N   UNL     1      -1.474  11.390  23.431  0.00  0.00    +0.000 NA
ATOM      6  C   UNL     1      -0.656  10.654  22.675  0.00  0.00    +0.000 A 
ATOM      7  C   UNL     1      -0.746   9.284  22.854  0.00  0.00    +0.000 A 
ATOM      8  C   UNL     1      -0.022   8.390  22.068  0.00  0.00    +0.000 A 
ATOM      9  C   UNL     1       0.886   8.850  21.110  0.00  0.00    +0.000 A 
ATOM     10  C   UNL     1       1.008  10.253  20.968  0.00  0.00    +0.000 A 
ATOM     11  C   UNL     1       0.214  11.191  21.696  0.00  0.00    +0.000 A 
ENDROOT
BRANCH   9  12
ATOM     12  C   UNL     1       1.645   7.905  20.264  0.00  0.00    +0.000 A 
ATOM     13  C   UNL     1       1.933   6.604  20.638  0.00  0.00    +0.000 A 
ATOM     14  N   UNL     1       2.619   5.709  19.891  0.00  0.00    +0.000 NA
ATOM     15  C   UNL     1       3.076   6.150  18.702  0.00  0.00    +0.000 A 
ATOM     16  N   UNL     1       2.880   7.396  18.233  0.00  0.00    +0.000 NA
ATOM     17  C   UNL     1       2.170   8.232  19.024  0.00  0.00    +0.000 A 
BRANCH  15  18
ATOM     18  C   UNL     1       3.857   5.151  17.847  0.00  0.00    +0.000 C 
ATOM     19  C   UNL     1       4.573   5.875  16.709  0.00  0.00    +0.000 C 
ATOM     20  C   UNL     1       4.838   4.364  18.715  0.00  0.00    +0.000 C 
BRANCH  18  21
ATOM     21  O   UNL     1       2.965   4.195  17.234  0.00  0.00    +0.000 OA
ATOM     22  H   UNL     1       3.519   3.709  16.589  0.00  0.00    +0.000 HD
ENDBRANCH  18  21
ENDBRANCH  15  18
ENDBRANCH   9  12
BRANCH   1  23
ATOM     23  N   UNL     1       1.062  13.208  20.523  0.00  0.00    +0.000 N 
ATOM     24  H   UNL     1       1.655  13.910  20.957  0.00  0.00    +0.000 HD
BRANCH  23  25
ATOM     25  C   UNL     1       0.517  13.777  19.263  0.00  0.00    +0.000 C 
BRANCH  25  26
ATOM     26  C   UNL     1       1.502  14.769  18.667  0.00  0.00    +0.000 A 
ATOM     27  C   UNL     1       2.747  14.375  18.154  0.00  0.00    +0.000 A 
ATOM     28  C   UNL     1       3.618  15.318  17.603  0.00  0.00    +0.000 A 
ATOM     29  C   UNL     1       3.260  16.665  17.560  0.00  0.00    +0.000 A 
ATOM     30  C   UNL     1       2.029  17.069  18.067  0.00  0.00    +0.000 A 
ATOM     31  C   UNL     1       1.164  16.127  18.613  0.00  0.00    +0.000 A 
ATOM     32  F   UNL     1      -0.020  16.547  19.083  0.00  0.00    +0.000 F 
ENDBRANCH  25  26
BRANCH  25  34
ATOM     33  C   UNL     1      -1.318  12.318  18.197  0.00  0.00    +0.000 C 
ATOM     34  C   UNL     1       0.169  12.649  18.268  0.00  0.00    +0.000 C 
ENDBRANCH  25  34
ENDBRANCH  23  25
ENDBRANCH   1  23
TORSDOF 7
ENDMDL
MODEL 8
REMARK VINA RESULT:      -7.1      4.068      5.441
REMARK  Name = 
REMARK  10 active torsions:
REMARK  status: ('A' for Active; 'I' for Inactive)
REMARK    1  A    between atoms: C_1  and  C_2
REMARK    2  A    between atoms: C_2  and  C_3
REMARK    3  A    between atoms: C_3  and  N_4
REMARK    4  A    between atoms: C_3  and  C_26
REMARK    5  A    between atoms: N_4  and  C_5
REMARK    6  A    between atoms: C_13  and  C_14
REMARK    7  A    between atoms: C_17  and  C_18
REMARK    8  A    between atoms: C_18  and  C_19
REMARK    9  A    between atoms: C_18  and  C_20
REMARK   10  A    between atoms: C_18  and  O_21
REMARK                            x       y       z     vdW  Elec       q    Type
REMARK                         _______ _______ _______ _____ _____    ______ ____
ROOT
ATOM      1  C   UNL     1      -2.461  12.380  20.394  0.00  0.00    +0.000 A 
ATOM      2  C   UNL     1      -3.426  12.960  21.243  0.00  0.00    +0.000 A 
ATOM      3 CL   UNL     1      -4.992  13.514  20.752  0.00  0.00    +0.000 Cl
ATOM      4  C   UNL     1      -3.222  12.932  22.611  0.00  0.00    +0.000 A 
ATOM      5  N   UNL     1      -2.245  12.244  23.224  0.00  0.00    +0.000 NA
ATOM      6  C   UNL     1      -1.463  11.489  22.449  0.00  0.00    +0.000 A 
ATOM      7  C   UNL     1      -0.634  10.604  23.118  0.00  0.00    +0.000 A 
ATOM      8  C   UNL     1       0.167   9.690  22.437  0.00  0.00    +0.000 A 
ATOM      9  C   UNL     1       0.217   9.681  21.041  0.00  0.00    +0.000 A 
ATOM     10  C   UNL     1      -0.595  10.623  20.366  0.00  0.00    +0.000 A 
ATOM     11  C   UNL     1      -1.493  11.511  21.034  0.00  0.00    +0.000 A 
ENDROOT
BRANCH   9  12
ATOM     12  C   UNL     1       1.055   8.703  20.315  0.00  0.00    +0.000 A 
ATOM     13  C   UNL     1       1.443   7.485  20.846  0.00  0.00    +0.000 A 
ATOM     14  N   UNL     1       2.203   6.562  20.212  0.00  0.00    +0.000 NA
ATOM     15  C   UNL     1       2.629   6.888  18.975  0.00  0.00    +0.000 A 
ATOM     16  N   UNL     1       2.338   8.047  18.357  0.00  0.00    +0.000 NA
ATOM     17  C   UNL     1       1.558   8.915  19.041  0.00  0.00    +0.000 A 
BRANCH  15  18
ATOM     18  C   UNL     1       3.493   5.856  18.247  0.00  0.00    +0.000 C 
ATOM     19  C   UNL     1       4.581   5.326  19.178  0.00  0.00    +0.000 C 
ATOM     20  C   UNL     1       2.621   4.725  17.702  0.00  0.00    +0.000 C 
BRANCH  18  21
ATOM     21  O   UNL     1       4.168   6.458  17.121  0.00  0.00    +0.000 OA
ATOM     22  H   UNL     1       3.895   5.924  16.346  0.00  0.00    +0.000 HD
ENDBRANCH  18  21
ENDBRANCH  15  18
ENDBRANCH   9  12
BRANCH   1  23
ATOM     23  N   UNL     1      -2.504  12.453  18.972  0.00  0.00    +0.000 N 
ATOM     24  H   UNL     1      -2.891  13.341  18.665  0.00  0.00    +0.000 HD
BRANCH  23  25
ATOM     25  C   UNL     1      -3.157  11.369  18.193  0.00  0.00    +0.000 C 
BRANCH  25  26
ATOM     26  C   UNL     1      -4.645  11.646  18.055  0.00  0.00    +0.000 A 
ATOM     27  C   UNL     1      -5.139  12.838  17.505  0.00  0.00    +0.000 A 
ATOM     28  C   UNL     1      -6.516  13.048  17.384  0.00  0.00    +0.000 A 
ATOM     29  C   UNL     1      -7.415  12.073  17.815  0.00  0.00    +0.000 A 
ATOM     30  C   UNL     1      -6.938  10.887  18.365  0.00  0.00    +0.000 A 
ATOM     31  C   UNL     1      -5.567  10.682  18.480  0.00  0.00    +0.000 A 
ATOM     32  F   UNL     1      -5.139   9.524  19.004  0.00  0.00    +0.000 F 
ENDBRANCH  25  26
BRANCH  25  34
ATOM     33  C   UNL     1      -2.993  10.029  16.000  0.00  0.00    +0.000 C 
ATOM     34  C   UNL     1      -2.475  11.209  16.816  0.00  0.00    +0.000 C 
ENDBRANCH  25  34
ENDBRANCH  23  25
ENDBRANCH   1  23
TORSDOF 7
ENDMDL
MODEL 9
REMARK VINA RESULT:      -7.1      4.084      5.516
REMARK  Name = 
REMARK  10 active torsions:
REMARK  status: ('A' for Active; 'I' for Inactive)
REMARK    1  A    between atoms: C_1  and  C_2
REMARK    2  A    between atoms: C_2  and  C_3
REMARK    3  A    between atoms: C_3  and  N_4
REMARK    4  A    between atoms: C_3  and  C_26
REMARK    5  A    between atoms: N_4  and  C_5
REMARK    6  A    between atoms: C_13  and  C_14
REMARK    7  A    between atoms: C_17  and  C_18
REMARK    8  A    between atoms: C_18  and  C_19
REMARK    9  A    between atoms: C_18  and  C_20
REMARK   10  A    between atoms: C_18  and  O_21
REMARK                            x       y       z     vdW  Elec       q    Type
REMARK                         _______ _______ _______ _____ _____    ______ ____
ROOT
ATOM      1  C   UNL     1      -2.448  12.359  20.249  0.00  0.00    +0.000 A 
ATOM      2  C   UNL     1      -3.426  12.941  21.081  0.00  0.00    +0.000 A 
ATOM      3 CL   UNL     1      -4.996  13.465  20.570  0.00  0.00    +0.000 Cl
ATOM      4  C   UNL     1      -3.230  12.941  22.451  0.00  0.00    +0.000 A 
ATOM      5  N   UNL     1      -2.249  12.277  23.082  0.00  0.00    +0.000 NA
ATOM      6  C   UNL     1      -1.451  11.519  22.326  0.00  0.00    +0.000 A 
ATOM      7  C   UNL     1      -0.615  10.658  23.015  0.00  0.00    +0.000 A 
ATOM      8  C   UNL     1       0.202   9.742  22.356  0.00  0.00    +0.000 A 
ATOM      9  C   UNL     1       0.262   9.709  20.961  0.00  0.00    +0.000 A 
ATOM     10  C   UNL     1      -0.559  10.628  20.264  0.00  0.00    +0.000 A 
ATOM     11  C   UNL     1      -1.473  11.515  20.911  0.00  0.00    +0.000 A 
ENDROOT
BRANCH   9  12
ATOM     12  C   UNL     1       1.117   8.729  20.258  0.00  0.00    +0.000 A 
ATOM     13  C   UNL     1       1.602   8.918  18.975  0.00  0.00    +0.000 A 
ATOM     14  N   UNL     1       2.390   8.048  18.302  0.00  0.00    +0.000 NA
ATOM     15  C   UNL     1       2.691   6.898  18.939  0.00  0.00    +0.000 A 
ATOM     16  N   UNL     1       2.265   6.588  20.176  0.00  0.00    +0.000 NA
ATOM     17  C   UNL     1       1.497   7.511  20.799  0.00  0.00    +0.000 A 
BRANCH  15  18
ATOM     18  C   UNL     1       3.578   5.903  18.189  0.00  0.00    +0.000 C 
ATOM     19  C   UNL     1       4.356   6.616  17.084  0.00  0.00    +0.000 C 
ATOM     20  C   UNL     1       4.514   5.189  19.162  0.00  0.00    +0.000 C 
BRANCH  18  21
ATOM     21  O   UNL     1       2.777   4.890  17.543  0.00  0.00    +0.000 OA
ATOM     22  H   UNL     1       2.895   4.086  18.089  0.00  0.00    +0.000 HD
ENDBRANCH  18  21
ENDBRANCH  15  18
ENDBRANCH   9  12
BRANCH   1  23
ATOM     23  N   UNL     1      -2.483  12.407  18.825  0.00  0.00    +0.000 N 
ATOM     24  H   UNL     1      -2.848  13.297  18.500  0.00  0.00    +0.000 HD
BRANCH  23  25
ATOM     25  C   UNL     1      -3.156  11.323  18.064  0.00  0.00    +0.000 C 
BRANCH  25  26
ATOM     26  C   UNL     1      -4.644  11.610  17.949  0.00  0.00    +0.000 A 
ATOM     27  C   UNL     1      -5.140  12.781  17.358  0.00  0.00    +0.000 A 
ATOM     28  C   UNL     1      -6.517  13.000  17.261  0.00  0.00    +0.000 A 
ATOM     29  C   UNL     1      -7.415  12.056  17.756  0.00  0.00    +0.000 A 
ATOM     30  C   UNL     1      -6.936  10.890  18.347  0.00  0.00    +0.000 A 
ATOM     31  C   UNL     1      -5.565  10.675  18.439  0.00  0.00    +0.000 A 
ATOM     32  F   UNL     1      -5.136   9.537  19.004  0.00  0.00    +0.000 F 
ENDBRANCH  25  26
BRANCH  25  34
ATOM     33  C   UNL     1      -2.959   9.907  15.921  0.00  0.00    +0.000 C 
ATOM     34  C   UNL     1      -2.499  11.150  16.677  0.00  0.00    +0.000 C 
ENDBRANCH  25  34
ENDBRANCH  23  25
ENDBRANCH   1  23
TORSDOF 7
ENDMDL
