MODEL 1
REMARK VINA RESULT:      -8.6      0.000      0.000
REMARK  Name = 
REMARK  3 active torsions:
REMARK  status: ('A' for Active; 'I' for Inactive)
REMARK    1  A    between atoms: C_5  and  C_6
REMARK    2  A    between atoms: C_11  and  C_12
REMARK    3  A    between atoms: C_23  and  C_24
REMARK                            x       y       z     vdW  Elec       q    Type
REMARK                         _______ _______ _______ _____ _____    ______ ____
ROOT
ATOM      1  C   UNL     1      -0.439  10.232  22.459  0.00  0.00    +0.000 A 
ATOM      2  C   UNL     1       0.084   8.935  22.476  0.00  0.00    +0.000 A 
ATOM      3  C   UNL     1       0.823   8.479  21.368  0.00  0.00    +0.000 A 
ATOM      4  C   UNL     1       1.494   7.266  21.074  0.00  0.00    +0.000 A 
ATOM      5  C   UNL     1       2.100   7.387  19.831  0.00  0.00    +0.000 A 
ATOM      6  N   UNL     1       1.759   8.640  19.356  0.00  0.00    +0.000 N 
ATOM      7  C   UNL     1       0.998   9.327  20.277  0.00  0.00    +0.000 A 
ATOM      8  C   UNL     1       0.463  10.621  20.227  0.00  0.00    +0.000 A 
ATOM      9  C   UNL     1      -0.249  11.065  21.352  0.00  0.00    +0.000 A 
ATOM     10  H   UNL     1       2.067   9.025  18.478  0.00  0.00    +0.000 HD
ENDROOT
BRANCH   5  11
ATOM     11  C   UNL     1       2.972   6.460  19.102  0.00  0.00    +0.000 A 
ATOM     12  C   UNL     1       3.305   5.212  19.640  0.00  0.00    +0.000 A 
ATOM     13  C   UNL     1       4.108   4.305  18.938  0.00  0.00    +0.000 A 
ATOM     14  C   UNL     1       4.602   4.662  17.669  0.00  0.00    +0.000 A 
ATOM     15  C   UNL     1       5.425   4.010  16.712  0.00  0.00    +0.000 A 
ATOM     16  C   UNL     1       5.604   4.862  15.642  0.00  0.00    +0.000 A 
ATOM     17  N   UNL     1       4.898   6.010  15.924  0.00  0.00    +0.000 N 
ATOM     18  C   UNL     1       4.281   5.914  17.151  0.00  0.00    +0.000 A 
ATOM     19  C   UNL     1       3.475   6.829  17.840  0.00  0.00    +0.000 A 
ATOM     20  H   UNL     1       4.868   6.810  15.305  0.00  0.00    +0.000 HD
BRANCH  16  21
ATOM     21  C   UNL     1       6.380   4.683  14.446  0.00  0.00    +0.000 C 
ATOM     22  N   UNL     1       7.398   5.474  14.225  0.00  0.00    +0.000 NA
ATOM     23  C   UNL     1       7.928   5.052  12.899  0.00  0.00    +0.000 C 
ATOM     24  C   UNL     1       7.049   3.903  12.401  0.00  0.00    +0.000 C 
ATOM     25  N   UNL     1       6.127   3.731  13.492  0.00  0.00    +0.000 N 
ATOM     26  H   UNL     1       5.152   3.579  13.272  0.00  0.00    +0.000 HD
ENDBRANCH  16  21
ENDBRANCH   5  11
BRANCH   9  27
ATOM     27  C   UNL     1      -0.834  12.426  21.371  0.00  0.00    +0.000 C 
ATOM     28  N   UNL     1      -1.420  12.947  20.322  0.00  0.00    +0.000 NA
ATOM     29  C   UNL     1      -1.851  14.307  20.759  0.00  0.00    +0.000 C 
ATOM     30  C   UNL     1      -1.474  14.455  22.237  0.00  0.00    +0.000 C 
ATOM     31  N   UNL     1      -0.817  13.206  22.495  0.00  0.00    +0.000 N 
ATOM     32  H   UNL     1      -0.093  13.122  23.196  0.00  0.00    +0.000 HD
ENDBRANCH   9  27
TORSDOF 3
ENDMDL
MODEL 2
REMARK VINA RESULT:      -8.3      1.137     10.328
REMARK  Name = 
REMARK  3 active torsions:
REMARK  status: ('A' for Active; 'I' for Inactive)
REMARK    1  A    between atoms: C_5  and  C_6
REMARK    2  A    between atoms: C_11  and  C_12
REMARK    3  A    between atoms: C_23  and  C_24
REMARK                            x       y       z     vdW  Elec       q    Type
REMARK                         _______ _______ _______ _____ _____    ______ ____
ROOT
ATOM      1  C   UNL     1       4.844   3.852  16.322  0.00  0.00    +0.000 A 
ATOM      2  C   UNL     1       3.989   3.967  17.423  0.00  0.00    +0.000 A 
ATOM      3  C   UNL     1       3.586   5.246  17.848  0.00  0.00    +0.000 A 
ATOM      4  C   UNL     1       2.734   5.708  18.881  0.00  0.00    +0.000 A 
ATOM      5  C   UNL     1       2.666   7.093  18.811  0.00  0.00    +0.000 A 
ATOM      6  N   UNL     1       3.505   7.468  17.779  0.00  0.00    +0.000 N 
ATOM      7  C   UNL     1       4.062   6.365  17.169  0.00  0.00    +0.000 A 
ATOM      8  C   UNL     1       4.938   6.276  16.079  0.00  0.00    +0.000 A 
ATOM      9  C   UNL     1       5.308   4.991  15.655  0.00  0.00    +0.000 A 
ATOM     10  H   UNL     1       3.652   8.416  17.474  0.00  0.00    +0.000 HD
ENDROOT
BRANCH   5  11
ATOM     11  C   UNL     1       1.872   8.048  19.591  0.00  0.00    +0.000 A 
ATOM     12  C   UNL     1       1.445   7.740  20.887  0.00  0.00    +0.000 A 
ATOM     13  C   UNL     1       0.716   8.658  21.654  0.00  0.00    +0.000 A 
ATOM     14  C   UNL     1       0.395   9.913  21.103  0.00  0.00    +0.000 A 
ATOM     15  C   UNL     1      -0.315  11.047  21.581  0.00  0.00    +0.000 A 
ATOM     16  C   UNL     1      -0.338  11.997  20.581  0.00  0.00    +0.000 A 
ATOM     17  N   UNL     1       0.353  11.469  19.513  0.00  0.00    +0.000 N 
ATOM     18  C   UNL     1       0.808  10.203  19.805  0.00  0.00    +0.000 A 
ATOM     19  C   UNL     1       1.541   9.296  19.029  0.00  0.00    +0.000 A 
ATOM     20  H   UNL     1       0.480  11.958  18.637  0.00  0.00    +0.000 HD
BRANCH  16  21
ATOM     21  C   UNL     1      -0.960  13.291  20.559  0.00  0.00    +0.000 C 
ATOM     22  N   UNL     1      -0.412  14.247  19.852  0.00  0.00    +0.000 NA
ATOM     23  C   UNL     1      -1.269  15.440  20.097  0.00  0.00    +0.000 C 
ATOM     24  C   UNL     1      -2.382  15.014  21.055  0.00  0.00    +0.000 C 
ATOM     25  N   UNL     1      -2.103  13.615  21.242  0.00  0.00    +0.000 N 
ATOM     26  H   UNL     1      -2.179  13.235  22.176  0.00  0.00    +0.000 HD
ENDBRANCH  16  21
ENDBRANCH   5  11
BRANCH   9  27
ATOM     27  C   UNL     1       6.223   4.823  14.503  0.00  0.00    +0.000 C 
ATOM     28  N   UNL     1       7.346   5.491  14.402  0.00  0.00    +0.000 NA
ATOM     29  C   UNL     1       7.946   5.039  13.113  0.00  0.00    +0.000 C 
ATOM     30  C   UNL     1       7.022   3.965  12.527  0.00  0.00    +0.000 C 
ATOM     31  N   UNL     1       5.960   3.941  13.491  0.00  0.00    +0.000 N 
ATOM     32  H   UNL     1       5.016   3.686  13.233  0.00  0.00    +0.000 HD
ENDBRANCH   9  27
TORSDOF 3
ENDMDL
MODEL 3
REMARK VINA RESULT:      -8.2      1.703     10.880
REMARK  Name = 
REMARK  3 active torsions:
REMARK  status: ('A' for Active; 'I' for Inactive)
REMARK    1  A    between atoms: C_5  and  C_6
REMARK    2  A    between atoms: C_11  and  C_12
REMARK    3  A    between atoms: C_23  and  C_24
REMARK                            x       y       z     vdW  Elec       q    Type
REMARK                         _______ _______ _______ _____ _____    ______ ____
ROOT
ATOM      1  C   UNL     1       4.635   4.938  18.141  0.00  0.00    +0.000 A 
ATOM      2  C   UNL     1       3.817   5.399  19.177  0.00  0.00    +0.000 A 
ATOM      3  C   UNL     1       3.119   6.609  19.013  0.00  0.00    +0.000 A 
ATOM      4  C   UNL     1       2.212   7.332  19.828  0.00  0.00    +0.000 A 
ATOM      5  C   UNL     1       1.795   8.459  19.133  0.00  0.00    +0.000 A 
ATOM      6  N   UNL     1       2.478   8.445  17.931  0.00  0.00    +0.000 N 
ATOM      7  C   UNL     1       3.275   7.325  17.828  0.00  0.00    +0.000 A 
ATOM      8  C   UNL     1       4.108   6.896  16.787  0.00  0.00    +0.000 A 
ATOM      9  C   UNL     1       4.775   5.674  16.959  0.00  0.00    +0.000 A 
ATOM     10  H   UNL     1       2.372   9.130  17.202  0.00  0.00    +0.000 HD
ENDROOT
BRANCH   5  11
ATOM     11  C   UNL     1       0.813   9.488  19.488  0.00  0.00    +0.000 A 
ATOM     12  C   UNL     1       0.205  10.273  18.502  0.00  0.00    +0.000 A 
ATOM     13  C   UNL     1      -0.760  11.235  18.827  0.00  0.00    +0.000 A 
ATOM     14  C   UNL     1      -1.116  11.425  20.176  0.00  0.00    +0.000 A 
ATOM     15  C   UNL     1      -2.023  12.290  20.844  0.00  0.00    +0.000 A 
ATOM     16  C   UNL     1      -1.935  12.049  22.199  0.00  0.00    +0.000 A 
ATOM     17  N   UNL     1      -1.004  11.047  22.365  0.00  0.00    +0.000 N 
ATOM     18  C   UNL     1      -0.491  10.652  21.151  0.00  0.00    +0.000 A 
ATOM     19  C   UNL     1       0.472   9.684  20.840  0.00  0.00    +0.000 A 
ATOM     20  H   UNL     1      -0.737  10.681  23.270  0.00  0.00    +0.000 HD
BRANCH  16  21
ATOM     21  C   UNL     1      -2.616  12.686  23.291  0.00  0.00    +0.000 C 
ATOM     22  N   UNL     1      -3.639  12.082  23.840  0.00  0.00    +0.000 NA
ATOM     23  C   UNL     1      -4.127  13.029  24.880  0.00  0.00    +0.000 C 
ATOM     24  C   UNL     1      -3.227  14.265  24.831  0.00  0.00    +0.000 C 
ATOM     25  N   UNL     1      -2.277  13.908  23.811  0.00  0.00    +0.000 N 
ATOM     26  H   UNL     1      -2.016  14.614  23.136  0.00  0.00    +0.000 HD
ENDBRANCH  16  21
ENDBRANCH   5  11
BRANCH   9  27
ATOM     27  C   UNL     1       5.665   5.155  15.894  0.00  0.00    +0.000 C 
ATOM     28  N   UNL     1       5.277   4.228  15.053  0.00  0.00    +0.000 NA
ATOM     29  C   UNL     1       6.457   3.994  14.171  0.00  0.00    +0.000 C 
ATOM     30  C   UNL     1       7.554   4.975  14.600  0.00  0.00    +0.000 C 
ATOM     31  N   UNL     1       6.934   5.633  15.713  0.00  0.00    +0.000 N 
ATOM     32  H   UNL     1       7.479   6.011  16.476  0.00  0.00    +0.000 HD
ENDBRANCH   9  27
TORSDOF 3
ENDMDL
MODEL 4
REMARK VINA RESULT:      -8.2      1.322     10.494
REMARK  Name = 
REMARK  3 active torsions:
REMARK  status: ('A' for Active; 'I' for Inactive)
REMARK    1  A    between atoms: C_5  and  C_6
REMARK    2  A    between atoms: C_11  and  C_12
REMARK    3  A    between atoms: C_23  and  C_24
REMARK                            x       y       z     vdW  Elec       q    Type
REMARK                         _______ _______ _______ _____ _____    ______ ____
ROOT
ATOM      1  C   UNL     1       3.546   4.335  18.596  0.00  0.00    +0.000 A 
ATOM      2  C   UNL     1       2.732   4.628  19.696  0.00  0.00    +0.000 A 
ATOM      3  C   UNL     1       2.319   5.955  19.908  0.00  0.00    +0.000 A 
ATOM      4  C   UNL     1       1.497   6.579  20.881  0.00  0.00    +0.000 A 
ATOM      5  C   UNL     1       1.398   7.929  20.575  0.00  0.00    +0.000 A 
ATOM      6  N   UNL     1       2.189   8.131  19.460  0.00  0.00    +0.000 N 
ATOM      7  C   UNL     1       2.746   6.947  19.028  0.00  0.00    +0.000 A 
ATOM      8  C   UNL     1       3.581   6.681  17.934  0.00  0.00    +0.000 A 
ATOM      9  C   UNL     1       3.961   5.347  17.724  0.00  0.00    +0.000 A 
ATOM     10  H   UNL     1       2.305   9.013  18.990  0.00  0.00    +0.000 HD
ENDROOT
BRANCH   5  11
ATOM     11  C   UNL     1       0.615   8.994  21.209  0.00  0.00    +0.000 A 
ATOM     12  C   UNL     1       0.137   8.855  22.517  0.00  0.00    +0.000 A 
ATOM     13  C   UNL     1      -0.582   9.880  23.145  0.00  0.00    +0.000 A 
ATOM     14  C   UNL     1      -0.841  11.071  22.441  0.00  0.00    +0.000 A 
ATOM     15  C   UNL     1      -1.524  12.275  22.758  0.00  0.00    +0.000 A 
ATOM     16  C   UNL     1      -1.483  13.100  21.653  0.00  0.00    +0.000 A 
ATOM     17  N   UNL     1      -0.778  12.428  20.680  0.00  0.00    +0.000 N 
ATOM     18  C   UNL     1      -0.378  11.192  21.133  0.00  0.00    +0.000 A 
ATOM     19  C   UNL     1       0.346  10.177  20.495  0.00  0.00    +0.000 A 
ATOM     20  H   UNL     1      -0.606  12.807  19.757  0.00  0.00    +0.000 HD
BRANCH  16  21
ATOM     21  C   UNL     1      -2.057  14.402  21.459  0.00  0.00    +0.000 C 
ATOM     22  N   UNL     1      -2.715  14.960  22.443  0.00  0.00    +0.000 NA
ATOM     23  C   UNL     1      -3.209  16.250  21.889  0.00  0.00    +0.000 C 
ATOM     24  C   UNL     1      -2.734  16.335  20.437  0.00  0.00    +0.000 C 
ATOM     25  N   UNL     1      -1.974  15.122  20.295  0.00  0.00    +0.000 N 
ATOM     26  H   UNL     1      -2.083  14.589  19.442  0.00  0.00    +0.000 HD
ENDBRANCH  16  21
ENDBRANCH   5  11
BRANCH   9  27
ATOM     27  C   UNL     1       4.835   4.994  16.582  0.00  0.00    +0.000 C 
ATOM     28  N   UNL     1       5.186   5.873  15.676  0.00  0.00    +0.000 NA
ATOM     29  C   UNL     1       6.042   5.114  14.718  0.00  0.00    +0.000 C 
ATOM     30  C   UNL     1       6.175   3.684  15.253  0.00  0.00    +0.000 C 
ATOM     31  N   UNL     1       5.346   3.735  16.423  0.00  0.00    +0.000 N 
ATOM     32  H   UNL     1       4.869   2.914  16.770  0.00  0.00    +0.000 HD
ENDBRANCH   9  27
TORSDOF 3
ENDMDL
MODEL 5
REMARK VINA RESULT:      -8.2      0.419      1.085
REMARK  Name = 
REMARK  3 active torsions:
REMARK  status: ('A' for Active; 'I' for Inactive)
REMARK    1  A    between atoms: C_5  and  C_6
REMARK    2  A    between atoms: C_11  and  C_12
REMARK    3  A    between atoms: C_23  and  C_24
REMARK                            x       y       z     vdW  Elec       q    Type
REMARK                         _______ _______ _______ _____ _____    ______ ____
ROOT
ATOM      1  C   UNL     1      -0.056  10.221  22.480  0.00  0.00    +0.000 A 
ATOM      2  C   UNL     1       0.431   8.911  22.442  0.00  0.00    +0.000 A 
ATOM      3  C   UNL     1       1.044   8.441  21.266  0.00  0.00    +0.000 A 
ATOM      4  C   UNL     1       1.651   7.212  20.904  0.00  0.00    +0.000 A 
ATOM      5  C   UNL     1       2.135   7.324  19.608  0.00  0.00    +0.000 A 
ATOM      6  N   UNL     1       1.783   8.587  19.173  0.00  0.00    +0.000 N 
ATOM      7  C   UNL     1       1.135   9.290  20.165  0.00  0.00    +0.000 A 
ATOM      8  C   UNL     1       0.632  10.598  20.172  0.00  0.00    +0.000 A 
ATOM      9  C   UNL     1       0.047  11.055  21.362  0.00  0.00    +0.000 A 
ATOM     10  H   UNL     1       2.014   8.968  18.270  0.00  0.00    +0.000 HD
ENDROOT
BRANCH   5  11
ATOM     11  C   UNL     1       2.905   6.377  18.795  0.00  0.00    +0.000 A 
ATOM     12  C   UNL     1       2.917   5.011  19.098  0.00  0.00    +0.000 A 
ATOM     13  C   UNL     1       3.622   4.094  18.308  0.00  0.00    +0.000 A 
ATOM     14  C   UNL     1       4.344   4.558  17.192  0.00  0.00    +0.000 A 
ATOM     15  C   UNL     1       5.150   3.928  16.208  0.00  0.00    +0.000 A 
ATOM     16  C   UNL     1       5.634   4.899  15.356  0.00  0.00    +0.000 A 
ATOM     17  N   UNL     1       5.127   6.102  15.795  0.00  0.00    +0.000 N 
ATOM     18  C   UNL     1       4.341   5.922  16.910  0.00  0.00    +0.000 A 
ATOM     19  C   UNL     1       3.638   6.850  17.690  0.00  0.00    +0.000 A 
ATOM     20  H   UNL     1       5.334   6.987  15.351  0.00  0.00    +0.000 HD
BRANCH  16  21
ATOM     21  C   UNL     1       6.517   4.775  14.230  0.00  0.00    +0.000 C 
ATOM     22  N   UNL     1       6.229   3.913  13.289  0.00  0.00    +0.000 NA
ATOM     23  C   UNL     1       7.360   4.007  12.326  0.00  0.00    +0.000 C 
ATOM     24  C   UNL     1       8.337   5.052  12.870  0.00  0.00    +0.000 C 
ATOM     25  N   UNL     1       7.668   5.500  14.063  0.00  0.00    +0.000 N 
ATOM     26  H   UNL     1       8.224   5.639  14.897  0.00  0.00    +0.000 HD
ENDBRANCH  16  21
ENDBRANCH   5  11
BRANCH   9  27
ATOM     27  C   UNL     1      -0.496  12.431  21.443  0.00  0.00    +0.000 C 
ATOM     28  N   UNL     1       0.017  13.337  22.237  0.00  0.00    +0.000 NA
ATOM     29  C   UNL     1      -0.818  14.555  22.021  0.00  0.00    +0.000 C 
ATOM     30  C   UNL     1      -1.847  14.219  20.935  0.00  0.00    +0.000 C 
ATOM     31  N   UNL     1      -1.550  12.840  20.672  0.00  0.00    +0.000 N 
ATOM     32  H   UNL     1      -2.261  12.197  20.351  0.00  0.00    +0.000 HD
ENDBRANCH   9  27
TORSDOF 3
ENDMDL
MODEL 6
REMARK VINA RESULT:      -8.2      1.553     10.937
REMARK  Name = 
REMARK  3 active torsions:
REMARK  status: ('A' for Active; 'I' for Inactive)
REMARK    1  A    between atoms: C_5  and  C_6
REMARK    2  A    between atoms: C_11  and  C_12
REMARK    3  A    between atoms: C_23  and  C_24
REMARK                            x       y       z     vdW  Elec       q    Type
REMARK                         _______ _______ _______ _____ _____    ______ ____
ROOT
ATOM      1  C   UNL     1       4.072   5.070  18.673  0.00  0.00    +0.000 A 
ATOM      2  C   UNL     1       3.257   5.571  19.694  0.00  0.00    +0.000 A 
ATOM      3  C   UNL     1       2.625   6.815  19.519  0.00  0.00    +0.000 A 
ATOM      4  C   UNL     1       1.741   7.583  20.318  0.00  0.00    +0.000 A 
ATOM      5  C   UNL     1       1.395   8.730  19.617  0.00  0.00    +0.000 A 
ATOM      6  N   UNL     1       2.100   8.682  18.429  0.00  0.00    +0.000 N 
ATOM      7  C   UNL     1       2.840   7.524  18.339  0.00  0.00    +0.000 A 
ATOM      8  C   UNL     1       3.671   7.054  17.313  0.00  0.00    +0.000 A 
ATOM      9  C   UNL     1       4.272   5.799  17.496  0.00  0.00    +0.000 A 
ATOM     10  H   UNL     1       2.043   9.373  17.699  0.00  0.00    +0.000 HD
ENDROOT
BRANCH   5  11
ATOM     11  C   UNL     1       0.460   9.807  19.955  0.00  0.00    +0.000 A 
ATOM     12  C   UNL     1      -0.495  10.247  19.032  0.00  0.00    +0.000 A 
ATOM     13  C   UNL     1      -1.416  11.251  19.356  0.00  0.00    +0.000 A 
ATOM     14  C   UNL     1      -1.372  11.840  20.634  0.00  0.00    +0.000 A 
ATOM     15  C   UNL     1      -2.125  12.857  21.278  0.00  0.00    +0.000 A 
ATOM     16  C   UNL     1      -1.611  13.042  22.544  0.00  0.00    +0.000 A 
ATOM     17  N   UNL     1      -0.572  12.150  22.686  0.00  0.00    +0.000 N 
ATOM     18  C   UNL     1      -0.405  11.408  21.539  0.00  0.00    +0.000 A 
ATOM     19  C   UNL     1       0.519  10.402  21.229  0.00  0.00    +0.000 A 
ATOM     20  H   UNL     1      -0.009  12.081  23.525  0.00  0.00    +0.000 HD
BRANCH  16  21
ATOM     21  C   UNL     1      -2.000  13.974  23.565  0.00  0.00    +0.000 C 
ATOM     22  N   UNL     1      -1.070  14.606  24.235  0.00  0.00    +0.000 NA
ATOM     23  C   UNL     1      -1.811  15.432  25.228  0.00  0.00    +0.000 C 
ATOM     24  C   UNL     1      -3.303  15.166  25.022  0.00  0.00    +0.000 C 
ATOM     25  N   UNL     1      -3.297  14.255  23.907  0.00  0.00    +0.000 N 
ATOM     26  H   UNL     1      -3.924  13.463  23.936  0.00  0.00    +0.000 HD
ENDBRANCH  16  21
ENDBRANCH   5  11
BRANCH   9  27
ATOM     27  C   UNL     1       5.155   5.238  16.448  0.00  0.00    +0.000 C 
ATOM     28  N   UNL     1       5.721   5.991  15.537  0.00  0.00    +0.000 NA
ATOM     29  C   UNL     1       6.502   5.044  14.688  0.00  0.00    +0.000 C 
ATOM     30  C   UNL     1       6.341   3.645  15.294  0.00  0.00    +0.000 C 
ATOM     31  N   UNL     1       5.448   3.903  16.386  0.00  0.00    +0.000 N 
ATOM     32  H   UNL     1       4.809   3.197  16.727  0.00  0.00    +0.000 HD
ENDBRANCH   9  27
TORSDOF 3
ENDMDL
MODEL 7
REMARK VINA RESULT:      -8.1      1.267      2.035
REMARK  Name = 
REMARK  3 active torsions:
REMARK  status: ('A' for Active; 'I' for Inactive)
REMARK    1  A    between atoms: C_5  and  C_6
REMARK    2  A    between atoms: C_11  and  C_12
REMARK    3  A    between atoms: C_23  and  C_24
REMARK                            x       y       z     vdW  Elec       q    Type
REMARK                         _______ _______ _______ _____ _____    ______ ____
ROOT
ATOM      1  C   UNL     1      -1.227  11.722  23.122  0.00  0.00    +0.000 A 
ATOM      2  C   UNL     1      -1.057  10.334  23.086  0.00  0.00    +0.000 A 
ATOM      3  C   UNL     1      -0.223   9.771  22.103  0.00  0.00    +0.000 A 
ATOM      4  C   UNL     1       0.178   8.445  21.804  0.00  0.00    +0.000 A 
ATOM      5  C   UNL     1       1.060   8.480  20.733  0.00  0.00    +0.000 A 
ATOM      6  N   UNL     1       1.154   9.806  20.355  0.00  0.00    +0.000 N 
ATOM      7  C   UNL     1       0.398  10.610  21.180  0.00  0.00    +0.000 A 
ATOM      8  C   UNL     1       0.223  12.001  21.182  0.00  0.00    +0.000 A 
ATOM      9  C   UNL     1      -0.592  12.545  22.186  0.00  0.00    +0.000 A 
ATOM     10  H   UNL     1       1.737  10.152  19.611  0.00  0.00    +0.000 HD
ENDROOT
BRANCH   5  11
ATOM     11  C   UNL     1       1.818   7.404  20.087  0.00  0.00    +0.000 A 
ATOM     12  C   UNL     1       1.810   6.105  20.609  0.00  0.00    +0.000 A 
ATOM     13  C   UNL     1       2.502   5.062  19.981  0.00  0.00    +0.000 A 
ATOM     14  C   UNL     1       3.232   5.328  18.807  0.00  0.00    +0.000 A 
ATOM     15  C   UNL     1       4.030   4.535  17.940  0.00  0.00    +0.000 A 
ATOM     16  C   UNL     1       4.528   5.348  16.944  0.00  0.00    +0.000 A 
ATOM     17  N   UNL     1       4.038   6.613  17.179  0.00  0.00    +0.000 N 
ATOM     18  C   UNL     1       3.249   6.628  18.306  0.00  0.00    +0.000 A 
ATOM     19  C   UNL     1       2.558   7.679  18.922  0.00  0.00    +0.000 A 
ATOM     20  H   UNL     1       4.258   7.411  16.598  0.00  0.00    +0.000 HD
BRANCH  16  21
ATOM     21  C   UNL     1       5.410   5.030  15.856  0.00  0.00    +0.000 C 
ATOM     22  N   UNL     1       5.121   4.018  15.078  0.00  0.00    +0.000 NA
ATOM     23  C   UNL     1       6.252   3.943  14.113  0.00  0.00    +0.000 C 
ATOM     24  C   UNL     1       7.230   5.065  14.468  0.00  0.00    +0.000 C 
ATOM     25  N   UNL     1       6.563   5.714  15.565  0.00  0.00    +0.000 N 
ATOM     26  H   UNL     1       7.118   5.995  16.362  0.00  0.00    +0.000 HD
ENDBRANCH  16  21
ENDBRANCH   5  11
BRANCH   9  27
ATOM     27  C   UNL     1      -0.813  14.008  22.253  0.00  0.00    +0.000 C 
ATOM     28  N   UNL     1       0.174  14.866  22.164  0.00  0.00    +0.000 NA
ATOM     29  C   UNL     1      -0.472  16.206  22.287  0.00  0.00    +0.000 C 
ATOM     30  C   UNL     1      -1.984  15.979  22.398  0.00  0.00    +0.000 C 
ATOM     31  N   UNL     1      -2.063  14.547  22.387  0.00  0.00    +0.000 N 
ATOM     32  H   UNL     1      -2.812  14.054  22.854  0.00  0.00    +0.000 HD
ENDBRANCH   9  27
TORSDOF 3
ENDMDL
MODEL 8
REMARK VINA RESULT:      -8.1      1.203     10.384
REMARK  Name = 
REMARK  3 active torsions:
REMARK  status: ('A' for Active; 'I' for Inactive)
REMARK    1  A    between atoms: C_5  and  C_6
REMARK    2  A    between atoms: C_11  and  C_12
REMARK    3  A    between atoms: C_23  and  C_24
REMARK                            x       y       z     vdW  Elec       q    Type
REMARK                         _______ _______ _______ _____ _____    ______ ____
ROOT
ATOM      1  C   UNL     1       4.426   4.024  17.296  0.00  0.00    +0.000 A 
ATOM      2  C   UNL     1       3.617   4.190  18.424  0.00  0.00    +0.000 A 
ATOM      3  C   UNL     1       3.180   5.482  18.770  0.00  0.00    +0.000 A 
ATOM      4  C   UNL     1       2.355   5.990  19.805  0.00  0.00    +0.000 A 
ATOM      5  C   UNL     1       2.227   7.362  19.634  0.00  0.00    +0.000 A 
ATOM      6  N   UNL     1       3.003   7.688  18.538  0.00  0.00    +0.000 N 
ATOM      7  C   UNL     1       3.579   6.563  17.988  0.00  0.00    +0.000 A 
ATOM      8  C   UNL     1       4.409   6.424  16.867  0.00  0.00    +0.000 A 
ATOM      9  C   UNL     1       4.813   5.125  16.525  0.00  0.00    +0.000 A 
ATOM     10  H   UNL     1       3.098   8.614  18.157  0.00  0.00    +0.000 HD
ENDROOT
BRANCH   5  11
ATOM     11  C   UNL     1       1.429   8.343  20.376  0.00  0.00    +0.000 A 
ATOM     12  C   UNL     1       1.434   8.364  21.775  0.00  0.00    +0.000 A 
ATOM     13  C   UNL     1       0.703   9.319  22.494  0.00  0.00    +0.000 A 
ATOM     14  C   UNL     1      -0.063  10.270  21.793  0.00  0.00    +0.000 A 
ATOM     15  C   UNL     1      -0.905  11.343  22.189  0.00  0.00    +0.000 A 
ATOM     16  C   UNL     1      -1.424  11.928  21.053  0.00  0.00    +0.000 A 
ATOM     17  N   UNL     1      -0.906  11.241  19.978  0.00  0.00    +0.000 N 
ATOM     18  C   UNL     1      -0.077  10.228  20.401  0.00  0.00    +0.000 A 
ATOM     19  C   UNL     1       0.653   9.281  19.670  0.00  0.00    +0.000 A 
ATOM     20  H   UNL     1      -1.134  11.460  19.017  0.00  0.00    +0.000 HD
BRANCH  16  21
ATOM     21  C   UNL     1      -2.350  13.019  20.924  0.00  0.00    +0.000 C 
ATOM     22  N   UNL     1      -1.902  14.246  21.008  0.00  0.00    +0.000 NA
ATOM     23  C   UNL     1      -3.113  15.103  20.888  0.00  0.00    +0.000 C 
ATOM     24  C   UNL     1      -4.317  14.173  20.729  0.00  0.00    +0.000 C 
ATOM     25  N   UNL     1      -3.698  12.874  20.723  0.00  0.00    +0.000 N 
ATOM     26  H   UNL     1      -4.142  12.132  21.248  0.00  0.00    +0.000 HD
ENDBRANCH  16  21
ENDBRANCH   5  11
BRANCH   9  27
ATOM     27  C   UNL     1       5.683   4.903  15.346  0.00  0.00    +0.000 C 
ATOM     28  N   UNL     1       6.836   5.510  15.208  0.00  0.00    +0.000 NA
ATOM     29  C   UNL     1       7.373   5.022  13.904  0.00  0.00    +0.000 C 
ATOM     30  C   UNL     1       6.375   3.997  13.352  0.00  0.00    +0.000 C 
ATOM     31  N   UNL     1       5.343   4.033  14.347  0.00  0.00    +0.000 N 
ATOM     32  H   UNL     1       4.379   3.829  14.119  0.00  0.00    +0.000 HD
ENDBRANCH   9  27
TORSDOF 3
ENDMDL
MODEL 9
REMARK VINA RESULT:      -8.0      1.587     10.998
REMARK  Name = 
REMARK  3 active torsions:
REMARK  status: ('A' for Active; 'I' for Inactive)
REMARK    1  A    between atoms: C_5  and  C_6
REMARK    2  A    between atoms: C_11  and  C_12
REMARK    3  A    between atoms: C_23  and  C_24
REMARK                            x       y       z     vdW  Elec       q    Type
REMARK                         _______ _______ _______ _____ _____    ______ ____
ROOT
ATOM      1  C   UNL     1       3.932   5.145  18.804  0.00  0.00    +0.000 A 
ATOM      2  C   UNL     1       3.116   5.670  19.811  0.00  0.00    +0.000 A 
ATOM      3  C   UNL     1       2.498   6.918  19.613  0.00  0.00    +0.000 A 
ATOM      4  C   UNL     1       1.617   7.706  20.394  0.00  0.00    +0.000 A 
ATOM      5  C   UNL     1       1.289   8.847  19.674  0.00  0.00    +0.000 A 
ATOM      6  N   UNL     1       2.001   8.774  18.492  0.00  0.00    +0.000 N 
ATOM      7  C   UNL     1       2.730   7.606  18.425  0.00  0.00    +0.000 A 
ATOM      8  C   UNL     1       3.562   7.113  17.411  0.00  0.00    +0.000 A 
ATOM      9  C   UNL     1       4.148   5.854  17.617  0.00  0.00    +0.000 A 
ATOM     10  H   UNL     1       1.956   9.455  17.751  0.00  0.00    +0.000 HD
ENDROOT
BRANCH   5  11
ATOM     11  C   UNL     1       0.362   9.939  19.989  0.00  0.00    +0.000 A 
ATOM     12  C   UNL     1      -0.523  10.433  19.025  0.00  0.00    +0.000 A 
ATOM     13  C   UNL     1      -1.436  11.452  19.325  0.00  0.00    +0.000 A 
ATOM     14  C   UNL     1      -1.454  12.000  20.621  0.00  0.00    +0.000 A 
ATOM     15  C   UNL     1      -2.219  13.018  21.251  0.00  0.00    +0.000 A 
ATOM     16  C   UNL     1      -1.778  13.150  22.551  0.00  0.00    +0.000 A 
ATOM     17  N   UNL     1      -0.773  12.225  22.727  0.00  0.00    +0.000 N 
ATOM     18  C   UNL     1      -0.556  11.515  21.569  0.00  0.00    +0.000 A 
ATOM     19  C   UNL     1       0.359  10.493  21.283  0.00  0.00    +0.000 A 
ATOM     20  H   UNL     1      -0.264  12.115  23.595  0.00  0.00    +0.000 HD
BRANCH  16  21
ATOM     21  C   UNL     1      -2.204  14.061  23.577  0.00  0.00    +0.000 C 
ATOM     22  N   UNL     1      -3.480  14.322  23.704  0.00  0.00    +0.000 NA
ATOM     23  C   UNL     1      -3.555  15.325  24.803  0.00  0.00    +0.000 C 
ATOM     24  C   UNL     1      -2.125  15.596  25.273  0.00  0.00    +0.000 C 
ATOM     25  N   UNL     1      -1.359  14.700  24.447  0.00  0.00    +0.000 N 
ATOM     26  H   UNL     1      -0.495  15.041  24.049  0.00  0.00    +0.000 HD
ENDBRANCH  16  21
ENDBRANCH   5  11
BRANCH   9  27
ATOM     27  C   UNL     1       5.032   5.268  16.584  0.00  0.00    +0.000 C 
ATOM     28  N   UNL     1       5.117   3.974  16.393  0.00  0.00    +0.000 NA
ATOM     29  C   UNL     1       6.107   3.814  15.288  0.00  0.00    +0.000 C 
ATOM     30  C   UNL     1       6.525   5.219  14.838  0.00  0.00    +0.000 C 
ATOM     31  N   UNL     1       5.791   6.045  15.753  0.00  0.00    +0.000 N 
ATOM     32  H   UNL     1       6.129   6.957  16.031  0.00  0.00    +0.000 HD
ENDBRANCH   9  27
TORSDOF 3
ENDMDL
