MODEL 1
REMARK VINA RESULT:      -6.0      0.000      0.000
REMARK  Name = 
REMARK  5 active torsions:
REMARK  status: ('A' for Active; 'I' for Inactive)
REMARK    1  A    between atoms: N_1  and  CA_2
REMARK    2  A    between atoms: CA_2  and  C_3
REMARK    3  A    between atoms: CA_2  and  C_11
REMARK    4  A    between atoms: C_3  and  C_4
REMARK    5  A    between atoms: C_11  and  OXT_13
REMARK                            x       y       z     vdW  Elec       q    Type
REMARK                         _______ _______ _______ _____ _____    ______ ____
ROOT
ATOM      1  CA  UNL     1       5.664   5.240  16.636  0.00  0.00    +0.000 C 
ENDROOT
BRANCH   1   2
ATOM      2  N   UNL     1       5.931   6.043  15.442  0.00  0.00    +0.000 NA
ATOM      3  H1  UNL     1       6.461   5.469  14.748  0.00  0.00    +0.000 HD
ATOM      4  H2  UNL     1       5.035   6.358  15.003  0.00  0.00    +0.000 HD
ENDBRANCH   1   2
BRANCH   1   5
ATOM      5  C   UNL     1       6.946   4.604  17.133  0.00  0.00    +0.000 C 
ATOM      6  O   UNL     1       7.897   4.475  16.377  0.00  0.00    +0.000 OA
BRANCH   5   7
ATOM      7  OXT UNL     1       7.057   4.176  18.409  0.00  0.00    +0.000 OA
ATOM      8  HXT UNL     1       7.916   3.986  18.813  0.00  0.00    +0.000 HD
ENDBRANCH   5   7
ENDBRANCH   1   5
BRANCH   1   9
ATOM      9  C   UNL     1       4.610   4.155  16.338  0.00  0.00    +0.000 C 
BRANCH   9  10
ATOM     10  C   UNL     1       3.500   4.111  17.365  0.00  0.00    +0.000 A 
ATOM     11  C   UNL     1       3.291   5.199  18.232  0.00  0.00    +0.000 A 
ATOM     12  C   UNL     1       2.257   5.165  19.174  0.00  0.00    +0.000 A 
ATOM     13  C   UNL     1       1.421   4.049  19.258  0.00  0.00    +0.000 A 
ATOM     14  F   UNL     1       0.420   4.019  20.171  0.00  0.00    +0.000 F 
ATOM     15  C   UNL     1       1.618   2.964  18.400  0.00  0.00    +0.000 A 
ATOM     16  C   UNL     1       2.651   2.993  17.456  0.00  0.00    +0.000 A 
ENDBRANCH   9  10
ENDBRANCH   1   9
TORSDOF 5
ENDMDL
MODEL 2
REMARK VINA RESULT:      -6.0      1.791      2.091
REMARK  Name = 
REMARK  5 active torsions:
REMARK  status: ('A' for Active; 'I' for Inactive)
REMARK    1  A    between atoms: N_1  and  CA_2
REMARK    2  A    between atoms: CA_2  and  C_3
REMARK    3  A    between atoms: CA_2  and  C_11
REMARK    4  A    between atoms: C_3  and  C_4
REMARK    5  A    between atoms: C_11  and  OXT_13
REMARK                            x       y       z     vdW  Elec       q    Type
REMARK                         _______ _______ _______ _____ _____    ______ ____
ROOT
ATOM      1  CA  UNL     1       6.599   4.320  16.271  0.00  0.00    +0.000 C 
ENDROOT
BRANCH   1   2
ATOM      2  N   UNL     1       7.834   4.374  17.054  0.00  0.00    +0.000 NA
ATOM      3  H1  UNL     1       7.622   4.149  18.053  0.00  0.00    +0.000 HD
ATOM      4  H2  UNL     1       8.529   3.681  16.694  0.00  0.00    +0.000 HD
ENDBRANCH   1   2
BRANCH   1   5
ATOM      5  C   UNL     1       6.910   4.474  14.796  0.00  0.00    +0.000 C 
ATOM      6  O   UNL     1       7.612   5.398  14.413  0.00  0.00    +0.000 OA
BRANCH   5   7
ATOM      7  OXT UNL     1       6.422   3.599  13.891  0.00  0.00    +0.000 OA
ATOM      8  HXT UNL     1       5.738   2.954  14.118  0.00  0.00    +0.000 HD
ENDBRANCH   5   7
ENDBRANCH   1   5
BRANCH   1   9
ATOM      9  C   UNL     1       5.617   5.419  16.726  0.00  0.00    +0.000 C 
BRANCH   9  10
ATOM     10  C   UNL     1       4.293   4.866  17.205  0.00  0.00    +0.000 A 
ATOM     11  C   UNL     1       3.348   5.712  17.816  0.00  0.00    +0.000 A 
ATOM     12  C   UNL     1       2.119   5.205  18.247  0.00  0.00    +0.000 A 
ATOM     13  C   UNL     1       1.817   3.852  18.072  0.00  0.00    +0.000 A 
ATOM     14  F   UNL     1       0.624   3.364  18.491  0.00  0.00    +0.000 F 
ATOM     15  C   UNL     1       2.746   3.004  17.464  0.00  0.00    +0.000 A 
ATOM     16  C   UNL     1       3.978   3.506  17.030  0.00  0.00    +0.000 A 
ENDBRANCH   9  10
ENDBRANCH   1   9
TORSDOF 5
ENDMDL
MODEL 3
REMARK VINA RESULT:      -6.0      0.390      1.392
REMARK  Name = 
REMARK  5 active torsions:
REMARK  status: ('A' for Active; 'I' for Inactive)
REMARK    1  A    between atoms: N_1  and  CA_2
REMARK    2  A    between atoms: CA_2  and  C_3
REMARK    3  A    between atoms: CA_2  and  C_11
REMARK    4  A    between atoms: C_3  and  C_4
REMARK    5  A    between atoms: C_11  and  OXT_13
REMARK                            x       y       z     vdW  Elec       q    Type
REMARK                         _______ _______ _______ _____ _____    ______ ____
ROOT
ATOM      1  CA  UNL     1       5.829   5.464  16.921  0.00  0.00    +0.000 C 
ENDROOT
BRANCH   1   2
ATOM      2  N   UNL     1       5.947   6.632  16.048  0.00  0.00    +0.000 NA
ATOM      3  H1  UNL     1       5.532   7.465  16.524  0.00  0.00    +0.000 HD
ATOM      4  H2  UNL     1       6.951   6.832  15.836  0.00  0.00    +0.000 HD
ENDBRANCH   1   2
BRANCH   1   5
ATOM      5  C   UNL     1       7.150   4.725  16.987  0.00  0.00    +0.000 C 
ATOM      6  O   UNL     1       7.831   4.601  15.980  0.00  0.00    +0.000 OA
BRANCH   5   7
ATOM      7  OXT UNL     1       7.593   4.200  18.149  0.00  0.00    +0.000 OA
ATOM      8  HXT UNL     1       8.535   4.145  18.361  0.00  0.00    +0.000 HD
ENDBRANCH   5   7
ENDBRANCH   1   5
BRANCH   1   9
ATOM      9  C   UNL     1       4.715   4.521  16.421  0.00  0.00    +0.000 C 
BRANCH   9  10
ATOM     10  C   UNL     1       3.578   4.375  17.408  0.00  0.00    +0.000 A 
ATOM     11  C   UNL     1       2.703   3.275  17.327  0.00  0.00    +0.000 A 
ATOM     12  C   UNL     1       1.659   3.131  18.245  0.00  0.00    +0.000 A 
ATOM     13  C   UNL     1       1.478   4.080  19.255  0.00  0.00    +0.000 A 
ATOM     14  F   UNL     1       0.465   3.938  20.145  0.00  0.00    +0.000 F 
ATOM     15  C   UNL     1       2.343   5.173  19.347  0.00  0.00    +0.000 A 
ATOM     16  C   UNL     1       3.389   5.322  18.431  0.00  0.00    +0.000 A 
ENDBRANCH   9  10
ENDBRANCH   1   9
TORSDOF 5
ENDMDL
MODEL 4
REMARK VINA RESULT:      -5.9      1.819      2.269
REMARK  Name = 
REMARK  5 active torsions:
REMARK  status: ('A' for Active; 'I' for Inactive)
REMARK    1  A    between atoms: N_1  and  CA_2
REMARK    2  A    between atoms: CA_2  and  C_3
REMARK    3  A    between atoms: CA_2  and  C_11
REMARK    4  A    between atoms: C_3  and  C_4
REMARK    5  A    between atoms: C_11  and  OXT_13
REMARK                            x       y       z     vdW  Elec       q    Type
REMARK                         _______ _______ _______ _____ _____    ______ ____
ROOT
ATOM      1  CA  UNL     1       6.190   4.564  17.061  0.00  0.00    +0.000 C 
ENDROOT
BRANCH   1   2
ATOM      2  N   UNL     1       7.396   4.350  17.861  0.00  0.00    +0.000 NA
ATOM      3  H1  UNL     1       7.535   3.325  18.015  0.00  0.00    +0.000 HD
ATOM      4  H2  UNL     1       8.237   4.732  17.370  0.00  0.00    +0.000 HD
ENDBRANCH   1   2
BRANCH   1   5
ATOM      5  C   UNL     1       6.506   5.440  15.866  0.00  0.00    +0.000 C 
ATOM      6  O   UNL     1       7.579   5.326  15.292  0.00  0.00    +0.000 OA
BRANCH   5   7
ATOM      7  OXT UNL     1       5.613   6.349  15.419  0.00  0.00    +0.000 OA
ATOM      8  HXT UNL     1       5.791   6.905  14.647  0.00  0.00    +0.000 HD
ENDBRANCH   5   7
ENDBRANCH   1   5
BRANCH   1   9
ATOM      9  C   UNL     1       5.078   5.206  17.914  0.00  0.00    +0.000 C 
BRANCH   9  10
ATOM     10  C   UNL     1       3.859   4.322  18.058  0.00  0.00    +0.000 A 
ATOM     11  C   UNL     1       4.002   2.962  18.389  0.00  0.00    +0.000 A 
ATOM     12  C   UNL     1       2.876   2.146  18.535  0.00  0.00    +0.000 A 
ATOM     13  C   UNL     1       1.596   2.678  18.356  0.00  0.00    +0.000 A 
ATOM     14  F   UNL     1       0.506   1.886  18.500  0.00  0.00    +0.000 F 
ATOM     15  C   UNL     1       1.442   4.029  18.031  0.00  0.00    +0.000 A 
ATOM     16  C   UNL     1       2.565   4.849  17.884  0.00  0.00    +0.000 A 
ENDBRANCH   9  10
ENDBRANCH   1   9
TORSDOF 5
ENDMDL
MODEL 5
REMARK VINA RESULT:      -5.9      1.434      2.291
REMARK  Name = 
REMARK  5 active torsions:
REMARK  status: ('A' for Active; 'I' for Inactive)
REMARK    1  A    between atoms: N_1  and  CA_2
REMARK    2  A    between atoms: CA_2  and  C_3
REMARK    3  A    between atoms: CA_2  and  C_11
REMARK    4  A    between atoms: C_3  and  C_4
REMARK    5  A    between atoms: C_11  and  OXT_13
REMARK                            x       y       z     vdW  Elec       q    Type
REMARK                         _______ _______ _______ _____ _____    ______ ____
ROOT
ATOM      1  CA  UNL     1       6.753   6.492  17.557  0.00  0.00    +0.000 C 
ENDROOT
BRANCH   1   2
ATOM      2  N   UNL     1       7.636   7.572  17.117  0.00  0.00    +0.000 NA
ATOM      3  H1  UNL     1       8.495   7.165  16.682  0.00  0.00    +0.000 HD
ATOM      4  H2  UNL     1       7.155   8.175  16.410  0.00  0.00    +0.000 HD
ENDBRANCH   1   2
BRANCH   1   5
ATOM      5  C   UNL     1       7.571   5.283  17.962  0.00  0.00    +0.000 C 
ATOM      6  O   UNL     1       7.863   5.107  19.136  0.00  0.00    +0.000 OA
BRANCH   5   7
ATOM      7  OXT UNL     1       7.984   4.386  17.041  0.00  0.00    +0.000 OA
ATOM      8  HXT UNL     1       8.663   3.724  17.237  0.00  0.00    +0.000 HD
ENDBRANCH   5   7
ENDBRANCH   1   5
BRANCH   1   9
ATOM      9  C   UNL     1       5.757   6.113  16.442  0.00  0.00    +0.000 C 
BRANCH   9  10
ATOM     10  C   UNL     1       4.496   5.466  16.971  0.00  0.00    +0.000 A 
ATOM     11  C   UNL     1       4.260   4.094  16.763  0.00  0.00    +0.000 A 
ATOM     12  C   UNL     1       3.100   3.492  17.262  0.00  0.00    +0.000 A 
ATOM     13  C   UNL     1       2.168   4.250  17.975  0.00  0.00    +0.000 A 
ATOM     14  F   UNL     1       1.045   3.664  18.459  0.00  0.00    +0.000 F 
ATOM     15  C   UNL     1       2.395   5.612  18.190  0.00  0.00    +0.000 A 
ATOM     16  C   UNL     1       3.553   6.220  17.693  0.00  0.00    +0.000 A 
ENDBRANCH   9  10
ENDBRANCH   1   9
TORSDOF 5
ENDMDL
MODEL 6
REMARK VINA RESULT:      -5.9      1.746      2.068
REMARK  Name = 
REMARK  5 active torsions:
REMARK  status: ('A' for Active; 'I' for Inactive)
REMARK    1  A    between atoms: N_1  and  CA_2
REMARK    2  A    between atoms: CA_2  and  C_3
REMARK    3  A    between atoms: CA_2  and  C_11
REMARK    4  A    between atoms: C_3  and  C_4
REMARK    5  A    between atoms: C_11  and  OXT_13
REMARK                            x       y       z     vdW  Elec       q    Type
REMARK                         _______ _______ _______ _____ _____    ______ ____
ROOT
ATOM      1  CA  UNL     1       6.148   4.554  17.040  0.00  0.00    +0.000 C 
ENDROOT
BRANCH   1   2
ATOM      2  N   UNL     1       7.363   4.326  17.823  0.00  0.00    +0.000 NA
ATOM      3  H1  UNL     1       8.054   3.794  17.246  0.00  0.00    +0.000 HD
ATOM      4  H2  UNL     1       7.793   5.236  18.108  0.00  0.00    +0.000 HD
ENDBRANCH   1   2
BRANCH   1   5
ATOM      5  C   UNL     1       6.457   5.424  15.839  0.00  0.00    +0.000 C 
ATOM      6  O   UNL     1       5.647   6.261  15.467  0.00  0.00    +0.000 OA
BRANCH   5   7
ATOM      7  OXT UNL     1       7.622   5.293  15.170  0.00  0.00    +0.000 OA
ATOM      8  HXT UNL     1       7.696   5.490  14.225  0.00  0.00    +0.000 HD
ENDBRANCH   5   7
ENDBRANCH   1   5
BRANCH   1   9
ATOM      9  C   UNL     1       5.055   5.210  17.908  0.00  0.00    +0.000 C 
BRANCH   9  10
ATOM     10  C   UNL     1       3.830   4.340  18.074  0.00  0.00    +0.000 A 
ATOM     11  C   UNL     1       2.626   4.890  18.552  0.00  0.00    +0.000 A 
ATOM     12  C   UNL     1       1.488   4.089  18.694  0.00  0.00    +0.000 A 
ATOM     13  C   UNL     1       1.538   2.734  18.358  0.00  0.00    +0.000 A 
ATOM     14  F   UNL     1       0.434   1.960  18.496  0.00  0.00    +0.000 F 
ATOM     15  C   UNL     1       2.727   2.178  17.879  0.00  0.00    +0.000 A 
ATOM     16  C   UNL     1       3.869   2.974  17.735  0.00  0.00    +0.000 A 
ENDBRANCH   9  10
ENDBRANCH   1   9
TORSDOF 5
ENDMDL
MODEL 7
REMARK VINA RESULT:      -5.9      1.645      1.761
REMARK  Name = 
REMARK  5 active torsions:
REMARK  status: ('A' for Active; 'I' for Inactive)
REMARK    1  A    between atoms: N_1  and  CA_2
REMARK    2  A    between atoms: CA_2  and  C_3
REMARK    3  A    between atoms: CA_2  and  C_11
REMARK    4  A    between atoms: C_3  and  C_4
REMARK    5  A    between atoms: C_11  and  OXT_13
REMARK                            x       y       z     vdW  Elec       q    Type
REMARK                         _______ _______ _______ _____ _____    ______ ____
ROOT
ATOM      1  CA  UNL     1       5.863   4.540  17.173  0.00  0.00    +0.000 C 
ENDROOT
BRANCH   1   2
ATOM      2  N   UNL     1       5.711   3.317  16.385  0.00  0.00    +0.000 NA
ATOM      3  H1  UNL     1       4.898   3.421  15.735  0.00  0.00    +0.000 HD
ATOM      4  H2  UNL     1       6.571   3.134  15.819  0.00  0.00    +0.000 HD
ENDBRANCH   1   2
BRANCH   1   5
ATOM      5  C   UNL     1       7.324   4.934  17.247  0.00  0.00    +0.000 C 
ATOM      6  O   UNL     1       7.670   6.060  16.922  0.00  0.00    +0.000 OA
BRANCH   5   7
ATOM      7  OXT UNL     1       8.258   4.057  17.672  0.00  0.00    +0.000 OA
ATOM      8  HXT UNL     1       9.186   4.309  17.784  0.00  0.00    +0.000 HD
ENDBRANCH   5   7
ENDBRANCH   1   5
BRANCH   1   9
ATOM      9  C   UNL     1       5.291   4.347  18.593  0.00  0.00    +0.000 C 
BRANCH   9  10
ATOM     10  C   UNL     1       3.892   3.772  18.593  0.00  0.00    +0.000 A 
ATOM     11  C   UNL     1       2.825   4.497  18.031  0.00  0.00    +0.000 A 
ATOM     12  C   UNL     1       1.534   3.960  18.018  0.00  0.00    +0.000 A 
ATOM     13  C   UNL     1       1.294   2.696  18.562  0.00  0.00    +0.000 A 
ATOM     14  F   UNL     1       0.041   2.178  18.548  0.00  0.00    +0.000 F 
ATOM     15  C   UNL     1       2.347   1.966  19.119  0.00  0.00    +0.000 A 
ATOM     16  C   UNL     1       3.641   2.497  19.135  0.00  0.00    +0.000 A 
ENDBRANCH   9  10
ENDBRANCH   1   9
TORSDOF 5
ENDMDL
MODEL 8
REMARK VINA RESULT:      -5.8      1.081      1.476
REMARK  Name = 
REMARK  5 active torsions:
REMARK  status: ('A' for Active; 'I' for Inactive)
REMARK    1  A    between atoms: N_1  and  CA_2
REMARK    2  A    between atoms: CA_2  and  C_3
REMARK    3  A    between atoms: CA_2  and  C_11
REMARK    4  A    between atoms: C_3  and  C_4
REMARK    5  A    between atoms: C_11  and  OXT_13
REMARK                            x       y       z     vdW  Elec       q    Type
REMARK                         _______ _______ _______ _____ _____    ______ ____
ROOT
ATOM      1  CA  UNL     1       6.458   5.977  17.257  0.00  0.00    +0.000 C 
ENDROOT
BRANCH   1   2
ATOM      2  N   UNL     1       7.518   6.597  16.461  0.00  0.00    +0.000 NA
ATOM      3  H1  UNL     1       7.140   6.859  15.522  0.00  0.00    +0.000 HD
ATOM      4  H2  UNL     1       7.874   7.460  16.932  0.00  0.00    +0.000 HD
ENDBRANCH   1   2
BRANCH   1   5
ATOM      5  C   UNL     1       7.053   4.990  18.239  0.00  0.00    +0.000 C 
ATOM      6  O   UNL     1       6.735   5.035  19.419  0.00  0.00    +0.000 OA
BRANCH   5   7
ATOM      7  OXT UNL     1       7.933   4.051  17.831  0.00  0.00    +0.000 OA
ATOM      8  HXT UNL     1       8.166   3.291  18.384  0.00  0.00    +0.000 HD
ENDBRANCH   5   7
ENDBRANCH   1   5
BRANCH   1   9
ATOM      9  C   UNL     1       5.435   5.270  16.344  0.00  0.00    +0.000 C 
BRANCH   9  10
ATOM     10  C   UNL     1       4.189   4.831  17.082  0.00  0.00    +0.000 A 
ATOM     11  C   UNL     1       3.416   5.767  17.793  0.00  0.00    +0.000 A 
ATOM     12  C   UNL     1       2.258   5.365  18.465  0.00  0.00    +0.000 A 
ATOM     13  C   UNL     1       1.857   4.027  18.433  0.00  0.00    +0.000 A 
ATOM     14  F   UNL     1       0.733   3.640  19.085  0.00  0.00    +0.000 F 
ATOM     15  C   UNL     1       2.615   3.089  17.727  0.00  0.00    +0.000 A 
ATOM     16  C   UNL     1       3.775   3.486  17.053  0.00  0.00    +0.000 A 
ENDBRANCH   9  10
ENDBRANCH   1   9
TORSDOF 5
ENDMDL
MODEL 9
REMARK VINA RESULT:      -5.8      1.008      1.182
REMARK  Name = 
REMARK  5 active torsions:
REMARK  status: ('A' for Active; 'I' for Inactive)
REMARK    1  A    between atoms: N_1  and  CA_2
REMARK    2  A    between atoms: CA_2  and  C_3
REMARK    3  A    between atoms: CA_2  and  C_11
REMARK    4  A    between atoms: C_3  and  C_4
REMARK    5  A    between atoms: C_11  and  OXT_13
REMARK                            x       y       z     vdW  Elec       q    Type
REMARK                         _______ _______ _______ _____ _____    ______ ____
ROOT
ATOM      1  CA  UNL     1       5.509   5.974  16.619  0.00  0.00    +0.000 C 
ENDROOT
BRANCH   1   2
ATOM      2  N   UNL     1       5.147   6.677  15.387  0.00  0.00    +0.000 NA
ATOM      3  H1  UNL     1       4.168   7.036  15.467  0.00  0.00    +0.000 HD
ATOM      4  H2  UNL     1       5.789   7.486  15.223  0.00  0.00    +0.000 HD
ENDBRANCH   1   2
BRANCH   1   5
ATOM      5  C   UNL     1       7.015   5.861  16.731  0.00  0.00    +0.000 C 
ATOM      6  O   UNL     1       7.538   4.762  16.849  0.00  0.00    +0.000 OA
BRANCH   5   7
ATOM      7  OXT UNL     1       7.797   6.961  16.699  0.00  0.00    +0.000 OA
ATOM      8  HXT UNL     1       8.066   7.423  17.506  0.00  0.00    +0.000 HD
ENDBRANCH   5   7
ENDBRANCH   1   5
BRANCH   1   9
ATOM      9  C   UNL     1       4.864   4.574  16.656  0.00  0.00    +0.000 C 
BRANCH   9  10
ATOM     10  C   UNL     1       3.724   4.475  17.645  0.00  0.00    +0.000 A 
ATOM     11  C   UNL     1       3.787   5.157  18.875  0.00  0.00    +0.000 A 
ATOM     12  C   UNL     1       2.729   5.076  19.784  0.00  0.00    +0.000 A 
ATOM     13  C   UNL     1       1.595   4.319  19.477  0.00  0.00    +0.000 A 
ATOM     14  F   UNL     1       0.570   4.244  20.360  0.00  0.00    +0.000 F 
ATOM     15  C   UNL     1       1.520   3.641  18.257  0.00  0.00    +0.000 A 
ATOM     16  C   UNL     1       2.576   3.718  17.343  0.00  0.00    +0.000 A 
ENDBRANCH   9  10
ENDBRANCH   1   9
TORSDOF 5
ENDMDL
