MODEL 1
REMARK VINA RESULT:      -8.2      0.000      0.000
REMARK  Name = 
REMARK  7 active torsions:
REMARK  status: ('A' for Active; 'I' for Inactive)
REMARK    1  A    between atoms: C_1  and  O_2
REMARK    2  A    between atoms: O_2  and  C_3
REMARK    3  A    between atoms: C_8  and  C_9
REMARK    4  A    between atoms: N_15  and  C_16
REMARK    5  A    between atoms: C_16  and  C_17
REMARK    6  A    between atoms: C_23  and  C_24
REMARK    7  A    between atoms: C_24  and  N_25
REMARK                            x       y       z     vdW  Elec       q    Type
REMARK                         _______ _______ _______ _____ _____    ______ ____
ROOT
ATOM      1  C   UNL     1      -0.322  10.409  22.670  0.00  0.00    +0.000 C 
ATOM      2  O   UNL     1      -0.131  10.081  23.848  0.00  0.00    +0.000 OA
ATOM      3  N   UNL     1      -1.173  11.453  22.343  0.00  0.00    +0.000 N 
ATOM      4  C   UNL     1      -2.103  11.972  23.332  0.00  0.00    +0.000 C 
ATOM      5  C   UNL     1      -3.500  12.352  22.787  0.00  0.00    +0.000 C 
ATOM      6  O   UNL     1      -4.430  12.528  23.579  0.00  0.00    +0.000 OA
ATOM      7  N   UNL     1      -3.608  12.648  21.408  0.00  0.00    +0.000 N 
ATOM      8  C   UNL     1      -2.584  12.103  20.482  0.00  0.00    +0.000 C 
ATOM      9  C   UNL     1      -1.178  12.207  21.078  0.00  0.00    +0.000 C 
ENDROOT
BRANCH   1  15
ATOM     10  C   UNL     1       2.622   7.337  18.308  0.00  0.00    +0.000 A 
ATOM     11  C   UNL     1       2.245   8.462  17.572  0.00  0.00    +0.000 A 
ATOM     12  C   UNL     1       1.520   9.509  18.156  0.00  0.00    +0.000 A 
ATOM     13  C   UNL     1       1.185   9.390  19.507  0.00  0.00    +0.000 A 
ATOM     14  N   UNL     1       0.533  10.263  20.351  0.00  0.00    +0.000 N 
ATOM     15  C   UNL     1       0.363   9.712  21.599  0.00  0.00    +0.000 A 
ATOM     16  C   UNL     1       1.036   8.493  21.579  0.00  0.00    +0.000 A 
ATOM     17  C   UNL     1       1.529   8.272  20.263  0.00  0.00    +0.000 A 
ATOM     18  C   UNL     1       2.249   7.226  19.651  0.00  0.00    +0.000 A 
ATOM     19  H   UNL     1       0.204  11.186  20.099  0.00  0.00    +0.000 HD
BRANCH  10  21
ATOM     20  C   UNL     1       2.925   4.993  18.300  0.00  0.00    +0.000 C 
ATOM     21  O   UNL     1       3.322   6.270  17.807  0.00  0.00    +0.000 OA
ENDBRANCH  10  21
ENDBRANCH   1  15
BRANCH   7  22
ATOM     22  C   UNL     1      -4.938  13.059  20.946  0.00  0.00    +0.000 C 
BRANCH  22  23
ATOM     23  C   UNL     1      -5.088  14.512  20.515  0.00  0.00    +0.000 A 
ATOM     24  C   UNL     1      -4.159  15.480  20.946  0.00  0.00    +0.000 A 
ATOM     25  C   UNL     1      -4.227  16.803  20.493  0.00  0.00    +0.000 A 
ATOM     26  C   UNL     1      -5.229  17.184  19.607  0.00  0.00    +0.000 A 
ATOM     27  C   UNL     1      -6.168  16.246  19.188  0.00  0.00    +0.000 A 
ATOM     28  C   UNL     1      -6.096  14.923  19.636  0.00  0.00    +0.000 A 
ENDBRANCH  22  23
ENDBRANCH   7  22
BRANCH   8  29
ATOM     29  C   UNL     1      -2.565  12.410  18.946  0.00  0.00    +0.000 C 
BRANCH  29  30
ATOM     30  N   UNL     1      -2.478  11.531  17.755  0.00  0.00    +0.000 NA
ATOM     31  C   UNL     1      -3.832  11.569  17.109  0.00  0.00    +0.000 C 
ATOM     32  C   UNL     1      -3.557  11.311  15.619  0.00  0.00    +0.000 C 
ATOM     33  C   UNL     1      -2.924   9.953  15.325  0.00  0.00    +0.000 C 
ATOM     34  C   UNL     1      -1.874   9.572  16.390  0.00  0.00    +0.000 C 
ATOM     35  C   UNL     1      -2.276  10.053  17.824  0.00  0.00    +0.000 C 
ATOM     36  C   UNL     1      -3.638   9.379  18.101  0.00  0.00    +0.000 C 
ATOM     37  C   UNL     1      -4.621  10.514  17.912  0.00  0.00    +0.000 C 
ENDBRANCH  29  30
ENDBRANCH   8  29
TORSDOF 6
ENDMDL
MODEL 2
REMARK VINA RESULT:      -7.8      1.282      2.198
REMARK  Name = 
REMARK  7 active torsions:
REMARK  status: ('A' for Active; 'I' for Inactive)
REMARK    1  A    between atoms: C_1  and  O_2
REMARK    2  A    between atoms: O_2  and  C_3
REMARK    3  A    between atoms: C_8  and  C_9
REMARK    4  A    between atoms: N_15  and  C_16
REMARK    5  A    between atoms: C_16  and  C_17
REMARK    6  A    between atoms: C_23  and  C_24
REMARK    7  A    between atoms: C_24  and  N_25
REMARK                            x       y       z     vdW  Elec       q    Type
REMARK                         _______ _______ _______ _____ _____    ______ ____
ROOT
ATOM      1  C   UNL     1      -0.223  10.447  22.493  0.00  0.00    +0.000 C 
ATOM      2  O   UNL     1      -0.093  10.156  23.689  0.00  0.00    +0.000 OA
ATOM      3  N   UNL     1      -0.981  11.536  22.095  0.00  0.00    +0.000 N 
ATOM      4  C   UNL     1      -1.899  12.166  23.031  0.00  0.00    +0.000 C 
ATOM      5  C   UNL     1      -3.246  12.626  22.424  0.00  0.00    +0.000 C 
ATOM      6  O   UNL     1      -4.183  12.905  23.177  0.00  0.00    +0.000 OA
ATOM      7  N   UNL     1      -3.289  12.869  21.032  0.00  0.00    +0.000 N 
ATOM      8  C   UNL     1      -2.283  12.208  20.163  0.00  0.00    +0.000 C 
ATOM      9  C   UNL     1      -0.891  12.232  20.801  0.00  0.00    +0.000 C 
ENDROOT
BRANCH   1  15
ATOM     10  C   UNL     1       2.617   6.981  18.363  0.00  0.00    +0.000 A 
ATOM     11  C   UNL     1       2.287   8.068  17.551  0.00  0.00    +0.000 A 
ATOM     12  C   UNL     1       1.600   9.179  18.060  0.00  0.00    +0.000 A 
ATOM     13  C   UNL     1       1.256   9.163  19.414  0.00  0.00    +0.000 A 
ATOM     14  N   UNL     1       0.635  10.114  20.194  0.00  0.00    +0.000 N 
ATOM     15  C   UNL     1       0.438   9.655  21.474  0.00  0.00    +0.000 A 
ATOM     16  C   UNL     1       1.064   8.412  21.540  0.00  0.00    +0.000 A 
ATOM     17  C   UNL     1       1.554   8.085  20.244  0.00  0.00    +0.000 A 
ATOM     18  C   UNL     1       2.235   6.973  19.708  0.00  0.00    +0.000 A 
ATOM     19  H   UNL     1       0.343  11.031  19.880  0.00  0.00    +0.000 HD
BRANCH  10  21
ATOM     20  C   UNL     1       4.460   5.533  18.663  0.00  0.00    +0.000 C 
ATOM     21  O   UNL     1       3.277   5.857  17.938  0.00  0.00    +0.000 OA
ENDBRANCH  10  21
ENDBRANCH   1  15
BRANCH   7  22
ATOM     22  C   UNL     1      -4.570  13.357  20.509  0.00  0.00    +0.000 C 
BRANCH  22  23
ATOM     23  C   UNL     1      -5.777  12.454  20.721  0.00  0.00    +0.000 A 
ATOM     24  C   UNL     1      -5.964  11.315  19.913  0.00  0.00    +0.000 A 
ATOM     25  C   UNL     1      -7.018  10.424  20.146  0.00  0.00    +0.000 A 
ATOM     26  C   UNL     1      -7.909  10.659  21.188  0.00  0.00    +0.000 A 
ATOM     27  C   UNL     1      -7.754  11.791  21.983  0.00  0.00    +0.000 A 
ATOM     28  C   UNL     1      -6.697  12.678  21.753  0.00  0.00    +0.000 A 
ENDBRANCH  22  23
ENDBRANCH   7  22
BRANCH   8  29
ATOM     29  C   UNL     1      -2.194  12.447  18.617  0.00  0.00    +0.000 C 
BRANCH  29  30
ATOM     30  N   UNL     1      -2.209  11.515  17.464  0.00  0.00    +0.000 NA
ATOM     31  C   UNL     1      -3.597  11.576  16.897  0.00  0.00    +0.000 C 
ATOM     32  C   UNL     1      -3.420  11.245  15.406  0.00  0.00    +0.000 C 
ATOM     33  C   UNL     1      -2.854   9.854  15.136  0.00  0.00    +0.000 C 
ATOM     34  C   UNL     1      -1.755   9.480  16.154  0.00  0.00    +0.000 C 
ATOM     35  C   UNL     1      -2.054  10.035  17.586  0.00  0.00    +0.000 C 
ATOM     36  C   UNL     1      -3.419   9.424  17.971  0.00  0.00    +0.000 C 
ATOM     37  C   UNL     1      -4.372  10.586  17.790  0.00  0.00    +0.000 C 
ENDBRANCH  29  30
ENDBRANCH   8  29
TORSDOF 6
ENDMDL
MODEL 3
REMARK VINA RESULT:      -7.5      2.635      5.376
REMARK  Name = 
REMARK  7 active torsions:
REMARK  status: ('A' for Active; 'I' for Inactive)
REMARK    1  A    between atoms: C_1  and  O_2
REMARK    2  A    between atoms: O_2  and  C_3
REMARK    3  A    between atoms: C_8  and  C_9
REMARK    4  A    between atoms: N_15  and  C_16
REMARK    5  A    between atoms: C_16  and  C_17
REMARK    6  A    between atoms: C_23  and  C_24
REMARK    7  A    between atoms: C_24  and  N_25
REMARK                            x       y       z     vdW  Elec       q    Type
REMARK                         _______ _______ _______ _____ _____    ______ ____
ROOT
ATOM      1  C   UNL     1      -3.753  11.549  16.771  0.00  0.00    +0.000 C 
ATOM      2  O   UNL     1      -3.555  11.504  15.551  0.00  0.00    +0.000 OA
ATOM      3  N   UNL     1      -5.007  11.840  17.286  0.00  0.00    +0.000 N 
ATOM      4  C   UNL     1      -6.032  12.412  16.429  0.00  0.00    +0.000 C 
ATOM      5  C   UNL     1      -6.917  13.495  17.091  0.00  0.00    +0.000 C 
ATOM      6  O   UNL     1      -7.610  14.226  16.379  0.00  0.00    +0.000 OA
ATOM      7  N   UNL     1      -7.019  13.486  18.501  0.00  0.00    +0.000 N 
ATOM      8  C   UNL     1      -5.937  12.842  19.289  0.00  0.00    +0.000 C 
ATOM      9  C   UNL     1      -5.482  11.529  18.645  0.00  0.00    +0.000 C 
ENDROOT
BRANCH   1  15
ATOM     10  C   UNL     1       0.734  10.213  20.672  0.00  0.00    +0.000 A 
ATOM     11  C   UNL     1       0.887  11.600  20.624  0.00  0.00    +0.000 A 
ATOM     12  C   UNL     1       0.050  12.401  19.835  0.00  0.00    +0.000 A 
ATOM     13  C   UNL     1      -0.948  11.764  19.095  0.00  0.00    +0.000 A 
ATOM     14  N   UNL     1      -1.933  12.281  18.282  0.00  0.00    +0.000 N 
ATOM     15  C   UNL     1      -2.670  11.280  17.697  0.00  0.00    +0.000 A 
ATOM     16  C   UNL     1      -2.211  10.087  18.250  0.00  0.00    +0.000 A 
ATOM     17  C   UNL     1      -1.112  10.381  19.106  0.00  0.00    +0.000 A 
ATOM     18  C   UNL     1      -0.252   9.593  19.898  0.00  0.00    +0.000 A 
ATOM     19  H   UNL     1      -2.099  13.265  18.116  0.00  0.00    +0.000 HD
BRANCH  10  21
ATOM     20  C   UNL     1       1.221   7.977  21.259  0.00  0.00    +0.000 C 
ATOM     21  O   UNL     1       1.516   9.363  21.409  0.00  0.00    +0.000 OA
ENDBRANCH  10  21
ENDBRANCH   1  15
BRANCH   7  22
ATOM     22  C   UNL     1      -7.912  14.494  19.083  0.00  0.00    +0.000 C 
BRANCH  22  23
ATOM     23  C   UNL     1      -7.253  15.768  19.594  0.00  0.00    +0.000 A 
ATOM     24  C   UNL     1      -7.587  16.282  20.863  0.00  0.00    +0.000 A 
ATOM     25  C   UNL     1      -6.932  17.401  21.389  0.00  0.00    +0.000 A 
ATOM     26  C   UNL     1      -5.936  18.033  20.652  0.00  0.00    +0.000 A 
ATOM     27  C   UNL     1      -5.608  17.554  19.387  0.00  0.00    +0.000 A 
ATOM     28  C   UNL     1      -6.259  16.431  18.865  0.00  0.00    +0.000 A 
ENDBRANCH  22  23
ENDBRANCH   7  22
BRANCH   8  29
ATOM     29  C   UNL     1      -5.969  12.718  20.850  0.00  0.00    +0.000 C 
BRANCH  29  30
ATOM     30  N   UNL     1      -4.899  12.496  21.853  0.00  0.00    +0.000 NA
ATOM     31  C   UNL     1      -5.179  13.449  22.978  0.00  0.00    +0.000 C 
ATOM     32  C   UNL     1      -4.595  12.760  24.222  0.00  0.00    +0.000 C 
ATOM     33  C   UNL     1      -3.088  12.524  24.158  0.00  0.00    +0.000 C 
ATOM     34  C   UNL     1      -2.639  12.094  22.745  0.00  0.00    +0.000 C 
ATOM     35  C   UNL     1      -3.458  12.805  21.616  0.00  0.00    +0.000 C 
ATOM     36  C   UNL     1      -3.230  14.315  21.852  0.00  0.00    +0.000 C 
ATOM     37  C   UNL     1      -4.533  14.758  22.482  0.00  0.00    +0.000 C 
ENDBRANCH  29  30
ENDBRANCH   8  29
TORSDOF 6
ENDMDL
MODEL 4
REMARK VINA RESULT:      -7.4      1.411      2.231
REMARK  Name = 
REMARK  7 active torsions:
REMARK  status: ('A' for Active; 'I' for Inactive)
REMARK    1  A    between atoms: C_1  and  O_2
REMARK    2  A    between atoms: O_2  and  C_3
REMARK    3  A    between atoms: C_8  and  C_9
REMARK    4  A    between atoms: N_15  and  C_16
REMARK    5  A    between atoms: C_16  and  C_17
REMARK    6  A    between atoms: C_23  and  C_24
REMARK    7  A    between atoms: C_24  and  N_25
REMARK                            x       y       z     vdW  Elec       q    Type
REMARK                         _______ _______ _______ _____ _____    ______ ____
ROOT
ATOM      1  C   UNL     1      -0.055  10.184  22.649  0.00  0.00    +0.000 C 
ATOM      2  O   UNL     1       0.055   9.815  23.825  0.00  0.00    +0.000 OA
ATOM      3  N   UNL     1      -0.762  11.329  22.318  0.00  0.00    +0.000 N 
ATOM      4  C   UNL     1      -1.655  11.941  23.288  0.00  0.00    +0.000 C 
ATOM      5  C   UNL     1      -2.977  12.497  22.708  0.00  0.00    +0.000 C 
ATOM      6  O   UNL     1      -3.904  12.772  23.474  0.00  0.00    +0.000 OA
ATOM      7  N   UNL     1      -3.002  12.827  21.333  0.00  0.00    +0.000 N 
ATOM      8  C   UNL     1      -2.022  12.176  20.427  0.00  0.00    +0.000 C 
ATOM      9  C   UNL     1      -0.634  12.098  21.068  0.00  0.00    +0.000 C 
ENDROOT
BRANCH   1  15
ATOM     10  C   UNL     1       2.636   6.848  18.318  0.00  0.00    +0.000 A 
ATOM     11  C   UNL     1       2.428   8.024  17.595  0.00  0.00    +0.000 A 
ATOM     12  C   UNL     1       1.818   9.142  18.179  0.00  0.00    +0.000 A 
ATOM     13  C   UNL     1       1.424   9.042  19.515  0.00  0.00    +0.000 A 
ATOM     14  N   UNL     1       0.856   9.974  20.356  0.00  0.00    +0.000 N 
ATOM     15  C   UNL     1       0.575   9.426  21.585  0.00  0.00    +0.000 A 
ATOM     16  C   UNL     1       1.092   8.133  21.561  0.00  0.00    +0.000 A 
ATOM     17  C   UNL     1       1.600   7.876  20.256  0.00  0.00    +0.000 A 
ATOM     18  C   UNL     1       2.206   6.759  19.646  0.00  0.00    +0.000 A 
ATOM     19  H   UNL     1       0.653  10.935  20.114  0.00  0.00    +0.000 HD
BRANCH  10  21
ATOM     20  C   UNL     1       4.636   5.654  17.915  0.00  0.00    +0.000 C 
ATOM     21  O   UNL     1       3.216   5.711  17.817  0.00  0.00    +0.000 OA
ENDBRANCH  10  21
ENDBRANCH   1  15
BRANCH   7  22
ATOM     22  C   UNL     1      -4.257  13.404  20.838  0.00  0.00    +0.000 C 
BRANCH  22  23
ATOM     23  C   UNL     1      -5.504  12.543  20.988  0.00  0.00    +0.000 A 
ATOM     24  C   UNL     1      -6.423  12.797  22.025  0.00  0.00    +0.000 A 
ATOM     25  C   UNL     1      -7.617  12.075  22.130  0.00  0.00    +0.000 A 
ATOM     26  C   UNL     1      -7.912  11.081  21.203  0.00  0.00    +0.000 A 
ATOM     27  C   UNL     1      -7.006  10.800  20.185  0.00  0.00    +0.000 A 
ATOM     28  C   UNL     1      -5.815  11.526  20.078  0.00  0.00    +0.000 A 
ENDBRANCH  22  23
ENDBRANCH   7  22
BRANCH   8  29
ATOM     29  C   UNL     1      -1.915  12.504  18.899  0.00  0.00    +0.000 C 
BRANCH  29  30
ATOM     30  N   UNL     1      -2.581  11.925  17.707  0.00  0.00    +0.000 NA
ATOM     31  C   UNL     1      -3.453  10.815  18.216  0.00  0.00    +0.000 C 
ATOM     32  C   UNL     1      -4.604  10.732  17.200  0.00  0.00    +0.000 C 
ATOM     33  C   UNL     1      -4.163  10.382  15.781  0.00  0.00    +0.000 C 
ATOM     34  C   UNL     1      -2.840  11.086  15.407  0.00  0.00    +0.000 C 
ATOM     35  C   UNL     1      -1.860  11.199  16.621  0.00  0.00    +0.000 C 
ATOM     36  C   UNL     1      -1.620   9.742  17.074  0.00  0.00    +0.000 C 
ATOM     37  C   UNL     1      -2.469   9.632  18.322  0.00  0.00    +0.000 C 
ENDBRANCH  29  30
ENDBRANCH   8  29
TORSDOF 6
ENDMDL
MODEL 5
REMARK VINA RESULT:      -7.4      0.797      1.222
REMARK  Name = 
REMARK  7 active torsions:
REMARK  status: ('A' for Active; 'I' for Inactive)
REMARK    1  A    between atoms: C_1  and  O_2
REMARK    2  A    between atoms: O_2  and  C_3
REMARK    3  A    between atoms: C_8  and  C_9
REMARK    4  A    between atoms: N_15  and  C_16
REMARK    5  A    between atoms: C_16  and  C_17
REMARK    6  A    between atoms: C_23  and  C_24
REMARK    7  A    between atoms: C_24  and  N_25
REMARK                            x       y       z     vdW  Elec       q    Type
REMARK                         _______ _______ _______ _____ _____    ______ ____
ROOT
ATOM      1  C   UNL     1      -0.665  10.754  22.676  0.00  0.00    +0.000 C 
ATOM      2  O   UNL     1      -0.483  10.483  23.869  0.00  0.00    +0.000 OA
ATOM      3  N   UNL     1      -1.569  11.732  22.290  0.00  0.00    +0.000 N 
ATOM      4  C   UNL     1      -2.550  12.232  23.238  0.00  0.00    +0.000 C 
ATOM      5  C   UNL     1      -3.955  12.507  22.649  0.00  0.00    +0.000 C 
ATOM      6  O   UNL     1      -4.911  12.658  23.414  0.00  0.00    +0.000 OA
ATOM      7  N   UNL     1      -4.048  12.742  21.258  0.00  0.00    +0.000 N 
ATOM      8  C   UNL     1      -2.973  12.223  20.375  0.00  0.00    +0.000 C 
ATOM      9  C   UNL     1      -1.589  12.433  20.995  0.00  0.00    +0.000 C 
ENDROOT
BRANCH   1  15
ATOM     10  C   UNL     1       2.422   7.978  18.215  0.00  0.00    +0.000 A 
ATOM     11  C   UNL     1       2.530   6.998  19.203  0.00  0.00    +0.000 A 
ATOM     12  C   UNL     1       1.954   7.169  20.469  0.00  0.00    +0.000 A 
ATOM     13  C   UNL     1       1.262   8.358  20.711  0.00  0.00    +0.000 A 
ATOM     14  N   UNL     1       0.562   8.781  21.820  0.00  0.00    +0.000 N 
ATOM     15  C   UNL     1       0.083  10.057  21.647  0.00  0.00    +0.000 A 
ATOM     16  C   UNL     1       0.390  10.412  20.336  0.00  0.00    +0.000 A 
ATOM     17  C   UNL     1       1.154   9.363  19.752  0.00  0.00    +0.000 A 
ATOM     18  C   UNL     1       1.752   9.175  18.490  0.00  0.00    +0.000 A 
ATOM     19  H   UNL     1       0.419   8.241  22.664  0.00  0.00    +0.000 HD
BRANCH  10  21
ATOM     20  C   UNL     1       4.129   7.076  16.853  0.00  0.00    +0.000 C 
ATOM     21  O   UNL     1       2.965   7.890  16.960  0.00  0.00    +0.000 OA
ENDBRANCH  10  21
ENDBRANCH   1  15
BRANCH   7  22
ATOM     22  C   UNL     1      -5.389  13.054  20.752  0.00  0.00    +0.000 C 
BRANCH  22  23
ATOM     23  C   UNL     1      -5.592  14.454  20.187  0.00  0.00    +0.000 A 
ATOM     24  C   UNL     1      -4.899  15.550  20.739  0.00  0.00    +0.000 A 
ATOM     25  C   UNL     1      -5.004  16.829  20.181  0.00  0.00    +0.000 A 
ATOM     26  C   UNL     1      -5.808  17.038  19.065  0.00  0.00    +0.000 A 
ATOM     27  C   UNL     1      -6.517  15.971  18.520  0.00  0.00    +0.000 A 
ATOM     28  C   UNL     1      -6.408  14.692  19.075  0.00  0.00    +0.000 A 
ENDBRANCH  22  23
ENDBRANCH   7  22
BRANCH   8  29
ATOM     29  C   UNL     1      -2.937  12.471  18.829  0.00  0.00    +0.000 C 
BRANCH  29  30
ATOM     30  N   UNL     1      -2.718  11.560  17.679  0.00  0.00    +0.000 NA
ATOM     31  C   UNL     1      -4.026  11.489  16.949  0.00  0.00    +0.000 C 
ATOM     32  C   UNL     1      -3.639  11.200  15.489  0.00  0.00    +0.000 C 
ATOM     33  C   UNL     1      -2.904   9.878  15.285  0.00  0.00    +0.000 C 
ATOM     34  C   UNL     1      -1.903   9.602  16.428  0.00  0.00    +0.000 C 
ATOM     35  C   UNL     1      -2.427  10.102  17.815  0.00  0.00    +0.000 C 
ATOM     36  C   UNL     1      -3.759   9.350  18.030  0.00  0.00    +0.000 C 
ATOM     37  C   UNL     1      -4.797  10.411  17.738  0.00  0.00    +0.000 C 
ENDBRANCH  29  30
ENDBRANCH   8  29
TORSDOF 6
ENDMDL
MODEL 6
REMARK VINA RESULT:      -7.4      0.776      1.076
REMARK  Name = 
REMARK  7 active torsions:
REMARK  status: ('A' for Active; 'I' for Inactive)
REMARK    1  A    between atoms: C_1  and  O_2
REMARK    2  A    between atoms: O_2  and  C_3
REMARK    3  A    between atoms: C_8  and  C_9
REMARK    4  A    between atoms: N_15  and  C_16
REMARK    5  A    between atoms: C_16  and  C_17
REMARK    6  A    between atoms: C_23  and  C_24
REMARK    7  A    between atoms: C_24  and  N_25
REMARK                            x       y       z     vdW  Elec       q    Type
REMARK                         _______ _______ _______ _____ _____    ______ ____
ROOT
ATOM      1  C   UNL     1      -0.004  10.043  22.641  0.00  0.00    +0.000 C 
ATOM      2  O   UNL     1       0.111   9.640  23.804  0.00  0.00    +0.000 OA
ATOM      3  N   UNL     1      -0.743  11.177  22.342  0.00  0.00    +0.000 N 
ATOM      4  C   UNL     1      -1.659  11.730  23.326  0.00  0.00    +0.000 C 
ATOM      5  C   UNL     1      -2.994  12.266  22.755  0.00  0.00    +0.000 C 
ATOM      6  O   UNL     1      -3.933  12.487  23.524  0.00  0.00    +0.000 OA
ATOM      7  N   UNL     1      -3.021  12.640  21.392  0.00  0.00    +0.000 N 
ATOM      8  C   UNL     1      -2.017  12.048  20.472  0.00  0.00    +0.000 C 
ATOM      9  C   UNL     1      -0.630  11.991  21.119  0.00  0.00    +0.000 C 
ENDROOT
BRANCH   1  15
ATOM     10  C   UNL     1       2.828   6.943  18.224  0.00  0.00    +0.000 A 
ATOM     11  C   UNL     1       2.478   8.087  17.504  0.00  0.00    +0.000 A 
ATOM     12  C   UNL     1       1.786   9.147  18.105  0.00  0.00    +0.000 A 
ATOM     13  C   UNL     1       1.456   9.021  19.456  0.00  0.00    +0.000 A 
ATOM     14  N   UNL     1       0.834   9.901  20.315  0.00  0.00    +0.000 N 
ATOM     15  C   UNL     1       0.655   9.341  21.557  0.00  0.00    +0.000 A 
ATOM     16  C   UNL     1       1.293   8.103  21.518  0.00  0.00    +0.000 A 
ATOM     17  C   UNL     1       1.773   7.885  20.196  0.00  0.00    +0.000 A 
ATOM     18  C   UNL     1       2.459   6.826  19.568  0.00  0.00    +0.000 A 
ATOM     19  H   UNL     1       0.529  10.836  20.076  0.00  0.00    +0.000 HD
BRANCH  10  21
ATOM     20  C   UNL     1       2.742   4.655  17.640  0.00  0.00    +0.000 C 
ATOM     21  O   UNL     1       3.494   5.863  17.707  0.00  0.00    +0.000 OA
ENDBRANCH  10  21
ENDBRANCH   1  15
BRANCH   7  22
ATOM     22  C   UNL     1      -4.290  13.195  20.908  0.00  0.00    +0.000 C 
BRANCH  22  23
ATOM     23  C   UNL     1      -4.418  14.712  20.930  0.00  0.00    +0.000 A 
ATOM     24  C   UNL     1      -3.267  15.523  20.870  0.00  0.00    +0.000 A 
ATOM     25  C   UNL     1      -3.365  16.918  20.801  0.00  0.00    +0.000 A 
ATOM     26  C   UNL     1      -4.615  17.528  20.799  0.00  0.00    +0.000 A 
ATOM     27  C   UNL     1      -5.763  16.743  20.880  0.00  0.00    +0.000 A 
ATOM     28  C   UNL     1      -5.664  15.350  20.943  0.00  0.00    +0.000 A 
ENDBRANCH  22  23
ENDBRANCH   7  22
BRANCH   8  29
ATOM     29  C   UNL     1      -1.911  12.430  18.957  0.00  0.00    +0.000 C 
BRANCH  29  30
ATOM     30  N   UNL     1      -2.603  11.916  17.750  0.00  0.00    +0.000 NA
ATOM     31  C   UNL     1      -3.508  10.817  18.225  0.00  0.00    +0.000 C 
ATOM     32  C   UNL     1      -4.667  10.808  17.216  0.00  0.00    +0.000 C 
ATOM     33  C   UNL     1      -4.248  10.496  15.782  0.00  0.00    +0.000 C 
ATOM     34  C   UNL     1      -2.906  11.170  15.423  0.00  0.00    +0.000 C 
ATOM     35  C   UNL     1      -1.914  11.207  16.632  0.00  0.00    +0.000 C 
ATOM     36  C   UNL     1      -1.719   9.727  17.030  0.00  0.00    +0.000 C 
ATOM     37  C   UNL     1      -2.563   9.600  18.280  0.00  0.00    +0.000 C 
ENDBRANCH  29  30
ENDBRANCH   8  29
TORSDOF 6
ENDMDL
MODEL 7
REMARK VINA RESULT:      -7.3      7.787     11.385
REMARK  Name = 
REMARK  7 active torsions:
REMARK  status: ('A' for Active; 'I' for Inactive)
REMARK    1  A    between atoms: C_1  and  O_2
REMARK    2  A    between atoms: O_2  and  C_3
REMARK    3  A    between atoms: C_8  and  C_9
REMARK    4  A    between atoms: N_15  and  C_16
REMARK    5  A    between atoms: C_16  and  C_17
REMARK    6  A    between atoms: C_23  and  C_24
REMARK    7  A    between atoms: C_24  and  N_25
REMARK                            x       y       z     vdW  Elec       q    Type
REMARK                         _______ _______ _______ _____ _____    ______ ____
ROOT
ATOM      1  C   UNL     1       4.605  16.277  19.095  0.00  0.00    +0.000 C 
ATOM      2  O   UNL     1       4.276  17.238  18.389  0.00  0.00    +0.000 OA
ATOM      3  N   UNL     1       5.776  16.295  19.835  0.00  0.00    +0.000 N 
ATOM      4  C   UNL     1       6.799  17.290  19.557  0.00  0.00    +0.000 C 
ATOM      5  C   UNL     1       8.257  16.779  19.645  0.00  0.00    +0.000 C 
ATOM      6  O   UNL     1       9.165  17.458  19.158  0.00  0.00    +0.000 OA
ATOM      7  N   UNL     1       8.502  15.632  20.435  0.00  0.00    +0.000 N 
ATOM      8  C   UNL     1       7.381  14.694  20.696  0.00  0.00    +0.000 C 
ATOM      9  C   UNL     1       6.082  15.446  20.999  0.00  0.00    +0.000 C 
ENDROOT
BRANCH   1  15
ATOM     10  C   UNL     1       1.073  11.313  19.233  0.00  0.00    +0.000 A 
ATOM     11  C   UNL     1       0.725  11.868  20.466  0.00  0.00    +0.000 A 
ATOM     12  C   UNL     1       1.288  13.071  20.912  0.00  0.00    +0.000 A 
ATOM     13  C   UNL     1       2.213  13.702  20.077  0.00  0.00    +0.000 A 
ATOM     14  N   UNL     1       2.883  14.897  20.220  0.00  0.00    +0.000 N 
ATOM     15  C   UNL     1       3.753  15.107  19.175  0.00  0.00    +0.000 A 
ATOM     16  C   UNL     1       3.539  14.063  18.279  0.00  0.00    +0.000 A 
ATOM     17  C   UNL     1       2.596  13.163  18.851  0.00  0.00    +0.000 A 
ATOM     18  C   UNL     1       2.026  11.946  18.427  0.00  0.00    +0.000 A 
ATOM     19  H   UNL     1       2.773  15.542  20.991  0.00  0.00    +0.000 HD
BRANCH  10  21
ATOM     20  C   UNL     1      -0.719  10.224  18.144  0.00  0.00    +0.000 C 
ATOM     21  O   UNL     1       0.575  10.138  18.733  0.00  0.00    +0.000 OA
ENDBRANCH  10  21
ENDBRANCH   1  15
BRANCH   7  22
ATOM     22  C   UNL     1       9.906  15.216  20.537  0.00  0.00    +0.000 C 
BRANCH  22  23
ATOM     23  C   UNL     1      10.326  14.034  19.674  0.00  0.00    +0.000 A 
ATOM     24  C   UNL     1      10.922  12.900  20.263  0.00  0.00    +0.000 A 
ATOM     25  C   UNL     1      11.237  11.768  19.503  0.00  0.00    +0.000 A 
ATOM     26  C   UNL     1      10.969  11.751  18.138  0.00  0.00    +0.000 A 
ATOM     27  C   UNL     1      10.402  12.870  17.535  0.00  0.00    +0.000 A 
ATOM     28  C   UNL     1      10.082  13.999  18.297  0.00  0.00    +0.000 A 
ENDBRANCH  22  23
ENDBRANCH   7  22
BRANCH   8  29
ATOM     29  C   UNL     1       7.517  13.424  21.602  0.00  0.00    +0.000 C 
BRANCH  29  30
ATOM     30  N   UNL     1       6.825  13.010  22.846  0.00  0.00    +0.000 NA
ATOM     31  C   UNL     1       7.165  14.047  23.876  0.00  0.00    +0.000 C 
ATOM     32  C   UNL     1       5.964  14.047  24.836  0.00  0.00    +0.000 C 
ATOM     33  C   UNL     1       5.734  12.719  25.552  0.00  0.00    +0.000 C 
ATOM     34  C   UNL     1       5.985  11.517  24.615  0.00  0.00    +0.000 C 
ATOM     35  C   UNL     1       7.160  11.775  23.615  0.00  0.00    +0.000 C 
ATOM     36  C   UNL     1       8.386  12.066  24.509  0.00  0.00    +0.000 C 
ATOM     37  C   UNL     1       8.534  13.568  24.401  0.00  0.00    +0.000 C 
ENDBRANCH  29  30
ENDBRANCH   8  29
TORSDOF 6
ENDMDL
MODEL 8
REMARK VINA RESULT:      -7.2      3.603      6.258
REMARK  Name = 
REMARK  7 active torsions:
REMARK  status: ('A' for Active; 'I' for Inactive)
REMARK    1  A    between atoms: C_1  and  O_2
REMARK    2  A    between atoms: O_2  and  C_3
REMARK    3  A    between atoms: C_8  and  C_9
REMARK    4  A    between atoms: N_15  and  C_16
REMARK    5  A    between atoms: C_16  and  C_17
REMARK    6  A    between atoms: C_23  and  C_24
REMARK    7  A    between atoms: C_24  and  N_25
REMARK                            x       y       z     vdW  Elec       q    Type
REMARK                         _______ _______ _______ _____ _____    ______ ____
ROOT
ATOM      1  C   UNL     1       0.709  10.711  18.355  0.00  0.00    +0.000 C 
ATOM      2  O   UNL     1       1.225   9.829  17.658  0.00  0.00    +0.000 OA
ATOM      3  N   UNL     1      -0.636  10.671  18.686  0.00  0.00    +0.000 N 
ATOM      4  C   UNL     1      -1.538   9.785  17.968  0.00  0.00    +0.000 C 
ATOM      5  C   UNL     1      -2.940  10.370  17.672  0.00  0.00    +0.000 C 
ATOM      6  O   UNL     1      -3.661   9.816  16.838  0.00  0.00    +0.000 OA
ATOM      7  N   UNL     1      -3.400  11.420  18.500  0.00  0.00    +0.000 N 
ATOM      8  C   UNL     1      -2.400  12.246  19.223  0.00  0.00    +0.000 C 
ATOM      9  C   UNL     1      -1.277  11.383  19.805  0.00  0.00    +0.000 C 
ENDROOT
BRANCH   1  15
ATOM     10  C   UNL     1       3.997  15.294  20.661  0.00  0.00    +0.000 A 
ATOM     11  C   UNL     1       4.362  15.413  19.319  0.00  0.00    +0.000 A 
ATOM     12  C   UNL     1       3.844  14.552  18.341  0.00  0.00    +0.000 A 
ATOM     13  C   UNL     1       2.946  13.566  18.757  0.00  0.00    +0.000 A 
ATOM     14  N   UNL     1       2.248  12.624  18.032  0.00  0.00    +0.000 N 
ATOM     15  C   UNL     1       1.514  11.807  18.858  0.00  0.00    +0.000 A 
ATOM     16  C   UNL     1       1.660  12.324  20.143  0.00  0.00    +0.000 A 
ATOM     17  C   UNL     1       2.579  13.409  20.091  0.00  0.00    +0.000 A 
ATOM     18  C   UNL     1       3.121  14.279  21.059  0.00  0.00    +0.000 A 
ATOM     19  H   UNL     1       2.270  12.524  17.026  0.00  0.00    +0.000 HD
BRANCH  10  21
ATOM     20  C   UNL     1       3.633  17.192  22.021  0.00  0.00    +0.000 C 
ATOM     21  O   UNL     1       4.466  16.089  21.675  0.00  0.00    +0.000 OA
ENDBRANCH  10  21
ENDBRANCH   1  15
BRANCH   7  22
ATOM     22  C   UNL     1      -4.756  11.906  18.220  0.00  0.00    +0.000 C 
BRANCH  22  23
ATOM     23  C   UNL     1      -5.853  11.431  19.162  0.00  0.00    +0.000 A 
ATOM     24  C   UNL     1      -6.438  10.160  18.989  0.00  0.00    +0.000 A 
ATOM     25  C   UNL     1      -7.386   9.668  19.894  0.00  0.00    +0.000 A 
ATOM     26  C   UNL     1      -7.772  10.440  20.984  0.00  0.00    +0.000 A 
ATOM     27  C   UNL     1      -7.222  11.707  21.159  0.00  0.00    +0.000 A 
ATOM     28  C   UNL     1      -6.271  12.195  20.258  0.00  0.00    +0.000 A 
ENDBRANCH  22  23
ENDBRANCH   7  22
BRANCH   8  29
ATOM     29  C   UNL     1      -2.791  13.396  20.212  0.00  0.00    +0.000 C 
BRANCH  29  30
ATOM     30  N   UNL     1      -3.218  13.387  21.632  0.00  0.00    +0.000 NA
ATOM     31  C   UNL     1      -2.643  14.629  22.247  0.00  0.00    +0.000 C 
ATOM     32  C   UNL     1      -3.617  14.983  23.383  0.00  0.00    +0.000 C 
ATOM     33  C   UNL     1      -3.726  13.917  24.470  0.00  0.00    +0.000 C 
ATOM     34  C   UNL     1      -3.708  12.493  23.873  0.00  0.00    +0.000 C 
ATOM     35  C   UNL     1      -2.762  12.378  22.633  0.00  0.00    +0.000 C 
ATOM     36  C   UNL     1      -1.369  12.794  23.156  0.00  0.00    +0.000 C 
ATOM     37  C   UNL     1      -1.208  14.196  22.608  0.00  0.00    +0.000 C 
ENDBRANCH  29  30
ENDBRANCH   8  29
TORSDOF 6
ENDMDL
MODEL 9
REMARK VINA RESULT:      -7.2      7.858     11.551
REMARK  Name = 
REMARK  7 active torsions:
REMARK  status: ('A' for Active; 'I' for Inactive)
REMARK    1  A    between atoms: C_1  and  O_2
REMARK    2  A    between atoms: O_2  and  C_3
REMARK    3  A    between atoms: C_8  and  C_9
REMARK    4  A    between atoms: N_15  and  C_16
REMARK    5  A    between atoms: C_16  and  C_17
REMARK    6  A    between atoms: C_23  and  C_24
REMARK    7  A    between atoms: C_24  and  N_25
REMARK                            x       y       z     vdW  Elec       q    Type
REMARK                         _______ _______ _______ _____ _____    ______ ____
ROOT
ATOM      1  C   UNL     1       4.507  16.272  18.649  0.00  0.00    +0.000 C 
ATOM      2  O   UNL     1       4.181  17.147  17.837  0.00  0.00    +0.000 OA
ATOM      3  N   UNL     1       5.687  16.364  19.370  0.00  0.00    +0.000 N 
ATOM      4  C   UNL     1       6.717  17.307  18.966  0.00  0.00    +0.000 C 
ATOM      5  C   UNL     1       8.170  16.793  19.100  0.00  0.00    +0.000 C 
ATOM      6  O   UNL     1       9.080  17.398  18.527  0.00  0.00    +0.000 OA
ATOM      7  N   UNL     1       8.413  15.745  20.018  0.00  0.00    +0.000 N 
ATOM      8  C   UNL     1       7.285  14.858  20.399  0.00  0.00    +0.000 C 
ATOM      9  C   UNL     1       5.997  15.656  20.624  0.00  0.00    +0.000 C 
ENDROOT
BRANCH   1  15
ATOM     10  C   UNL     1       0.824  11.554  19.794  0.00  0.00    +0.000 A 
ATOM     11  C   UNL     1       1.442  11.078  18.636  0.00  0.00    +0.000 A 
ATOM     12  C   UNL     1       2.416  11.829  17.965  0.00  0.00    +0.000 A 
ATOM     13  C   UNL     1       2.752  13.076  18.496  0.00  0.00    +0.000 A 
ATOM     14  N   UNL     1       3.690  14.001  18.093  0.00  0.00    +0.000 N 
ATOM     15  C   UNL     1       3.644  15.130  18.877  0.00  0.00    +0.000 A 
ATOM     16  C   UNL     1       2.724  14.862  19.887  0.00  0.00    +0.000 A 
ATOM     17  C   UNL     1       2.140  13.588  19.638  0.00  0.00    +0.000 A 
ATOM     18  C   UNL     1       1.154  12.820  20.291  0.00  0.00    +0.000 A 
ATOM     19  H   UNL     1       4.329  13.888  17.316  0.00  0.00    +0.000 HD
BRANCH  10  21
ATOM     20  C   UNL     1      -1.248  11.677  20.923  0.00  0.00    +0.000 C 
ATOM     21  O   UNL     1      -0.142  10.885  20.501  0.00  0.00    +0.000 OA
ENDBRANCH  10  21
ENDBRANCH   1  15
BRANCH   7  22
ATOM     22  C   UNL     1       9.813  15.328  20.155  0.00  0.00    +0.000 C 
BRANCH  22  23
ATOM     23  C   UNL     1      10.193  14.006  19.500  0.00  0.00    +0.000 A 
ATOM     24  C   UNL     1       9.956  13.799  18.127  0.00  0.00    +0.000 A 
ATOM     25  C   UNL     1      10.376  12.627  17.487  0.00  0.00    +0.000 A 
ATOM     26  C   UNL     1      11.034  11.638  18.210  0.00  0.00    +0.000 A 
ATOM     27  C   UNL     1      11.256  11.815  19.572  0.00  0.00    +0.000 A 
ATOM     28  C   UNL     1      10.841  12.989  20.210  0.00  0.00    +0.000 A 
ENDBRANCH  22  23
ENDBRANCH   7  22
BRANCH   8  29
ATOM     29  C   UNL     1       7.417  13.703  21.449  0.00  0.00    +0.000 C 
BRANCH  29  30
ATOM     30  N   UNL     1       7.786  13.700  22.885  0.00  0.00    +0.000 NA
ATOM     31  C   UNL     1       7.624  12.284  23.354  0.00  0.00    +0.000 C 
ATOM     32  C   UNL     1       8.633  12.140  24.505  0.00  0.00    +0.000 C 
ATOM     33  C   UNL     1       8.371  13.068  25.687  0.00  0.00    +0.000 C 
ATOM     34  C   UNL     1       7.913  14.468  25.222  0.00  0.00    +0.000 C 
ATOM     35  C   UNL     1       7.008  14.405  23.947  0.00  0.00    +0.000 C 
ATOM     36  C   UNL     1       5.810  13.520  24.353  0.00  0.00    +0.000 C 
ATOM     37  C   UNL     1       6.117  12.203  23.673  0.00  0.00    +0.000 C 
ENDBRANCH  29  30
ENDBRANCH   8  29
TORSDOF 6
ENDMDL
