MODEL 1
REMARK VINA RESULT:      -9.0      0.000      0.000
REMARK  Name = 
REMARK  8 active torsions:
REMARK  status: ('A' for Active; 'I' for Inactive)
REMARK    1  A    between atoms: C_1  and  C_2
REMARK    2  A    between atoms: N_5  and  C_6
REMARK    3  A    between atoms: C_6  and  C_7
REMARK    4  A    between atoms: C_6  and  C_8
REMARK    5  A    between atoms: C_12  and  N_13
REMARK    6  A    between atoms: C_14  and  C_16
REMARK    7  A    between atoms: N_19  and  C_20
REMARK    8  A    between atoms: C_24  and  C_25
REMARK                            x       y       z     vdW  Elec       q    Type
REMARK                         _______ _______ _______ _____ _____    ______ ____
ROOT
ATOM      1  C   UNL     1       1.078   2.847  20.225  0.00  0.00    +0.000 C 
ATOM      2  C   UNL     1       1.726   4.167  19.946  0.00  0.00    +0.000 A 
ATOM      3  N   UNL     1       1.298   5.249  20.628  0.00  0.00    +0.000 NA
ATOM      4  C   UNL     1       1.942   6.405  20.419  0.00  0.00    +0.000 A 
ATOM      5  N   UNL     1       1.512   7.495  21.164  0.00  0.00    +0.000 N 
ATOM      6  C   UNL     1       3.018   6.475  19.560  0.00  0.00    +0.000 A 
ATOM      7  C   UNL     1       3.383   5.332  18.876  0.00  0.00    +0.000 A 
ATOM      8  N   UNL     1       2.733   4.168  19.056  0.00  0.00    +0.000 NA
ATOM      9  H   UNL     1       0.654   7.251  21.651  0.00  0.00    +0.000 HD
ENDROOT
BRANCH   7  10
ATOM     10  C   UNL     1       4.498   5.322  17.906  0.00  0.00    +0.000 A 
ATOM     11  C   UNL     1       5.734   5.902  18.231  0.00  0.00    +0.000 A 
ATOM     12  C   UNL     1       6.816   5.891  17.338  0.00  0.00    +0.000 A 
ATOM     13  C   UNL     1       6.673   5.291  16.073  0.00  0.00    +0.000 A 
ATOM     14  N   UNL     1       7.646   5.211  15.091  0.00  0.00    +0.000 NA
ATOM     15  C   UNL     1       7.157   4.591  14.041  0.00  0.00    +0.000 A 
ATOM     16  S   UNL     1       5.536   4.058  14.155  0.00  0.00    +0.000 S 
ATOM     17  C   UNL     1       5.446   4.716  15.745  0.00  0.00    +0.000 A 
ATOM     18  C   UNL     1       4.358   4.723  16.637  0.00  0.00    +0.000 A 
ENDBRANCH   7  10
BRANCH   5  19
ATOM     19  C   UNL     1       1.550   8.847  20.609  0.00  0.00    +0.000 C 
ATOM     20  C   UNL     1       1.208   8.818  19.115  0.00  0.00    +0.000 C 
BRANCH  19  21
ATOM     21  C   UNL     1       0.692   9.776  21.465  0.00  0.00    +0.000 A 
ATOM     22  C   UNL     1      -0.028   9.325  22.579  0.00  0.00    +0.000 A 
ATOM     23  C   UNL     1      -0.901  10.178  23.252  0.00  0.00    +0.000 A 
ATOM     24  C   UNL     1      -1.063  11.495  22.832  0.00  0.00    +0.000 A 
ATOM     25  C   UNL     1      -0.342  11.991  21.746  0.00  0.00    +0.000 A 
ATOM     26  C   UNL     1       0.532  11.126  21.071  0.00  0.00    +0.000 A 
BRANCH  25  27
ATOM     27  N   UNL     1      -0.471  13.315  21.282  0.00  0.00    +0.000 N 
ATOM     28  C   UNL     1      -1.029  13.733  20.086  0.00  0.00    +0.000 C 
ATOM     29  O   UNL     1      -1.555  13.019  19.238  0.00  0.00    +0.000 OA
ATOM     30  H   UNL     1      -0.149  14.077  21.874  0.00  0.00    +0.000 HD
BRANCH  28  31
ATOM     31  C   UNL     1      -0.962  15.192  19.892  0.00  0.00    +0.000 A 
ATOM     32  C   UNL     1      -1.634  16.168  20.674  0.00  0.00    +0.000 A 
ATOM     33  C   UNL     1      -1.274  17.379  20.137  0.00  0.00    +0.000 A 
ATOM     34  N   UNL     1      -0.443  17.092  19.096  0.00  0.00    +0.000 N 
ATOM     35  C   UNL     1       0.195  18.047  18.222  0.00  0.00    +0.000 C 
ATOM     36  N   UNL     1      -0.229  15.772  18.916  0.00  0.00    +0.000 NA
ENDBRANCH  28  31
ENDBRANCH  25  27
ENDBRANCH  19  21
ENDBRANCH   5  19
TORSDOF 5
ENDMDL
MODEL 2
REMARK VINA RESULT:      -8.8      4.931      7.012
REMARK  Name = 
REMARK  8 active torsions:
REMARK  status: ('A' for Active; 'I' for Inactive)
REMARK    1  A    between atoms: C_1  and  C_2
REMARK    2  A    between atoms: N_5  and  C_6
REMARK    3  A    between atoms: C_6  and  C_7
REMARK    4  A    between atoms: C_6  and  C_8
REMARK    5  A    between atoms: C_12  and  N_13
REMARK    6  A    between atoms: C_14  and  C_16
REMARK    7  A    between atoms: N_19  and  C_20
REMARK    8  A    between atoms: C_24  and  C_25
REMARK                            x       y       z     vdW  Elec       q    Type
REMARK                         _______ _______ _______ _____ _____    ______ ____
ROOT
ATOM      1  C   UNL     1      -0.438   9.432  23.267  0.00  0.00    +0.000 C 
ATOM      2  C   UNL     1       0.235   9.759  21.971  0.00  0.00    +0.000 A 
ATOM      3  N   UNL     1       0.315  11.053  21.598  0.00  0.00    +0.000 NA
ATOM      4  C   UNL     1       0.987  11.331  20.472  0.00  0.00    +0.000 A 
ATOM      5  N   UNL     1       1.092  12.673  20.131  0.00  0.00    +0.000 N 
ATOM      6  C   UNL     1       1.597  10.333  19.743  0.00  0.00    +0.000 A 
ATOM      7  C   UNL     1       1.451   9.028  20.172  0.00  0.00    +0.000 A 
ATOM      8  N   UNL     1       0.760   8.729  21.287  0.00  0.00    +0.000 NA
ATOM      9  H   UNL     1       0.492  13.222  20.741  0.00  0.00    +0.000 HD
ENDROOT
BRANCH   7  10
ATOM     10  C   UNL     1       2.036   7.890  19.433  0.00  0.00    +0.000 A 
ATOM     11  C   UNL     1       2.570   8.071  18.147  0.00  0.00    +0.000 A 
ATOM     12  C   UNL     1       3.148   7.013  17.429  0.00  0.00    +0.000 A 
ATOM     13  C   UNL     1       3.197   5.727  17.996  0.00  0.00    +0.000 A 
ATOM     14  N   UNL     1       3.729   4.592  17.406  0.00  0.00    +0.000 NA
ATOM     15  C   UNL     1       3.594   3.572  18.221  0.00  0.00    +0.000 A 
ATOM     16  S   UNL     1       2.850   3.891  19.728  0.00  0.00    +0.000 S 
ATOM     17  C   UNL     1       2.666   5.542  19.272  0.00  0.00    +0.000 A 
ATOM     18  C   UNL     1       2.086   6.598  19.997  0.00  0.00    +0.000 A 
ENDBRANCH   7  10
BRANCH   5  19
ATOM     19  C   UNL     1       1.109  13.094  18.731  0.00  0.00    +0.000 C 
ATOM     20  C   UNL     1      -0.320  13.339  18.233  0.00  0.00    +0.000 C 
BRANCH  19  21
ATOM     21  C   UNL     1       2.078  14.260  18.558  0.00  0.00    +0.000 A 
ATOM     22  C   UNL     1       1.647  15.590  18.456  0.00  0.00    +0.000 A 
ATOM     23  C   UNL     1       2.553  16.609  18.167  0.00  0.00    +0.000 A 
ATOM     24  C   UNL     1       3.903  16.321  17.985  0.00  0.00    +0.000 A 
ATOM     25  C   UNL     1       4.376  15.015  18.109  0.00  0.00    +0.000 A 
ATOM     26  C   UNL     1       3.458  13.994  18.396  0.00  0.00    +0.000 A 
BRANCH  25  27
ATOM     27  N   UNL     1       5.731  14.672  17.933  0.00  0.00    +0.000 N 
ATOM     28  C   UNL     1       6.762  14.831  18.844  0.00  0.00    +0.000 C 
ATOM     29  O   UNL     1       6.662  15.257  19.989  0.00  0.00    +0.000 OA
ATOM     30  H   UNL     1       6.018  14.238  17.059  0.00  0.00    +0.000 HD
BRANCH  28  31
ATOM     31  C   UNL     1       8.072  14.410  18.318  0.00  0.00    +0.000 A 
ATOM     32  C   UNL     1       8.437  13.087  17.953  0.00  0.00    +0.000 A 
ATOM     33  C   UNL     1       9.736  13.172  17.516  0.00  0.00    +0.000 A 
ATOM     34  N   UNL     1      10.083  14.483  17.639  0.00  0.00    +0.000 N 
ATOM     35  C   UNL     1      11.360  15.066  17.300  0.00  0.00    +0.000 C 
ATOM     36  N   UNL     1       9.097  15.267  18.122  0.00  0.00    +0.000 NA
ENDBRANCH  28  31
ENDBRANCH  25  27
ENDBRANCH  19  21
ENDBRANCH   5  19
TORSDOF 5
ENDMDL
MODEL 3
REMARK VINA RESULT:      -8.7      3.774     10.235
REMARK  Name = 
REMARK  8 active torsions:
REMARK  status: ('A' for Active; 'I' for Inactive)
REMARK    1  A    between atoms: C_1  and  C_2
REMARK    2  A    between atoms: N_5  and  C_6
REMARK    3  A    between atoms: C_6  and  C_7
REMARK    4  A    between atoms: C_6  and  C_8
REMARK    5  A    between atoms: C_12  and  N_13
REMARK    6  A    between atoms: C_14  and  C_16
REMARK    7  A    between atoms: N_19  and  C_20
REMARK    8  A    between atoms: C_24  and  C_25
REMARK                            x       y       z     vdW  Elec       q    Type
REMARK                         _______ _______ _______ _____ _____    ______ ____
ROOT
ATOM      1  C   UNL     1      -3.023  11.731  17.783  0.00  0.00    +0.000 C 
ATOM      2  C   UNL     1      -1.605  11.544  18.224  0.00  0.00    +0.000 A 
ATOM      3  N   UNL     1      -1.172  10.292  18.477  0.00  0.00    +0.000 NA
ATOM      4  C   UNL     1       0.120  10.137  18.797  0.00  0.00    +0.000 A 
ATOM      5  N   UNL     1       0.552   8.835  19.013  0.00  0.00    +0.000 N 
ATOM      6  C   UNL     1       0.976  11.216  18.836  0.00  0.00    +0.000 A 
ATOM      7  C   UNL     1       0.457  12.472  18.590  0.00  0.00    +0.000 A 
ATOM      8  N   UNL     1      -0.843  12.648  18.291  0.00  0.00    +0.000 NA
ATOM      9  H   UNL     1      -0.253   8.214  19.033  0.00  0.00    +0.000 HD
ENDROOT
BRANCH   7  10
ATOM     10  C   UNL     1       1.292  13.690  18.649  0.00  0.00    +0.000 A 
ATOM     11  C   UNL     1       0.720  14.936  18.952  0.00  0.00    +0.000 A 
ATOM     12  C   UNL     1       1.490  16.105  19.033  0.00  0.00    +0.000 A 
ATOM     13  C   UNL     1       2.876  16.048  18.801  0.00  0.00    +0.000 A 
ATOM     14  N   UNL     1       3.758  17.115  18.840  0.00  0.00    +0.000 NA
ATOM     15  C   UNL     1       4.970  16.692  18.565  0.00  0.00    +0.000 A 
ATOM     16  S   UNL     1       5.143  15.017  18.260  0.00  0.00    +0.000 S 
ATOM     17  C   UNL     1       3.448  14.813  18.497  0.00  0.00    +0.000 A 
ATOM     18  C   UNL     1       2.682  13.637  18.415  0.00  0.00    +0.000 A 
ENDBRANCH   7  10
BRANCH   5  19
ATOM     19  C   UNL     1       1.591   8.541  19.998  0.00  0.00    +0.000 C 
ATOM     20  C   UNL     1       1.092   8.866  21.410  0.00  0.00    +0.000 C 
BRANCH  19  21
ATOM     21  C   UNL     1       2.105   7.119  19.790  0.00  0.00    +0.000 A 
ATOM     22  C   UNL     1       1.886   6.094  20.721  0.00  0.00    +0.000 A 
ATOM     23  C   UNL     1       2.485   4.846  20.557  0.00  0.00    +0.000 A 
ATOM     24  C   UNL     1       3.302   4.596  19.458  0.00  0.00    +0.000 A 
ATOM     25  C   UNL     1       3.520   5.579  18.493  0.00  0.00    +0.000 A 
ATOM     26  C   UNL     1       2.918   6.834  18.667  0.00  0.00    +0.000 A 
BRANCH  25  27
ATOM     27  N   UNL     1       4.338   5.376  17.364  0.00  0.00    +0.000 N 
ATOM     28  C   UNL     1       4.650   4.170  16.760  0.00  0.00    +0.000 C 
ATOM     29  O   UNL     1       4.224   3.065  17.078  0.00  0.00    +0.000 OA
ATOM     30  H   UNL     1       4.747   6.185  16.902  0.00  0.00    +0.000 HD
BRANCH  28  31
ATOM     31  C   UNL     1       5.576   4.312  15.623  0.00  0.00    +0.000 A 
ATOM     32  C   UNL     1       6.787   5.053  15.622  0.00  0.00    +0.000 A 
ATOM     33  C   UNL     1       7.312   4.897  14.364  0.00  0.00    +0.000 A 
ATOM     34  N   UNL     1       6.429   4.110  13.688  0.00  0.00    +0.000 N 
ATOM     35  C   UNL     1       6.550   3.667  12.320  0.00  0.00    +0.000 C 
ATOM     36  N   UNL     1       5.360   3.733  14.422  0.00  0.00    +0.000 NA
ENDBRANCH  28  31
ENDBRANCH  25  27
ENDBRANCH  19  21
ENDBRANCH   5  19
TORSDOF 5
ENDMDL
MODEL 4
REMARK VINA RESULT:      -8.7      1.157      1.191
REMARK  Name = 
REMARK  8 active torsions:
REMARK  status: ('A' for Active; 'I' for Inactive)
REMARK    1  A    between atoms: C_1  and  C_2
REMARK    2  A    between atoms: N_5  and  C_6
REMARK    3  A    between atoms: C_6  and  C_7
REMARK    4  A    between atoms: C_6  and  C_8
REMARK    5  A    between atoms: C_12  and  N_13
REMARK    6  A    between atoms: C_14  and  C_16
REMARK    7  A    between atoms: N_19  and  C_20
REMARK    8  A    between atoms: C_24  and  C_25
REMARK                            x       y       z     vdW  Elec       q    Type
REMARK                         _______ _______ _______ _____ _____    ______ ____
ROOT
ATOM      1  C   UNL     1       1.085   2.607  18.853  0.00  0.00    +0.000 C 
ATOM      2  C   UNL     1       1.815   3.913  18.810  0.00  0.00    +0.000 A 
ATOM      3  N   UNL     1       1.428   4.893  19.652  0.00  0.00    +0.000 NA
ATOM      4  C   UNL     1       2.143   6.027  19.651  0.00  0.00    +0.000 A 
ATOM      5  N   UNL     1       1.752   7.004  20.555  0.00  0.00    +0.000 N 
ATOM      6  C   UNL     1       3.247   6.170  18.838  0.00  0.00    +0.000 A 
ATOM      7  C   UNL     1       3.568   5.134  17.983  0.00  0.00    +0.000 A 
ATOM      8  N   UNL     1       2.847   3.998  17.955  0.00  0.00    +0.000 NA
ATOM      9  H   UNL     1       0.866   6.737  20.977  0.00  0.00    +0.000 HD
ENDROOT
BRANCH   7  10
ATOM     10  C   UNL     1       4.711   5.215  17.049  0.00  0.00    +0.000 A 
ATOM     11  C   UNL     1       5.860   5.946  17.386  0.00  0.00    +0.000 A 
ATOM     12  C   UNL     1       6.966   6.025  16.527  0.00  0.00    +0.000 A 
ATOM     13  C   UNL     1       6.938   5.364  15.286  0.00  0.00    +0.000 A 
ATOM     14  N   UNL     1       7.948   5.357  14.339  0.00  0.00    +0.000 NA
ATOM     15  C   UNL     1       7.571   4.644  13.302  0.00  0.00    +0.000 A 
ATOM     16  S   UNL     1       6.018   3.932  13.390  0.00  0.00    +0.000 S 
ATOM     17  C   UNL     1       5.797   4.638  14.947  0.00  0.00    +0.000 A 
ATOM     18  C   UNL     1       4.685   4.554  15.803  0.00  0.00    +0.000 A 
ENDBRANCH   7  10
BRANCH   5  19
ATOM     19  C   UNL     1       1.883   8.424  20.232  0.00  0.00    +0.000 C 
ATOM     20  C   UNL     1       1.579   8.661  18.749  0.00  0.00    +0.000 C 
BRANCH  19  21
ATOM     21  C   UNL     1       1.060   9.252  21.216  0.00  0.00    +0.000 A 
ATOM     22  C   UNL     1       0.647   8.754  22.459  0.00  0.00    +0.000 A 
ATOM     23  C   UNL     1      -0.214   9.494  23.269  0.00  0.00    +0.000 A 
ATOM     24  C   UNL     1      -0.667  10.744  22.857  0.00  0.00    +0.000 A 
ATOM     25  C   UNL     1      -0.255  11.288  21.641  0.00  0.00    +0.000 A 
ATOM     26  C   UNL     1       0.608  10.536  20.829  0.00  0.00    +0.000 A 
BRANCH  25  27
ATOM     27  N   UNL     1      -0.686  12.547  21.179  0.00  0.00    +0.000 N 
ATOM     28  C   UNL     1      -0.170  13.786  21.517  0.00  0.00    +0.000 C 
ATOM     29  O   UNL     1       0.792  14.000  22.247  0.00  0.00    +0.000 OA
ATOM     30  H   UNL     1      -1.447  12.588  20.504  0.00  0.00    +0.000 HD
BRANCH  28  31
ATOM     31  C   UNL     1      -0.890  14.907  20.888  0.00  0.00    +0.000 A 
ATOM     32  C   UNL     1      -2.222  15.308  21.174  0.00  0.00    +0.000 A 
ATOM     33  C   UNL     1      -2.463  16.387  20.360  0.00  0.00    +0.000 A 
ATOM     34  N   UNL     1      -1.320  16.575  19.645  0.00  0.00    +0.000 N 
ATOM     35  C   UNL     1      -1.089  17.598  18.653  0.00  0.00    +0.000 C 
ATOM     36  N   UNL     1      -0.340  15.695  19.938  0.00  0.00    +0.000 NA
ENDBRANCH  28  31
ENDBRANCH  25  27
ENDBRANCH  19  21
ENDBRANCH   5  19
TORSDOF 5
ENDMDL
MODEL 5
REMARK VINA RESULT:      -8.6      2.421      3.617
REMARK  Name = 
REMARK  8 active torsions:
REMARK  status: ('A' for Active; 'I' for Inactive)
REMARK    1  A    between atoms: C_1  and  C_2
REMARK    2  A    between atoms: N_5  and  C_6
REMARK    3  A    between atoms: C_6  and  C_7
REMARK    4  A    between atoms: C_6  and  C_8
REMARK    5  A    between atoms: C_12  and  N_13
REMARK    6  A    between atoms: C_14  and  C_16
REMARK    7  A    between atoms: N_19  and  C_20
REMARK    8  A    between atoms: C_24  and  C_25
REMARK                            x       y       z     vdW  Elec       q    Type
REMARK                         _______ _______ _______ _____ _____    ______ ____
ROOT
ATOM      1  C   UNL     1       1.549   4.088  20.910  0.00  0.00    +0.000 C 
ATOM      2  C   UNL     1       2.013   5.296  20.158  0.00  0.00    +0.000 A 
ATOM      3  N   UNL     1       1.448   6.486  20.445  0.00  0.00    +0.000 NA
ATOM      4  C   UNL     1       1.930   7.567  19.816  0.00  0.00    +0.000 A 
ATOM      5  N   UNL     1       1.361   8.787  20.159  0.00  0.00    +0.000 N 
ATOM      6  C   UNL     1       2.981   7.464  18.931  0.00  0.00    +0.000 A 
ATOM      7  C   UNL     1       3.493   6.209  18.667  0.00  0.00    +0.000 A 
ATOM      8  N   UNL     1       3.005   5.110  19.272  0.00  0.00    +0.000 NA
ATOM      9  H   UNL     1       0.546   8.624  20.745  0.00  0.00    +0.000 HD
ENDROOT
BRANCH   7  10
ATOM     10  C   UNL     1       4.594   5.998  17.703  0.00  0.00    +0.000 A 
ATOM     11  C   UNL     1       5.870   6.526  17.949  0.00  0.00    +0.000 A 
ATOM     12  C   UNL     1       6.939   6.327  17.062  0.00  0.00    +0.000 A 
ATOM     13  C   UNL     1       6.741   5.583  15.884  0.00  0.00    +0.000 A 
ATOM     14  N   UNL     1       7.695   5.311  14.918  0.00  0.00    +0.000 NA
ATOM     15  C   UNL     1       7.153   4.599  13.957  0.00  0.00    +0.000 A 
ATOM     16  S   UNL     1       5.500   4.199  14.141  0.00  0.00    +0.000 S 
ATOM     17  C   UNL     1       5.473   5.059  15.635  0.00  0.00    +0.000 A 
ATOM     18  C   UNL     1       4.399   5.254  16.521  0.00  0.00    +0.000 A 
ENDBRANCH   7  10
BRANCH   5  19
ATOM     19  C   UNL     1       1.214   9.853  19.169  0.00  0.00    +0.000 C 
ATOM     20  C   UNL     1       0.262   9.412  18.052  0.00  0.00    +0.000 C 
BRANCH  19  21
ATOM     21  C   UNL     1       0.848  11.157  19.872  0.00  0.00    +0.000 A 
ATOM     22  C   UNL     1       1.703  12.267  19.895  0.00  0.00    +0.000 A 
ATOM     23  C   UNL     1       1.388  13.390  20.658  0.00  0.00    +0.000 A 
ATOM     24  C   UNL     1       0.212  13.428  21.403  0.00  0.00    +0.000 A 
ATOM     25  C   UNL     1      -0.680  12.356  21.382  0.00  0.00    +0.000 A 
ATOM     26  C   UNL     1      -0.354  11.228  20.615  0.00  0.00    +0.000 A 
BRANCH  25  27
ATOM     27  N   UNL     1      -1.881  12.346  22.118  0.00  0.00    +0.000 N 
ATOM     28  C   UNL     1      -2.967  13.192  21.964  0.00  0.00    +0.000 C 
ATOM     29  O   UNL     1      -3.089  14.073  21.119  0.00  0.00    +0.000 OA
ATOM     30  H   UNL     1      -2.010  11.639  22.838  0.00  0.00    +0.000 HD
BRANCH  28  31
ATOM     31  C   UNL     1      -4.045  12.936  22.934  0.00  0.00    +0.000 A 
ATOM     32  C   UNL     1      -3.880  12.411  24.243  0.00  0.00    +0.000 A 
ATOM     33  C   UNL     1      -5.144  12.351  24.776  0.00  0.00    +0.000 A 
ATOM     34  N   UNL     1      -5.979  12.815  23.805  0.00  0.00    +0.000 N 
ATOM     35  C   UNL     1      -7.413  12.944  23.899  0.00  0.00    +0.000 C 
ATOM     36  N   UNL     1      -5.347  13.181  22.670  0.00  0.00    +0.000 NA
ENDBRANCH  28  31
ENDBRANCH  25  27
ENDBRANCH  19  21
ENDBRANCH   5  19
TORSDOF 5
ENDMDL
MODEL 6
REMARK VINA RESULT:      -8.6      2.472      2.990
REMARK  Name = 
REMARK  8 active torsions:
REMARK  status: ('A' for Active; 'I' for Inactive)
REMARK    1  A    between atoms: C_1  and  C_2
REMARK    2  A    between atoms: N_5  and  C_6
REMARK    3  A    between atoms: C_6  and  C_7
REMARK    4  A    between atoms: C_6  and  C_8
REMARK    5  A    between atoms: C_12  and  N_13
REMARK    6  A    between atoms: C_14  and  C_16
REMARK    7  A    between atoms: N_19  and  C_20
REMARK    8  A    between atoms: C_24  and  C_25
REMARK                            x       y       z     vdW  Elec       q    Type
REMARK                         _______ _______ _______ _____ _____    ______ ____
ROOT
ATOM      1  C   UNL     1       1.574   3.888  20.895  0.00  0.00    +0.000 C 
ATOM      2  C   UNL     1       2.040   5.105  20.161  0.00  0.00    +0.000 A 
ATOM      3  N   UNL     1       1.479   6.293  20.466  0.00  0.00    +0.000 NA
ATOM      4  C   UNL     1       1.962   7.382  19.852  0.00  0.00    +0.000 A 
ATOM      5  N   UNL     1       1.397   8.598  20.214  0.00  0.00    +0.000 N 
ATOM      6  C   UNL     1       3.012   7.290  18.965  0.00  0.00    +0.000 A 
ATOM      7  C   UNL     1       3.520   6.037  18.681  0.00  0.00    +0.000 A 
ATOM      8  N   UNL     1       3.031   4.931  19.271  0.00  0.00    +0.000 NA
ATOM      9  H   UNL     1       0.583   8.429  20.799  0.00  0.00    +0.000 HD
ENDROOT
BRANCH   7  10
ATOM     10  C   UNL     1       4.619   5.838  17.713  0.00  0.00    +0.000 A 
ATOM     11  C   UNL     1       5.894   6.369  17.959  0.00  0.00    +0.000 A 
ATOM     12  C   UNL     1       6.961   6.180  17.067  0.00  0.00    +0.000 A 
ATOM     13  C   UNL     1       6.762   5.445  15.884  0.00  0.00    +0.000 A 
ATOM     14  N   UNL     1       7.715   5.184  14.913  0.00  0.00    +0.000 NA
ATOM     15  C   UNL     1       7.173   4.477  13.948  0.00  0.00    +0.000 A 
ATOM     16  S   UNL     1       5.522   4.070  14.134  0.00  0.00    +0.000 S 
ATOM     17  C   UNL     1       5.496   4.917  15.635  0.00  0.00    +0.000 A 
ATOM     18  C   UNL     1       4.424   5.102  16.525  0.00  0.00    +0.000 A 
ENDBRANCH   7  10
BRANCH   5  19
ATOM     19  C   UNL     1       1.251   9.678  19.241  0.00  0.00    +0.000 C 
ATOM     20  C   UNL     1       1.500   9.153  17.823  0.00  0.00    +0.000 C 
BRANCH  19  21
ATOM     21  C   UNL     1      -0.083  10.387  19.459  0.00  0.00    +0.000 A 
ATOM     22  C   UNL     1      -1.146  10.290  18.551  0.00  0.00    +0.000 A 
ATOM     23  C   UNL     1      -2.297  11.057  18.720  0.00  0.00    +0.000 A 
ATOM     24  C   UNL     1      -2.410  11.926  19.802  0.00  0.00    +0.000 A 
ATOM     25  C   UNL     1      -1.388  12.029  20.745  0.00  0.00    +0.000 A 
ATOM     26  C   UNL     1      -0.231  11.257  20.566  0.00  0.00    +0.000 A 
BRANCH  25  27
ATOM     27  N   UNL     1      -1.455  12.893  21.856  0.00  0.00    +0.000 N 
ATOM     28  C   UNL     1      -2.326  12.814  22.929  0.00  0.00    +0.000 C 
ATOM     29  O   UNL     1      -3.165  11.941  23.123  0.00  0.00    +0.000 OA
ATOM     30  H   UNL     1      -0.790  13.661  21.921  0.00  0.00    +0.000 HD
BRANCH  28  31
ATOM     31  C   UNL     1      -2.155  13.911  23.897  0.00  0.00    +0.000 A 
ATOM     32  C   UNL     1      -3.143  14.387  24.800  0.00  0.00    +0.000 A 
ATOM     33  C   UNL     1      -2.540  15.401  25.502  0.00  0.00    +0.000 A 
ATOM     34  N   UNL     1      -1.275  15.495  25.007  0.00  0.00    +0.000 N 
ATOM     35  C   UNL     1      -0.255  16.423  25.433  0.00  0.00    +0.000 C 
ATOM     36  N   UNL     1      -1.003  14.604  24.029  0.00  0.00    +0.000 NA
ENDBRANCH  28  31
ENDBRANCH  25  27
ENDBRANCH  19  21
ENDBRANCH   5  19
TORSDOF 5
ENDMDL
MODEL 7
REMARK VINA RESULT:      -8.5      4.407     10.973
REMARK  Name = 
REMARK  8 active torsions:
REMARK  status: ('A' for Active; 'I' for Inactive)
REMARK    1  A    between atoms: C_1  and  C_2
REMARK    2  A    between atoms: N_5  and  C_6
REMARK    3  A    between atoms: C_6  and  C_7
REMARK    4  A    between atoms: C_6  and  C_8
REMARK    5  A    between atoms: C_12  and  N_13
REMARK    6  A    between atoms: C_14  and  C_16
REMARK    7  A    between atoms: N_19  and  C_20
REMARK    8  A    between atoms: C_24  and  C_25
REMARK                            x       y       z     vdW  Elec       q    Type
REMARK                         _______ _______ _______ _____ _____    ______ ____
ROOT
ATOM      1  C   UNL     1      -0.770  13.249  23.180  0.00  0.00    +0.000 C 
ATOM      2  C   UNL     1      -0.860  12.387  21.960  0.00  0.00    +0.000 A 
ATOM      3  N   UNL     1       0.105  11.469  21.750  0.00  0.00    +0.000 NA
ATOM      4  C   UNL     1      -0.033  10.656  20.694  0.00  0.00    +0.000 A 
ATOM      5  N   UNL     1       0.950   9.691  20.523  0.00  0.00    +0.000 N 
ATOM      6  C   UNL     1      -1.136  10.741  19.872  0.00  0.00    +0.000 A 
ATOM      7  C   UNL     1      -2.072  11.723  20.133  0.00  0.00    +0.000 A 
ATOM      8  N   UNL     1      -1.936  12.563  21.175  0.00  0.00    +0.000 NA
ATOM      9  H   UNL     1       1.712   9.869  21.172  0.00  0.00    +0.000 HD
ENDROOT
BRANCH   7  10
ATOM     10  C   UNL     1      -3.265  11.915  19.282  0.00  0.00    +0.000 A 
ATOM     11  C   UNL     1      -3.269  11.481  17.947  0.00  0.00    +0.000 A 
ATOM     12  C   UNL     1      -4.394  11.632  17.122  0.00  0.00    +0.000 A 
ATOM     13  C   UNL     1      -5.557  12.239  17.629  0.00  0.00    +0.000 A 
ATOM     14  N   UNL     1      -6.734  12.460  16.933  0.00  0.00    +0.000 NA
ATOM     15  C   UNL     1      -7.601  13.056  17.720  0.00  0.00    +0.000 A 
ATOM     16  S   UNL     1      -7.088  13.375  19.320  0.00  0.00    +0.000 S 
ATOM     17  C   UNL     1      -5.556  12.674  18.954  0.00  0.00    +0.000 A 
ATOM     18  C   UNL     1      -4.433  12.524  19.786  0.00  0.00    +0.000 A 
ENDBRANCH   7  10
BRANCH   5  19
ATOM     19  C   UNL     1       1.359   9.262  19.187  0.00  0.00    +0.000 C 
ATOM     20  C   UNL     1       2.279  10.310  18.551  0.00  0.00    +0.000 C 
BRANCH  19  21
ATOM     21  C   UNL     1       1.920   7.844  19.253  0.00  0.00    +0.000 A 
ATOM     22  C   UNL     1       1.772   7.026  20.381  0.00  0.00    +0.000 A 
ATOM     23  C   UNL     1       2.413   5.790  20.450  0.00  0.00    +0.000 A 
ATOM     24  C   UNL     1       3.202   5.346  19.393  0.00  0.00    +0.000 A 
ATOM     25  C   UNL     1       3.349   6.116  18.240  0.00  0.00    +0.000 A 
ATOM     26  C   UNL     1       2.705   7.361  18.179  0.00  0.00    +0.000 A 
BRANCH  25  27
ATOM     27  N   UNL     1       4.137   5.712  17.144  0.00  0.00    +0.000 N 
ATOM     28  C   UNL     1       5.518   5.614  17.095  0.00  0.00    +0.000 C 
ATOM     29  O   UNL     1       6.296   5.818  18.020  0.00  0.00    +0.000 OA
ATOM     30  H   UNL     1       3.674   5.433  16.283  0.00  0.00    +0.000 HD
BRANCH  28  31
ATOM     31  C   UNL     1       6.023   5.203  15.774  0.00  0.00    +0.000 A 
ATOM     32  C   UNL     1       5.427   4.242  14.915  0.00  0.00    +0.000 A 
ATOM     33  C   UNL     1       6.233   4.192  13.805  0.00  0.00    +0.000 A 
ATOM     34  N   UNL     1       7.240   5.078  14.037  0.00  0.00    +0.000 N 
ATOM     35  C   UNL     1       8.339   5.378  13.150  0.00  0.00    +0.000 C 
ATOM     36  N   UNL     1       7.147   5.714  15.224  0.00  0.00    +0.000 NA
ENDBRANCH  28  31
ENDBRANCH  25  27
ENDBRANCH  19  21
ENDBRANCH   5  19
TORSDOF 5
ENDMDL
MODEL 8
REMARK VINA RESULT:      -8.4      2.333      3.262
REMARK  Name = 
REMARK  8 active torsions:
REMARK  status: ('A' for Active; 'I' for Inactive)
REMARK    1  A    between atoms: C_1  and  C_2
REMARK    2  A    between atoms: N_5  and  C_6
REMARK    3  A    between atoms: C_6  and  C_7
REMARK    4  A    between atoms: C_6  and  C_8
REMARK    5  A    between atoms: C_12  and  N_13
REMARK    6  A    between atoms: C_14  and  C_16
REMARK    7  A    between atoms: N_19  and  C_20
REMARK    8  A    between atoms: C_24  and  C_25
REMARK                            x       y       z     vdW  Elec       q    Type
REMARK                         _______ _______ _______ _____ _____    ______ ____
ROOT
ATOM      1  C   UNL     1       2.051   4.642  21.152  0.00  0.00    +0.000 C 
ATOM      2  C   UNL     1       2.347   5.704  20.140  0.00  0.00    +0.000 A 
ATOM      3  N   UNL     1       1.662   6.864  20.209  0.00  0.00    +0.000 NA
ATOM      4  C   UNL     1       1.995   7.831  19.342  0.00  0.00    +0.000 A 
ATOM      5  N   UNL     1       1.306   9.030  19.460  0.00  0.00    +0.000 N 
ATOM      6  C   UNL     1       3.017   7.651  18.435  0.00  0.00    +0.000 A 
ATOM      7  C   UNL     1       3.657   6.427  18.405  0.00  0.00    +0.000 A 
ATOM      8  N   UNL     1       3.320   5.438  19.253  0.00  0.00    +0.000 NA
ATOM      9  H   UNL     1       0.537   8.913  20.115  0.00  0.00    +0.000 HD
ENDROOT
BRANCH   7  10
ATOM     10  C   UNL     1       4.737   6.132  17.441  0.00  0.00    +0.000 A 
ATOM     11  C   UNL     1       6.024   6.661  17.623  0.00  0.00    +0.000 A 
ATOM     12  C   UNL     1       7.073   6.382  16.735  0.00  0.00    +0.000 A 
ATOM     13  C   UNL     1       6.844   5.555  15.620  0.00  0.00    +0.000 A 
ATOM     14  N   UNL     1       7.777   5.199  14.660  0.00  0.00    +0.000 NA
ATOM     15  C   UNL     1       7.209   4.425  13.764  0.00  0.00    +0.000 A 
ATOM     16  S   UNL     1       5.556   4.061  14.007  0.00  0.00    +0.000 S 
ATOM     17  C   UNL     1       5.567   5.029  15.433  0.00  0.00    +0.000 A 
ATOM     18  C   UNL     1       4.511   5.304  16.321  0.00  0.00    +0.000 A 
ENDBRANCH   7  10
BRANCH   5  19
ATOM     19  C   UNL     1       1.001   9.842  18.283  0.00  0.00    +0.000 C 
ATOM     20  C   UNL     1      -0.448   9.613  17.841  0.00  0.00    +0.000 C 
BRANCH  19  21
ATOM     21  C   UNL     1       1.390  11.294  18.547  0.00  0.00    +0.000 A 
ATOM     22  C   UNL     1       2.514  11.893  17.961  0.00  0.00    +0.000 A 
ATOM     23  C   UNL     1       2.907  13.177  18.331  0.00  0.00    +0.000 A 
ATOM     24  C   UNL     1       2.183  13.889  19.284  0.00  0.00    +0.000 A 
ATOM     25  C   UNL     1       1.041  13.341  19.867  0.00  0.00    +0.000 A 
ATOM     26  C   UNL     1       0.653  12.046  19.493  0.00  0.00    +0.000 A 
BRANCH  25  27
ATOM     27  N   UNL     1       0.276  14.019  20.836  0.00  0.00    +0.000 N 
ATOM     28  C   UNL     1       0.732  14.616  21.999  0.00  0.00    +0.000 C 
ATOM     29  O   UNL     1       1.900  14.699  22.365  0.00  0.00    +0.000 OA
ATOM     30  H   UNL     1      -0.726  14.120  20.687  0.00  0.00    +0.000 HD
BRANCH  28  31
ATOM     31  C   UNL     1      -0.347  15.200  22.814  0.00  0.00    +0.000 A 
ATOM     32  C   UNL     1      -1.136  16.328  22.467  0.00  0.00    +0.000 A 
ATOM     33  C   UNL     1      -2.008  16.502  23.513  0.00  0.00    +0.000 A 
ATOM     34  N   UNL     1      -1.714  15.520  24.409  0.00  0.00    +0.000 N 
ATOM     35  C   UNL     1      -2.367  15.292  25.675  0.00  0.00    +0.000 C 
ATOM     36  N   UNL     1      -0.709  14.707  24.018  0.00  0.00    +0.000 NA
ENDBRANCH  28  31
ENDBRANCH  25  27
ENDBRANCH  19  21
ENDBRANCH   5  19
TORSDOF 5
ENDMDL
MODEL 9
REMARK VINA RESULT:      -8.3      3.743     10.602
REMARK  Name = 
REMARK  8 active torsions:
REMARK  status: ('A' for Active; 'I' for Inactive)
REMARK    1  A    between atoms: C_1  and  C_2
REMARK    2  A    between atoms: N_5  and  C_6
REMARK    3  A    between atoms: C_6  and  C_7
REMARK    4  A    between atoms: C_6  and  C_8
REMARK    5  A    between atoms: C_12  and  N_13
REMARK    6  A    between atoms: C_14  and  C_16
REMARK    7  A    between atoms: N_19  and  C_20
REMARK    8  A    between atoms: C_24  and  C_25
REMARK                            x       y       z     vdW  Elec       q    Type
REMARK                         _______ _______ _______ _____ _____    ______ ____
ROOT
ATOM      1  C   UNL     1      -2.992  11.116  16.760  0.00  0.00    +0.000 C 
ATOM      2  C   UNL     1      -1.763  11.134  17.614  0.00  0.00    +0.000 A 
ATOM      3  N   UNL     1      -1.050   9.995  17.737  0.00  0.00    +0.000 NA
ATOM      4  C   UNL     1       0.087  10.051  18.443  0.00  0.00    +0.000 A 
ATOM      5  N   UNL     1       0.825   8.877  18.521  0.00  0.00    +0.000 N 
ATOM      6  C   UNL     1       0.522  11.235  18.997  0.00  0.00    +0.000 A 
ATOM      7  C   UNL     1      -0.272  12.356  18.852  0.00  0.00    +0.000 A 
ATOM      8  N   UNL     1      -1.429  12.312  18.166  0.00  0.00    +0.000 NA
ATOM      9  H   UNL     1       0.279   8.111  18.134  0.00  0.00    +0.000 HD
ENDROOT
BRANCH   7  10
ATOM     10  C   UNL     1       0.095  13.659  19.446  0.00  0.00    +0.000 A 
ATOM     11  C   UNL     1       0.251  13.794  20.833  0.00  0.00    +0.000 A 
ATOM     12  C   UNL     1       0.617  15.014  21.423  0.00  0.00    +0.000 A 
ATOM     13  C   UNL     1       0.831  16.145  20.615  0.00  0.00    +0.000 A 
ATOM     14  N   UNL     1       1.188  17.409  21.054  0.00  0.00    +0.000 NA
ATOM     15  C   UNL     1       1.292  18.217  20.024  0.00  0.00    +0.000 A 
ATOM     16  S   UNL     1       0.990  17.534  18.485  0.00  0.00    +0.000 S 
ATOM     17  C   UNL     1       0.674  16.016  19.235  0.00  0.00    +0.000 A 
ATOM     18  C   UNL     1       0.308  14.796  18.639  0.00  0.00    +0.000 A 
ENDBRANCH   7  10
BRANCH   5  19
ATOM     19  C   UNL     1       1.594   8.549  19.720  0.00  0.00    +0.000 C 
ATOM     20  C   UNL     1       0.785   8.885  20.977  0.00  0.00    +0.000 C 
BRANCH  19  21
ATOM     21  C   UNL     1       2.103   7.114  19.626  0.00  0.00    +0.000 A 
ATOM     22  C   UNL     1       1.924   6.181  20.656  0.00  0.00    +0.000 A 
ATOM     23  C   UNL     1       2.519   4.922  20.585  0.00  0.00    +0.000 A 
ATOM     24  C   UNL     1       3.292   4.570  19.482  0.00  0.00    +0.000 A 
ATOM     25  C   UNL     1       3.468   5.458  18.421  0.00  0.00    +0.000 A 
ATOM     26  C   UNL     1       2.870   6.725  18.502  0.00  0.00    +0.000 A 
BRANCH  25  27
ATOM     27  N   UNL     1       4.242   5.150  17.285  0.00  0.00    +0.000 N 
ATOM     28  C   UNL     1       5.541   5.548  17.021  0.00  0.00    +0.000 C 
ATOM     29  O   UNL     1       6.266   6.204  17.762  0.00  0.00    +0.000 OA
ATOM     30  H   UNL     1       3.840   4.553  16.566  0.00  0.00    +0.000 HD
BRANCH  28  31
ATOM     31  C   UNL     1       6.036   5.086  15.713  0.00  0.00    +0.000 A 
ATOM     32  C   UNL     1       5.526   3.989  14.969  0.00  0.00    +0.000 A 
ATOM     33  C   UNL     1       6.283   3.938  13.826  0.00  0.00    +0.000 A 
ATOM     34  N   UNL     1       7.182   4.956  13.929  0.00  0.00    +0.000 N 
ATOM     35  C   UNL     1       8.195   5.305  12.962  0.00  0.00    +0.000 C 
ATOM     36  N   UNL     1       7.062   5.678  15.063  0.00  0.00    +0.000 NA
ENDBRANCH  28  31
ENDBRANCH  25  27
ENDBRANCH  19  21
ENDBRANCH   5  19
TORSDOF 5
ENDMDL
