MODEL 1
REMARK VINA RESULT:      -8.1      0.000      0.000
REMARK  Name = 
REMARK  7 active torsions:
REMARK  status: ('A' for Active; 'I' for Inactive)
REMARK    1  A    between atoms: C_1  and  N_2
REMARK    2  A    between atoms: C_5  and  C_6
REMARK    3  A    between atoms: C_7  and  C_8
REMARK    4  A    between atoms: N_11  and  C_12
REMARK    5  A    between atoms: C_16  and  S_17
REMARK    6  A    between atoms: S_17  and  N_18
REMARK    7  A    between atoms: C_24  and  C_25
REMARK                            x       y       z     vdW  Elec       q    Type
REMARK                         _______ _______ _______ _____ _____    ______ ____
ROOT
ATOM      1  C   UNL     1       1.062   9.864  19.637  0.00  0.00    +0.000 A 
ATOM      2  N   UNL     1       1.818   9.235  18.698  0.00  0.00    +0.000 NA
ATOM      3  C   UNL     1       2.247   7.993  18.969  0.00  0.00    +0.000 A 
ATOM      4  N   UNL     1       3.001   7.319  18.005  0.00  0.00    +0.000 N 
ATOM      5  N   UNL     1       2.002   7.368  20.127  0.00  0.00    +0.000 NA
ATOM      6  C   UNL     1       1.267   8.009  21.038  0.00  0.00    +0.000 A 
ATOM      7  C   UNL     1       0.730   9.263  20.848  0.00  0.00    +0.000 A 
ATOM      8  C   UNL     1      -0.118   9.840  21.935  0.00  0.00    +0.000 C 
ATOM      9  H   UNL     1       3.212   7.898  17.209  0.00  0.00    +0.000 HD
ENDROOT
BRANCH   1  16
ATOM     10  C   UNL     1      -0.525  15.823  18.817  0.00  0.00    +0.000 C 
ATOM     11  N   UNL     1       0.630  14.954  18.769  0.00  0.00    +0.000 N 
ATOM     12  C   UNL     1       0.422  13.617  18.791  0.00  0.00    +0.000 A 
ATOM     13  N   UNL     1      -0.701  13.018  18.490  0.00  0.00    +0.000 NA
ATOM     14  C   UNL     1      -0.597  11.644  18.687  0.00  0.00    +0.000 A 
ATOM     15  C   UNL     1      -1.792  10.827  18.343  0.00  0.00    +0.000 C 
ATOM     16  C   UNL     1       0.615  11.210  19.218  0.00  0.00    +0.000 A 
ATOM     17  S   UNL     1       1.687  12.563  19.253  0.00  0.00    +0.000 S 
ATOM     18  H   UNL     1       1.439  15.287  19.280  0.00  0.00    +0.000 HD
ENDBRANCH   1  16
BRANCH   4  19
ATOM     19  C   UNL     1       3.090   5.928  17.829  0.00  0.00    +0.000 A 
ATOM     20  C   UNL     1       4.146   5.377  17.093  0.00  0.00    +0.000 A 
ATOM     21  C   UNL     1       4.316   3.987  17.003  0.00  0.00    +0.000 A 
ATOM     22  C   UNL     1       3.418   3.128  17.632  0.00  0.00    +0.000 A 
ATOM     23  C   UNL     1       2.355   3.674  18.350  0.00  0.00    +0.000 A 
ATOM     24  C   UNL     1       2.183   5.056  18.440  0.00  0.00    +0.000 A 
BRANCH  23  25
ATOM     25  S   UNL     1       1.247   2.618  19.231  0.00  0.00    +0.000 S 
ATOM     26  O   UNL     1       0.178   2.193  18.364  0.00  0.00    +0.000 OA
ATOM     27  O   UNL     1       2.015   1.692  20.034  0.00  0.00    +0.000 OA
BRANCH  25  28
ATOM     28  N   UNL     1       0.584   3.725  20.302  0.00  0.00    +0.000 NA
ATOM     29  H   UNL     1       0.415   3.295  21.210  0.00  0.00    +0.000 HD
ATOM     30  H   UNL     1       1.112   4.595  20.311  0.00  0.00    +0.000 HD
ENDBRANCH  25  28
ENDBRANCH  23  25
ENDBRANCH   4  19
TORSDOF 4
ENDMDL
MODEL 2
REMARK VINA RESULT:      -8.1      3.087      3.476
REMARK  Name = 
REMARK  7 active torsions:
REMARK  status: ('A' for Active; 'I' for Inactive)
REMARK    1  A    between atoms: C_1  and  N_2
REMARK    2  A    between atoms: C_5  and  C_6
REMARK    3  A    between atoms: C_7  and  C_8
REMARK    4  A    between atoms: N_11  and  C_12
REMARK    5  A    between atoms: C_16  and  S_17
REMARK    6  A    between atoms: S_17  and  N_18
REMARK    7  A    between atoms: C_24  and  C_25
REMARK                            x       y       z     vdW  Elec       q    Type
REMARK                         _______ _______ _______ _____ _____    ______ ____
ROOT
ATOM      1  C   UNL     1       0.253   9.653  20.190  0.00  0.00    +0.000 A 
ATOM      2  N   UNL     1       1.029   9.355  19.114  0.00  0.00    +0.000 NA
ATOM      3  C   UNL     1       1.911   8.352  19.238  0.00  0.00    +0.000 A 
ATOM      4  N   UNL     1       2.699   8.013  18.136  0.00  0.00    +0.000 N 
ATOM      5  N   UNL     1       2.089   7.666  20.374  0.00  0.00    +0.000 NA
ATOM      6  C   UNL     1       1.322   7.983  21.419  0.00  0.00    +0.000 A 
ATOM      7  C   UNL     1       0.348   8.956  21.392  0.00  0.00    +0.000 A 
ATOM      8  C   UNL     1      -0.472   9.170  22.622  0.00  0.00    +0.000 C 
ATOM      9  H   UNL     1       2.564   8.639  17.358  0.00  0.00    +0.000 HD
ENDROOT
BRANCH   1  16
ATOM     10  C   UNL     1      -4.056  14.138  20.080  0.00  0.00    +0.000 C 
ATOM     11  N   UNL     1      -2.682  13.913  20.470  0.00  0.00    +0.000 N 
ATOM     12  C   UNL     1      -2.081  12.775  20.055  0.00  0.00    +0.000 A 
ATOM     13  N   UNL     1      -2.472  12.032  19.053  0.00  0.00    +0.000 NA
ATOM     14  C   UNL     1      -1.677  10.895  18.940  0.00  0.00    +0.000 A 
ATOM     15  C   UNL     1      -1.982   9.974  17.812  0.00  0.00    +0.000 C 
ATOM     16  C   UNL     1      -0.707  10.748  19.929  0.00  0.00    +0.000 A 
ATOM     17  S   UNL     1      -0.693  12.196  20.870  0.00  0.00    +0.000 S 
ATOM     18  H   UNL     1      -2.446  14.227  21.405  0.00  0.00    +0.000 HD
ENDBRANCH   1  16
BRANCH   4  19
ATOM     19  C   UNL     1       3.253   6.752  17.855  0.00  0.00    +0.000 A 
ATOM     20  C   UNL     1       2.443   5.609  17.862  0.00  0.00    +0.000 A 
ATOM     21  C   UNL     1       2.952   4.361  17.474  0.00  0.00    +0.000 A 
ATOM     22  C   UNL     1       4.285   4.235  17.091  0.00  0.00    +0.000 A 
ATOM     23  C   UNL     1       5.098   5.368  17.100  0.00  0.00    +0.000 A 
ATOM     24  C   UNL     1       4.595   6.610  17.487  0.00  0.00    +0.000 A 
BRANCH  23  25
ATOM     25  S   UNL     1       6.769   5.262  16.538  0.00  0.00    +0.000 S 
ATOM     26  O   UNL     1       6.839   4.442  15.355  0.00  0.00    +0.000 OA
ATOM     27  O   UNL     1       7.379   6.570  16.617  0.00  0.00    +0.000 OA
BRANCH  25  28
ATOM     28  N   UNL     1       7.436   4.360  17.785  0.00  0.00    +0.000 NA
ATOM     29  H   UNL     1       7.689   3.428  17.463  0.00  0.00    +0.000 HD
ATOM     30  H   UNL     1       8.166   4.880  18.269  0.00  0.00    +0.000 HD
ENDBRANCH  25  28
ENDBRANCH  23  25
ENDBRANCH   4  19
TORSDOF 4
ENDMDL
MODEL 3
REMARK VINA RESULT:      -8.0      3.166      3.713
REMARK  Name = 
REMARK  7 active torsions:
REMARK  status: ('A' for Active; 'I' for Inactive)
REMARK    1  A    between atoms: C_1  and  N_2
REMARK    2  A    between atoms: C_5  and  C_6
REMARK    3  A    between atoms: C_7  and  C_8
REMARK    4  A    between atoms: N_11  and  C_12
REMARK    5  A    between atoms: C_16  and  S_17
REMARK    6  A    between atoms: S_17  and  N_18
REMARK    7  A    between atoms: C_24  and  C_25
REMARK                            x       y       z     vdW  Elec       q    Type
REMARK                         _______ _______ _______ _____ _____    ______ ____
ROOT
ATOM      1  C   UNL     1       0.082   9.721  20.133  0.00  0.00    +0.000 A 
ATOM      2  N   UNL     1       0.855   9.444  19.049  0.00  0.00    +0.000 NA
ATOM      3  C   UNL     1       1.814   8.516  19.185  0.00  0.00    +0.000 A 
ATOM      4  N   UNL     1       2.600   8.197  18.075  0.00  0.00    +0.000 N 
ATOM      5  N   UNL     1       2.069   7.887  20.339  0.00  0.00    +0.000 NA
ATOM      6  C   UNL     1       1.304   8.183  21.392  0.00  0.00    +0.000 A 
ATOM      7  C   UNL     1       0.259   9.078  21.355  0.00  0.00    +0.000 A 
ATOM      8  C   UNL     1      -0.547   9.274  22.598  0.00  0.00    +0.000 C 
ATOM      9  H   UNL     1       2.399   8.782  17.281  0.00  0.00    +0.000 HD
ENDROOT
BRANCH   1  16
ATOM     10  C   UNL     1      -4.612  13.799  19.955  0.00  0.00    +0.000 C 
ATOM     11  N   UNL     1      -3.238  13.691  20.390  0.00  0.00    +0.000 N 
ATOM     12  C   UNL     1      -2.520  12.621  19.975  0.00  0.00    +0.000 A 
ATOM     13  N   UNL     1      -2.807  11.869  18.945  0.00  0.00    +0.000 NA
ATOM     14  C   UNL     1      -1.908  10.812  18.839  0.00  0.00    +0.000 A 
ATOM     15  C   UNL     1      -2.089   9.893  17.682  0.00  0.00    +0.000 C 
ATOM     16  C   UNL     1      -0.963  10.730  19.859  0.00  0.00    +0.000 A 
ATOM     17  S   UNL     1      -1.115  12.151  20.828  0.00  0.00    +0.000 S 
ATOM     18  H   UNL     1      -3.063  14.003  21.338  0.00  0.00    +0.000 HD
ENDBRANCH   1  16
BRANCH   4  19
ATOM     19  C   UNL     1       3.242   6.972  17.824  0.00  0.00    +0.000 A 
ATOM     20  C   UNL     1       2.522   5.773  17.888  0.00  0.00    +0.000 A 
ATOM     21  C   UNL     1       3.115   4.553  17.530  0.00  0.00    +0.000 A 
ATOM     22  C   UNL     1       4.446   4.514  17.122  0.00  0.00    +0.000 A 
ATOM     23  C   UNL     1       5.171   5.705  17.075  0.00  0.00    +0.000 A 
ATOM     24  C   UNL     1       4.583   6.918  17.431  0.00  0.00    +0.000 A 
BRANCH  23  25
ATOM     25  S   UNL     1       6.834   5.705  16.479  0.00  0.00    +0.000 S 
ATOM     26  O   UNL     1       7.417   7.012  16.648  0.00  0.00    +0.000 OA
ATOM     27  O   UNL     1       7.494   4.494  16.915  0.00  0.00    +0.000 OA
BRANCH  25  28
ATOM     28  N   UNL     1       6.552   5.515  14.836  0.00  0.00    +0.000 NA
ATOM     29  H   UNL     1       7.428   5.429  14.326  0.00  0.00    +0.000 HD
ATOM     30  H   UNL     1       5.858   4.791  14.660  0.00  0.00    +0.000 HD
ENDBRANCH  25  28
ENDBRANCH  23  25
ENDBRANCH   4  19
TORSDOF 4
ENDMDL
MODEL 4
REMARK VINA RESULT:      -7.8      2.107      2.549
REMARK  Name = 
REMARK  7 active torsions:
REMARK  status: ('A' for Active; 'I' for Inactive)
REMARK    1  A    between atoms: C_1  and  N_2
REMARK    2  A    between atoms: C_5  and  C_6
REMARK    3  A    between atoms: C_7  and  C_8
REMARK    4  A    between atoms: N_11  and  C_12
REMARK    5  A    between atoms: C_16  and  S_17
REMARK    6  A    between atoms: S_17  and  N_18
REMARK    7  A    between atoms: C_24  and  C_25
REMARK                            x       y       z     vdW  Elec       q    Type
REMARK                         _______ _______ _______ _____ _____    ______ ____
ROOT
ATOM      1  C   UNL     1       0.440  10.543  20.708  0.00  0.00    +0.000 A 
ATOM      2  N   UNL     1       1.234   9.660  20.044  0.00  0.00    +0.000 NA
ATOM      3  C   UNL     1       1.475   8.476  20.626  0.00  0.00    +0.000 A 
ATOM      4  N   UNL     1       2.266   7.545  19.948  0.00  0.00    +0.000 N 
ATOM      5  N   UNL     1       1.010   8.143  21.837  0.00  0.00    +0.000 NA
ATOM      6  C   UNL     1       0.241   9.030  22.474  0.00  0.00    +0.000 A 
ATOM      7  C   UNL     1      -0.117  10.252  21.951  0.00  0.00    +0.000 A 
ATOM      8  C   UNL     1      -1.026  11.125  22.754  0.00  0.00    +0.000 C 
ATOM      9  H   UNL     1       2.646   7.915  19.092  0.00  0.00    +0.000 HD
ENDROOT
BRANCH   1  16
ATOM     10  C   UNL     1      -0.430  16.283  18.475  0.00  0.00    +0.000 C 
ATOM     11  N   UNL     1       0.631  15.381  18.865  0.00  0.00    +0.000 N 
ATOM     12  C   UNL     1       0.317  14.082  19.075  0.00  0.00    +0.000 A 
ATOM     13  N   UNL     1      -0.749  13.476  18.621  0.00  0.00    +0.000 NA
ATOM     14  C   UNL     1      -0.804  12.163  19.080  0.00  0.00    +0.000 A 
ATOM     15  C   UNL     1      -1.948  11.336  18.607  0.00  0.00    +0.000 C 
ATOM     16  C   UNL     1       0.212  11.797  19.959  0.00  0.00    +0.000 A 
ATOM     17  S   UNL     1       1.351  13.094  20.012  0.00  0.00    +0.000 S 
ATOM     18  H   UNL     1       1.322  15.779  19.491  0.00  0.00    +0.000 HD
ENDBRANCH   1  16
BRANCH   4  19
ATOM     19  C   UNL     1       2.214   6.147  20.076  0.00  0.00    +0.000 A 
ATOM     20  C   UNL     1       1.003   5.512  20.379  0.00  0.00    +0.000 A 
ATOM     21  C   UNL     1       0.906   4.112  20.398  0.00  0.00    +0.000 A 
ATOM     22  C   UNL     1       2.026   3.328  20.134  0.00  0.00    +0.000 A 
ATOM     23  C   UNL     1       3.237   3.958  19.851  0.00  0.00    +0.000 A 
ATOM     24  C   UNL     1       3.336   5.349  19.832  0.00  0.00    +0.000 A 
BRANCH  23  25
ATOM     25  S   UNL     1       4.657   2.996  19.426  0.00  0.00    +0.000 S 
ATOM     26  O   UNL     1       5.733   3.862  19.017  0.00  0.00    +0.000 OA
ATOM     27  O   UNL     1       4.830   1.948  20.408  0.00  0.00    +0.000 OA
BRANCH  25  28
ATOM     28  N   UNL     1       4.091   2.245  18.037  0.00  0.00    +0.000 NA
ATOM     29  H   UNL     1       4.678   2.473  17.237  0.00  0.00    +0.000 HD
ATOM     30  H   UNL     1       3.917   1.254  18.196  0.00  0.00    +0.000 HD
ENDBRANCH  25  28
ENDBRANCH  23  25
ENDBRANCH   4  19
TORSDOF 4
ENDMDL
MODEL 5
REMARK VINA RESULT:      -7.7      1.525      1.591
REMARK  Name = 
REMARK  7 active torsions:
REMARK  status: ('A' for Active; 'I' for Inactive)
REMARK    1  A    between atoms: C_1  and  N_2
REMARK    2  A    between atoms: C_5  and  C_6
REMARK    3  A    between atoms: C_7  and  C_8
REMARK    4  A    between atoms: N_11  and  C_12
REMARK    5  A    between atoms: C_16  and  S_17
REMARK    6  A    between atoms: S_17  and  N_18
REMARK    7  A    between atoms: C_24  and  C_25
REMARK                            x       y       z     vdW  Elec       q    Type
REMARK                         _______ _______ _______ _____ _____    ______ ____
ROOT
ATOM      1  C   UNL     1       0.513   9.635  20.165  0.00  0.00    +0.000 A 
ATOM      2  N   UNL     1       1.342   9.415  19.109  0.00  0.00    +0.000 NA
ATOM      3  C   UNL     1       2.092   8.303  19.124  0.00  0.00    +0.000 A 
ATOM      4  N   UNL     1       2.929   8.045  18.036  0.00  0.00    +0.000 N 
ATOM      5  N   UNL     1       2.093   7.431  20.140  0.00  0.00    +0.000 NA
ATOM      6  C   UNL     1       1.279   7.673  21.170  0.00  0.00    +0.000 A 
ATOM      7  C   UNL     1       0.427   8.752  21.238  0.00  0.00    +0.000 A 
ATOM      8  C   UNL     1      -0.467   8.872  22.430  0.00  0.00    +0.000 C 
ATOM      9  H   UNL     1       2.931   8.797  17.366  0.00  0.00    +0.000 HD
ENDROOT
BRANCH   1  16
ATOM     10  C   UNL     1      -2.965  14.773  20.605  0.00  0.00    +0.000 C 
ATOM     11  N   UNL     1      -1.596  14.332  20.746  0.00  0.00    +0.000 N 
ATOM     12  C   UNL     1      -1.274  13.099  20.291  0.00  0.00    +0.000 A 
ATOM     13  N   UNL     1      -1.963  12.407  19.421  0.00  0.00    +0.000 NA
ATOM     14  C   UNL     1      -1.396  11.152  19.227  0.00  0.00    +0.000 A 
ATOM     15  C   UNL     1      -2.055  10.267  18.228  0.00  0.00    +0.000 C 
ATOM     16  C   UNL     1      -0.291  10.868  20.026  0.00  0.00    +0.000 A 
ATOM     17  S   UNL     1       0.133  12.316  20.866  0.00  0.00    +0.000 S 
ATOM     18  H   UNL     1      -1.137  14.624  21.602  0.00  0.00    +0.000 HD
ENDBRANCH   1  16
BRANCH   4  19
ATOM     19  C   UNL     1       3.360   6.784  17.588  0.00  0.00    +0.000 A 
ATOM     20  C   UNL     1       4.511   6.674  16.797  0.00  0.00    +0.000 A 
ATOM     21  C   UNL     1       5.021   5.418  16.436  0.00  0.00    +0.000 A 
ATOM     22  C   UNL     1       4.374   4.254  16.845  0.00  0.00    +0.000 A 
ATOM     23  C   UNL     1       3.218   4.362  17.617  0.00  0.00    +0.000 A 
ATOM     24  C   UNL     1       2.708   5.610  17.976  0.00  0.00    +0.000 A 
BRANCH  23  25
ATOM     25  S   UNL     1       2.422   2.907  18.226  0.00  0.00    +0.000 S 
ATOM     26  O   UNL     1       0.998   3.007  18.028  0.00  0.00    +0.000 OA
ATOM     27  O   UNL     1       3.185   1.746  17.825  0.00  0.00    +0.000 OA
BRANCH  25  28
ATOM     28  N   UNL     1       2.692   3.098  19.870  0.00  0.00    +0.000 NA
ATOM     29  H   UNL     1       1.959   2.645  20.413  0.00  0.00    +0.000 HD
ATOM     30  H   UNL     1       3.648   2.854  20.120  0.00  0.00    +0.000 HD
ENDBRANCH  25  28
ENDBRANCH  23  25
ENDBRANCH   4  19
TORSDOF 4
ENDMDL
MODEL 6
REMARK VINA RESULT:      -7.7      1.762      1.970
REMARK  Name = 
REMARK  7 active torsions:
REMARK  status: ('A' for Active; 'I' for Inactive)
REMARK    1  A    between atoms: C_1  and  N_2
REMARK    2  A    between atoms: C_5  and  C_6
REMARK    3  A    between atoms: C_7  and  C_8
REMARK    4  A    between atoms: N_11  and  C_12
REMARK    5  A    between atoms: C_16  and  S_17
REMARK    6  A    between atoms: S_17  and  N_18
REMARK    7  A    between atoms: C_24  and  C_25
REMARK                            x       y       z     vdW  Elec       q    Type
REMARK                         _______ _______ _______ _____ _____    ______ ____
ROOT
ATOM      1  C   UNL     1       0.191   9.836  20.258  0.00  0.00    +0.000 A 
ATOM      2  N   UNL     1       0.928   9.525  19.158  0.00  0.00    +0.000 NA
ATOM      3  C   UNL     1       1.780   8.493  19.247  0.00  0.00    +0.000 A 
ATOM      4  N   UNL     1       2.527   8.141  18.120  0.00  0.00    +0.000 N 
ATOM      5  N   UNL     1       1.966   7.789  20.371  0.00  0.00    +0.000 NA
ATOM      6  C   UNL     1       1.239   8.119  21.440  0.00  0.00    +0.000 A 
ATOM      7  C   UNL     1       0.296   9.122  21.449  0.00  0.00    +0.000 A 
ATOM      8  C   UNL     1      -0.483   9.349  22.703  0.00  0.00    +0.000 C 
ATOM      9  H   UNL     1       2.390   8.780  17.354  0.00  0.00    +0.000 HD
ENDROOT
BRANCH   1  16
ATOM     10  C   UNL     1      -3.889  14.531  20.336  0.00  0.00    +0.000 C 
ATOM     11  N   UNL     1      -2.492  14.256  20.588  0.00  0.00    +0.000 N 
ATOM     12  C   UNL     1      -1.994  13.065  20.182  0.00  0.00    +0.000 A 
ATOM     13  N   UNL     1      -2.529  12.288  19.276  0.00  0.00    +0.000 NA
ATOM     14  C   UNL     1      -1.805  11.106  19.149  0.00  0.00    +0.000 A 
ATOM     15  C   UNL     1      -2.278  10.140  18.121  0.00  0.00    +0.000 C 
ATOM     16  C   UNL     1      -0.739  10.964  20.035  0.00  0.00    +0.000 A 
ATOM     17  S   UNL     1      -0.553  12.460  20.876  0.00  0.00    +0.000 S 
ATOM     18  H   UNL     1      -2.138  14.609  21.470  0.00  0.00    +0.000 HD
ENDBRANCH   1  16
BRANCH   4  19
ATOM     19  C   UNL     1       3.032   6.866  17.811  0.00  0.00    +0.000 A 
ATOM     20  C   UNL     1       4.267   6.736  17.164  0.00  0.00    +0.000 A 
ATOM     21  C   UNL     1       4.841   5.474  16.950  0.00  0.00    +0.000 A 
ATOM     22  C   UNL     1       4.175   4.321  17.363  0.00  0.00    +0.000 A 
ATOM     23  C   UNL     1       2.937   4.448  17.991  0.00  0.00    +0.000 A 
ATOM     24  C   UNL     1       2.364   5.702  18.204  0.00  0.00    +0.000 A 
BRANCH  23  25
ATOM     25  S   UNL     1       2.106   3.015  18.606  0.00  0.00    +0.000 S 
ATOM     26  O   UNL     1       2.437   2.813  19.994  0.00  0.00    +0.000 OA
ATOM     27  O   UNL     1       0.744   3.013  18.120  0.00  0.00    +0.000 OA
BRANCH  25  28
ATOM     28  N   UNL     1       2.911   1.823  17.743  0.00  0.00    +0.000 NA
ATOM     29  H   UNL     1       2.710   1.898  16.748  0.00  0.00    +0.000 HD
ATOM     30  H   UNL     1       3.896   1.781  17.999  0.00  0.00    +0.000 HD
ENDBRANCH  25  28
ENDBRANCH  23  25
ENDBRANCH   4  19
TORSDOF 4
ENDMDL
MODEL 7
REMARK VINA RESULT:      -7.6      1.144      1.334
REMARK  Name = 
REMARK  7 active torsions:
REMARK  status: ('A' for Active; 'I' for Inactive)
REMARK    1  A    between atoms: C_1  and  N_2
REMARK    2  A    between atoms: C_5  and  C_6
REMARK    3  A    between atoms: C_7  and  C_8
REMARK    4  A    between atoms: N_11  and  C_12
REMARK    5  A    between atoms: C_16  and  S_17
REMARK    6  A    between atoms: S_17  and  N_18
REMARK    7  A    between atoms: C_24  and  C_25
REMARK                            x       y       z     vdW  Elec       q    Type
REMARK                         _______ _______ _______ _____ _____    ______ ____
ROOT
ATOM      1  C   UNL     1       0.804   9.682  20.135  0.00  0.00    +0.000 A 
ATOM      2  N   UNL     1       1.624   9.283  19.127  0.00  0.00    +0.000 NA
ATOM      3  C   UNL     1       2.194   8.073  19.227  0.00  0.00    +0.000 A 
ATOM      4  N   UNL     1       3.019   7.632  18.188  0.00  0.00    +0.000 N 
ATOM      5  N   UNL     1       2.028   7.266  20.283  0.00  0.00    +0.000 NA
ATOM      6  C   UNL     1       1.226   7.685  21.265  0.00  0.00    +0.000 A 
ATOM      7  C   UNL     1       0.547   8.882  21.246  0.00  0.00    +0.000 A 
ATOM      8  C   UNL     1      -0.358   9.200  22.391  0.00  0.00    +0.000 C 
ATOM      9  H   UNL     1       3.159   8.338  17.484  0.00  0.00    +0.000 HD
ENDROOT
BRANCH   1  16
ATOM     10  C   UNL     1      -1.692  15.380  20.185  0.00  0.00    +0.000 C 
ATOM     11  N   UNL     1      -0.408  14.719  20.244  0.00  0.00    +0.000 N 
ATOM     12  C   UNL     1      -0.356  13.401  19.942  0.00  0.00    +0.000 A 
ATOM     13  N   UNL     1      -1.256  12.742  19.260  0.00  0.00    +0.000 NA
ATOM     14  C   UNL     1      -0.934  11.390  19.193  0.00  0.00    +0.000 A 
ATOM     15  C   UNL     1      -1.854  10.521  18.408  0.00  0.00    +0.000 C 
ATOM     16  C   UNL     1       0.203  11.014  19.903  0.00  0.00    +0.000 A 
ATOM     17  S   UNL     1       0.966  12.454  20.473  0.00  0.00    +0.000 S 
ATOM     18  H   UNL     1       0.199  15.028  20.994  0.00  0.00    +0.000 HD
ENDBRANCH   1  16
BRANCH   4  19
ATOM     19  C   UNL     1       3.267   6.299  17.820  0.00  0.00    +0.000 A 
ATOM     20  C   UNL     1       4.328   5.992  16.959  0.00  0.00    +0.000 A 
ATOM     21  C   UNL     1       4.662   4.660  16.671  0.00  0.00    +0.000 A 
ATOM     22  C   UNL     1       3.925   3.616  17.226  0.00  0.00    +0.000 A 
ATOM     23  C   UNL     1       2.857   3.920  18.069  0.00  0.00    +0.000 A 
ATOM     24  C   UNL     1       2.522   5.243  18.356  0.00  0.00    +0.000 A 
BRANCH  23  25
ATOM     25  S   UNL     1       1.957   2.622  18.858  0.00  0.00    +0.000 S 
ATOM     26  O   UNL     1       2.093   2.728  20.289  0.00  0.00    +0.000 OA
ATOM     27  O   UNL     1       0.675   2.470  18.206  0.00  0.00    +0.000 OA
BRANCH  25  28
ATOM     28  N   UNL     1       2.879   1.303  18.387  0.00  0.00    +0.000 NA
ATOM     29  H   UNL     1       3.862   1.450  18.606  0.00  0.00    +0.000 HD
ATOM     30  H   UNL     1       2.473   0.429  18.717  0.00  0.00    +0.000 HD
ENDBRANCH  25  28
ENDBRANCH  23  25
ENDBRANCH   4  19
TORSDOF 4
ENDMDL
MODEL 8
REMARK VINA RESULT:      -7.6      1.903      2.416
REMARK  Name = 
REMARK  7 active torsions:
REMARK  status: ('A' for Active; 'I' for Inactive)
REMARK    1  A    between atoms: C_1  and  N_2
REMARK    2  A    between atoms: C_5  and  C_6
REMARK    3  A    between atoms: C_7  and  C_8
REMARK    4  A    between atoms: N_11  and  C_12
REMARK    5  A    between atoms: C_16  and  S_17
REMARK    6  A    between atoms: S_17  and  N_18
REMARK    7  A    between atoms: C_24  and  C_25
REMARK                            x       y       z     vdW  Elec       q    Type
REMARK                         _______ _______ _______ _____ _____    ______ ____
ROOT
ATOM      1  C   UNL     1       0.463  10.577  20.586  0.00  0.00    +0.000 A 
ATOM      2  N   UNL     1       1.226   9.704  19.875  0.00  0.00    +0.000 NA
ATOM      3  C   UNL     1       1.472   8.503  20.420  0.00  0.00    +0.000 A 
ATOM      4  N   UNL     1       2.231   7.581  19.694  0.00  0.00    +0.000 N 
ATOM      5  N   UNL     1       1.041   8.144  21.636  0.00  0.00    +0.000 NA
ATOM      6  C   UNL     1       0.303   9.022  22.318  0.00  0.00    +0.000 A 
ATOM      7  C   UNL     1      -0.058  10.261  21.838  0.00  0.00    +0.000 A 
ATOM      8  C   UNL     1      -0.932  11.123  22.690  0.00  0.00    +0.000 C 
ATOM      9  H   UNL     1       2.588   7.968  18.836  0.00  0.00    +0.000 HD
ENDROOT
BRANCH   1  16
ATOM     10  C   UNL     1      -0.383  16.383  18.518  0.00  0.00    +0.000 C 
ATOM     11  N   UNL     1       0.675  15.447  18.829  0.00  0.00    +0.000 N 
ATOM     12  C   UNL     1       0.339  14.152  19.031  0.00  0.00    +0.000 A 
ATOM     13  N   UNL     1      -0.767  13.582  18.628  0.00  0.00    +0.000 NA
ATOM     14  C   UNL     1      -0.830  12.262  19.064  0.00  0.00    +0.000 A 
ATOM     15  C   UNL     1      -2.021  11.475  18.642  0.00  0.00    +0.000 C 
ATOM     16  C   UNL     1       0.225  11.852  19.875  0.00  0.00    +0.000 A 
ATOM     17  S   UNL     1       1.399  13.118  19.887  0.00  0.00    +0.000 S 
ATOM     18  H   UNL     1       1.411  15.814  19.420  0.00  0.00    +0.000 HD
ENDBRANCH   1  16
BRANCH   4  19
ATOM     19  C   UNL     1       2.168   6.181  19.789  0.00  0.00    +0.000 A 
ATOM     20  C   UNL     1       1.144   5.570  20.525  0.00  0.00    +0.000 A 
ATOM     21  C   UNL     1       0.997   4.175  20.538  0.00  0.00    +0.000 A 
ATOM     22  C   UNL     1       1.885   3.369  19.830  0.00  0.00    +0.000 A 
ATOM     23  C   UNL     1       2.916   3.974  19.111  0.00  0.00    +0.000 A 
ATOM     24  C   UNL     1       3.065   5.361  19.098  0.00  0.00    +0.000 A 
BRANCH  23  25
ATOM     25  S   UNL     1       4.008   2.989  18.132  0.00  0.00    +0.000 S 
ATOM     26  O   UNL     1       3.667   1.596  18.266  0.00  0.00    +0.000 OA
ATOM     27  O   UNL     1       4.196   3.626  16.847  0.00  0.00    +0.000 OA
BRANCH  25  28
ATOM     28  N   UNL     1       5.438   3.216  18.978  0.00  0.00    +0.000 NA
ATOM     29  H   UNL     1       5.629   4.208  19.108  0.00  0.00    +0.000 HD
ATOM     30  H   UNL     1       5.468   2.642  19.818  0.00  0.00    +0.000 HD
ENDBRANCH  25  28
ENDBRANCH  23  25
ENDBRANCH   4  19
TORSDOF 4
ENDMDL
MODEL 9
REMARK VINA RESULT:      -7.4      3.870      8.367
REMARK  Name = 
REMARK  7 active torsions:
REMARK  status: ('A' for Active; 'I' for Inactive)
REMARK    1  A    between atoms: C_1  and  N_2
REMARK    2  A    between atoms: C_5  and  C_6
REMARK    3  A    between atoms: C_7  and  C_8
REMARK    4  A    between atoms: N_11  and  C_12
REMARK    5  A    between atoms: C_16  and  S_17
REMARK    6  A    between atoms: S_17  and  N_18
REMARK    7  A    between atoms: C_24  and  C_25
REMARK                            x       y       z     vdW  Elec       q    Type
REMARK                         _______ _______ _______ _____ _____    ______ ____
ROOT
ATOM      1  C   UNL     1       3.176   6.833  18.293  0.00  0.00    +0.000 A 
ATOM      2  N   UNL     1       2.764   7.999  17.729  0.00  0.00    +0.000 NA
ATOM      3  C   UNL     1       1.928   8.774  18.436  0.00  0.00    +0.000 A 
ATOM      4  N   UNL     1       1.515   9.990  17.885  0.00  0.00    +0.000 N 
ATOM      5  N   UNL     1       1.453   8.436  19.641  0.00  0.00    +0.000 NA
ATOM      6  C   UNL     1       1.863   7.281  20.170  0.00  0.00    +0.000 A 
ATOM      7  C   UNL     1       2.760   6.432  19.561  0.00  0.00    +0.000 A 
ATOM      8  C   UNL     1       3.171   5.196  20.292  0.00  0.00    +0.000 C 
ATOM      9  H   UNL     1       1.847  10.118  16.943  0.00  0.00    +0.000 HD
ENDROOT
BRANCH   1  16
ATOM     10  C   UNL     1       7.118   4.480  14.096  0.00  0.00    +0.000 C 
ATOM     11  N   UNL     1       7.092   5.379  15.228  0.00  0.00    +0.000 N 
ATOM     12  C   UNL     1       5.987   5.388  16.008  0.00  0.00    +0.000 A 
ATOM     13  N   UNL     1       5.096   4.433  16.073  0.00  0.00    +0.000 NA
ATOM     14  C   UNL     1       4.048   4.790  16.917  0.00  0.00    +0.000 A 
ATOM     15  C   UNL     1       2.977   3.778  17.119  0.00  0.00    +0.000 C 
ATOM     16  C   UNL     1       4.122   6.078  17.444  0.00  0.00    +0.000 A 
ATOM     17  S   UNL     1       5.660   6.733  17.012  0.00  0.00    +0.000 S 
ATOM     18  H   UNL     1       7.534   6.278  15.072  0.00  0.00    +0.000 HD
ENDBRANCH   1  16
BRANCH   4  19
ATOM     19  C   UNL     1       1.122  11.141  18.589  0.00  0.00    +0.000 A 
ATOM     20  C   UNL     1       2.008  12.217  18.730  0.00  0.00    +0.000 A 
ATOM     21  C   UNL     1       1.597  13.417  19.329  0.00  0.00    +0.000 A 
ATOM     22  C   UNL     1       0.298  13.551  19.813  0.00  0.00    +0.000 A 
ATOM     23  C   UNL     1      -0.580  12.475  19.690  0.00  0.00    +0.000 A 
ATOM     24  C   UNL     1      -0.174  11.280  19.096  0.00  0.00    +0.000 A 
BRANCH  23  25
ATOM     25  S   UNL     1      -2.259  12.640  20.214  0.00  0.00    +0.000 S 
ATOM     26  O   UNL     1      -3.142  12.100  19.211  0.00  0.00    +0.000 OA
ATOM     27  O   UNL     1      -2.357  12.282  21.611  0.00  0.00    +0.000 OA
BRANCH  25  28
ATOM     28  N   UNL     1      -2.421  14.308  20.146  0.00  0.00    +0.000 NA
ATOM     29  H   UNL     1      -1.521  14.764  20.281  0.00  0.00    +0.000 HD
ATOM     30  H   UNL     1      -2.951  14.596  19.327  0.00  0.00    +0.000 HD
ENDBRANCH  25  28
ENDBRANCH  23  25
ENDBRANCH   4  19
TORSDOF 4
ENDMDL
