MODEL 1
REMARK VINA RESULT:      -7.5      0.000      0.000
REMARK  Name = 
REMARK  6 active torsions:
REMARK  status: ('A' for Active; 'I' for Inactive)
REMARK    1  A    between atoms: C_1  and  C_2
REMARK    2  A    between atoms: C_3  and  N_4
REMARK    3  A    between atoms: N_4  and  C_5
REMARK    4  A    between atoms: N_4  and  S_8
REMARK    5  A    between atoms: C_5  and  C_6
REMARK    6  A    between atoms: S_8  and  C_11
REMARK                            x       y       z     vdW  Elec       q    Type
REMARK                         _______ _______ _______ _____ _____    ______ ____
ROOT
ATOM      1  N   UNL     1       3.365   4.504  18.588  0.00  0.00    +0.000 N 
ENDROOT
BRANCH   1   4
ATOM      2  C   UNL     1       2.098   5.119  21.250  0.00  0.00    +0.000 C 
ATOM      3  C   UNL     1       2.249   6.079  20.114  0.00  0.00    +0.000 A 
ATOM      4  C   UNL     1       2.839   5.808  18.896  0.00  0.00    +0.000 A 
ATOM      5  S   UNL     1       2.841   7.149  17.854  0.00  0.00    +0.000 S 
ATOM      6  C   UNL     1       1.979   8.132  18.984  0.00  0.00    +0.000 A 
ATOM      7  C   UNL     1       1.534   9.462  18.819  0.00  0.00    +0.000 A 
ATOM      8  C   UNL     1       0.855  10.095  19.871  0.00  0.00    +0.000 A 
ATOM      9  C   UNL     1       0.623   9.428  21.062  0.00  0.00    +0.000 A 
ATOM     10  C   UNL     1       1.058   8.111  21.219  0.00  0.00    +0.000 A 
ATOM     11  C   UNL     1       1.742   7.435  20.173  0.00  0.00    +0.000 A 
ENDBRANCH   1   4
BRANCH   1  12
ATOM     12  S   UNL     1       5.047   4.334  18.920  0.00  0.00    +0.000 S 
ATOM     13  O   UNL     1       5.546   5.493  19.631  0.00  0.00    +0.000 OA
ATOM     14  O   UNL     1       5.290   2.993  19.422  0.00  0.00    +0.000 OA
BRANCH  12  15
ATOM     15  C   UNL     1       5.734   4.416  17.271  0.00  0.00    +0.000 A 
ATOM     16  C   UNL     1       4.888   4.205  16.177  0.00  0.00    +0.000 A 
ATOM     17  C   UNL     1       5.397   4.298  14.880  0.00  0.00    +0.000 A 
ATOM     18  C   UNL     1       6.742   4.606  14.681  0.00  0.00    +0.000 A 
ATOM     19  C   UNL     1       7.580   4.842  15.773  0.00  0.00    +0.000 A 
ATOM     20  C   UNL     1       7.076   4.760  17.074  0.00  0.00    +0.000 A 
ENDBRANCH  12  15
ENDBRANCH   1  12
BRANCH   1  21
ATOM     21  C   UNL     1       2.574   3.257  18.809  0.00  0.00    +0.000 C 
BRANCH  21  22
ATOM     22  C   UNL     1       1.182   3.232  18.193  0.00  0.00    +0.000 C 
ATOM     23  F   UNL     1       0.475   2.171  18.658  0.00  0.00    +0.000 F 
ENDBRANCH  21  22
ENDBRANCH   1  21
TORSDOF 5
ENDMDL
MODEL 2
REMARK VINA RESULT:      -7.5      0.066      1.013
REMARK  Name = 
REMARK  6 active torsions:
REMARK  status: ('A' for Active; 'I' for Inactive)
REMARK    1  A    between atoms: C_1  and  C_2
REMARK    2  A    between atoms: C_3  and  N_4
REMARK    3  A    between atoms: N_4  and  C_5
REMARK    4  A    between atoms: N_4  and  S_8
REMARK    5  A    between atoms: C_5  and  C_6
REMARK    6  A    between atoms: S_8  and  C_11
REMARK                            x       y       z     vdW  Elec       q    Type
REMARK                         _______ _______ _______ _____ _____    ______ ____
ROOT
ATOM      1  N   UNL     1       3.336   4.518  18.599  0.00  0.00    +0.000 N 
ENDROOT
BRANCH   1   4
ATOM      2  C   UNL     1       2.073   5.140  21.261  0.00  0.00    +0.000 C 
ATOM      3  C   UNL     1       2.227   6.099  20.125  0.00  0.00    +0.000 A 
ATOM      4  C   UNL     1       2.816   5.825  18.906  0.00  0.00    +0.000 A 
ATOM      5  S   UNL     1       2.822   7.165  17.864  0.00  0.00    +0.000 S 
ATOM      6  C   UNL     1       1.965   8.152  18.993  0.00  0.00    +0.000 A 
ATOM      7  C   UNL     1       1.526   9.483  18.828  0.00  0.00    +0.000 A 
ATOM      8  C   UNL     1       0.850  10.120  19.879  0.00  0.00    +0.000 A 
ATOM      9  C   UNL     1       0.615   9.455  21.071  0.00  0.00    +0.000 A 
ATOM     10  C   UNL     1       1.045   8.136  21.229  0.00  0.00    +0.000 A 
ATOM     11  C   UNL     1       1.726   7.457  20.183  0.00  0.00    +0.000 A 
ENDBRANCH   1   4
BRANCH   1  12
ATOM     12  S   UNL     1       5.024   4.351  18.900  0.00  0.00    +0.000 S 
ATOM     13  O   UNL     1       5.528   5.496  19.631  0.00  0.00    +0.000 OA
ATOM     14  O   UNL     1       5.283   3.000  19.366  0.00  0.00    +0.000 OA
BRANCH  12  15
ATOM     15  C   UNL     1       5.684   4.476  17.243  0.00  0.00    +0.000 A 
ATOM     16  C   UNL     1       7.047   4.750  17.079  0.00  0.00    +0.000 A 
ATOM     17  C   UNL     1       7.590   4.820  15.796  0.00  0.00    +0.000 A 
ATOM     18  C   UNL     1       6.776   4.610  14.683  0.00  0.00    +0.000 A 
ATOM     19  C   UNL     1       5.422   4.310  14.849  0.00  0.00    +0.000 A 
ATOM     20  C   UNL     1       4.872   4.231  16.131  0.00  0.00    +0.000 A 
ENDBRANCH  12  15
ENDBRANCH   1  12
BRANCH   1  21
ATOM     21  C   UNL     1       2.550   3.273  18.846  0.00  0.00    +0.000 C 
BRANCH  21  22
ATOM     22  C   UNL     1       1.174   3.214  18.197  0.00  0.00    +0.000 C 
ATOM     23  F   UNL     1       0.379   2.325  18.848  0.00  0.00    +0.000 F 
ENDBRANCH  21  22
ENDBRANCH   1  21
TORSDOF 5
ENDMDL
MODEL 3
REMARK VINA RESULT:      -7.4      3.305      4.641
REMARK  Name = 
REMARK  6 active torsions:
REMARK  status: ('A' for Active; 'I' for Inactive)
REMARK    1  A    between atoms: C_1  and  C_2
REMARK    2  A    between atoms: C_3  and  N_4
REMARK    3  A    between atoms: N_4  and  C_5
REMARK    4  A    between atoms: N_4  and  S_8
REMARK    5  A    between atoms: C_5  and  C_6
REMARK    6  A    between atoms: S_8  and  C_11
REMARK                            x       y       z     vdW  Elec       q    Type
REMARK                         _______ _______ _______ _____ _____    ______ ____
ROOT
ATOM      1  N   UNL     1       6.307   4.751  17.355  0.00  0.00    +0.000 N 
ENDROOT
BRANCH   1   4
ATOM      2  C   UNL     1       4.478   2.388  16.979  0.00  0.00    +0.000 C 
ATOM      3  C   UNL     1       4.257   3.519  17.932  0.00  0.00    +0.000 A 
ATOM      4  C   UNL     1       5.097   4.598  18.118  0.00  0.00    +0.000 A 
ATOM      5  S   UNL     1       4.525   5.680  19.296  0.00  0.00    +0.000 S 
ATOM      6  C   UNL     1       3.080   4.766  19.551  0.00  0.00    +0.000 A 
ATOM      7  C   UNL     1       2.002   5.066  20.412  0.00  0.00    +0.000 A 
ATOM      8  C   UNL     1       0.915   4.182  20.486  0.00  0.00    +0.000 A 
ATOM      9  C   UNL     1       0.897   3.023  19.726  0.00  0.00    +0.000 A 
ATOM     10  C   UNL     1       1.961   2.734  18.871  0.00  0.00    +0.000 A 
ATOM     11  C   UNL     1       3.075   3.610  18.765  0.00  0.00    +0.000 A 
ENDBRANCH   1   4
BRANCH   1  12
ATOM     12  S   UNL     1       6.239   6.013  16.183  0.00  0.00    +0.000 S 
ATOM     13  O   UNL     1       4.923   6.617  16.161  0.00  0.00    +0.000 OA
ATOM     14  O   UNL     1       7.431   6.833  16.310  0.00  0.00    +0.000 OA
BRANCH  12  15
ATOM     15  C   UNL     1       6.395   5.082  14.664  0.00  0.00    +0.000 A 
ATOM     16  C   UNL     1       5.356   4.220  14.293  0.00  0.00    +0.000 A 
ATOM     17  C   UNL     1       5.442   3.508  13.095  0.00  0.00    +0.000 A 
ATOM     18  C   UNL     1       6.557   3.665  12.271  0.00  0.00    +0.000 A 
ATOM     19  C   UNL     1       7.579   4.546  12.630  0.00  0.00    +0.000 A 
ATOM     20  C   UNL     1       7.497   5.267  13.824  0.00  0.00    +0.000 A 
ENDBRANCH  12  15
ENDBRANCH   1  12
BRANCH   1  21
ATOM     21  C   UNL     1       7.658   4.561  17.963  0.00  0.00    +0.000 C 
BRANCH  21  22
ATOM     22  C   UNL     1       7.909   5.296  19.272  0.00  0.00    +0.000 C 
ATOM     23  F   UNL     1       8.327   6.566  19.032  0.00  0.00    +0.000 F 
ENDBRANCH  21  22
ENDBRANCH   1  21
TORSDOF 5
ENDMDL
MODEL 4
REMARK VINA RESULT:      -7.4      0.915      1.630
REMARK  Name = 
REMARK  6 active torsions:
REMARK  status: ('A' for Active; 'I' for Inactive)
REMARK    1  A    between atoms: C_1  and  C_2
REMARK    2  A    between atoms: C_3  and  N_4
REMARK    3  A    between atoms: N_4  and  C_5
REMARK    4  A    between atoms: N_4  and  S_8
REMARK    5  A    between atoms: C_5  and  C_6
REMARK    6  A    between atoms: S_8  and  C_11
REMARK                            x       y       z     vdW  Elec       q    Type
REMARK                         _______ _______ _______ _____ _____    ______ ____
ROOT
ATOM      1  N   UNL     1       3.333   4.473  18.715  0.00  0.00    +0.000 N 
ENDROOT
BRANCH   1   4
ATOM      2  C   UNL     1       3.217   7.052  17.164  0.00  0.00    +0.000 C 
ATOM      3  C   UNL     1       2.634   6.825  18.521  0.00  0.00    +0.000 A 
ATOM      4  C   UNL     1       2.672   5.642  19.233  0.00  0.00    +0.000 A 
ATOM      5  S   UNL     1       1.893   5.756  20.737  0.00  0.00    +0.000 S 
ATOM      6  C   UNL     1       1.533   7.431  20.517  0.00  0.00    +0.000 A 
ATOM      7  C   UNL     1       0.890   8.309  21.417  0.00  0.00    +0.000 A 
ATOM      8  C   UNL     1       0.678   9.644  21.043  0.00  0.00    +0.000 A 
ATOM      9  C   UNL     1       1.091  10.102  19.802  0.00  0.00    +0.000 A 
ATOM     10  C   UNL     1       1.733   9.233  18.918  0.00  0.00    +0.000 A 
ATOM     11  C   UNL     1       1.971   7.876  19.266  0.00  0.00    +0.000 A 
ENDBRANCH   1   4
BRANCH   1  12
ATOM     12  S   UNL     1       5.022   4.420  19.051  0.00  0.00    +0.000 S 
ATOM     13  O   UNL     1       5.449   5.636  19.712  0.00  0.00    +0.000 OA
ATOM     14  O   UNL     1       5.346   3.118  19.609  0.00  0.00    +0.000 OA
BRANCH  12  15
ATOM     15  C   UNL     1       5.705   4.474  17.399  0.00  0.00    +0.000 A 
ATOM     16  C   UNL     1       4.920   4.025  16.330  0.00  0.00    +0.000 A 
ATOM     17  C   UNL     1       5.421   4.089  15.029  0.00  0.00    +0.000 A 
ATOM     18  C   UNL     1       6.695   4.607  14.799  0.00  0.00    +0.000 A 
ATOM     19  C   UNL     1       7.466   5.079  15.863  0.00  0.00    +0.000 A 
ATOM     20  C   UNL     1       6.969   5.026  17.168  0.00  0.00    +0.000 A 
ENDBRANCH  12  15
ENDBRANCH   1  12
BRANCH   1  21
ATOM     21  C   UNL     1       2.676   3.133  18.698  0.00  0.00    +0.000 C 
BRANCH  21  22
ATOM     22  C   UNL     1       1.200   3.118  18.322  0.00  0.00    +0.000 C 
ATOM     23  F   UNL     1       0.443   2.741  19.384  0.00  0.00    +0.000 F 
ENDBRANCH  21  22
ENDBRANCH   1  21
TORSDOF 5
ENDMDL
MODEL 5
REMARK VINA RESULT:      -7.4      0.927      1.919
REMARK  Name = 
REMARK  6 active torsions:
REMARK  status: ('A' for Active; 'I' for Inactive)
REMARK    1  A    between atoms: C_1  and  C_2
REMARK    2  A    between atoms: C_3  and  N_4
REMARK    3  A    between atoms: N_4  and  C_5
REMARK    4  A    between atoms: N_4  and  S_8
REMARK    5  A    between atoms: C_5  and  C_6
REMARK    6  A    between atoms: S_8  and  C_11
REMARK                            x       y       z     vdW  Elec       q    Type
REMARK                         _______ _______ _______ _____ _____    ______ ____
ROOT
ATOM      1  N   UNL     1       3.296   4.445  18.740  0.00  0.00    +0.000 N 
ENDROOT
BRANCH   1   4
ATOM      2  C   UNL     1       3.176   7.018  17.179  0.00  0.00    +0.000 C 
ATOM      3  C   UNL     1       2.606   6.799  18.544  0.00  0.00    +0.000 A 
ATOM      4  C   UNL     1       2.647   5.620  19.260  0.00  0.00    +0.000 A 
ATOM      5  S   UNL     1       1.884   5.743  20.772  0.00  0.00    +0.000 S 
ATOM      6  C   UNL     1       1.529   7.419  20.548  0.00  0.00    +0.000 A 
ATOM      7  C   UNL     1       0.900   8.303  21.451  0.00  0.00    +0.000 A 
ATOM      8  C   UNL     1       0.690   9.638  21.074  0.00  0.00    +0.000 A 
ATOM      9  C   UNL     1       1.092  10.089  19.827  0.00  0.00    +0.000 A 
ATOM     10  C   UNL     1       1.721   9.213  18.939  0.00  0.00    +0.000 A 
ATOM     11  C   UNL     1       1.956   7.856  19.291  0.00  0.00    +0.000 A 
ENDBRANCH   1   4
BRANCH   1  12
ATOM     12  S   UNL     1       4.989   4.387  19.055  0.00  0.00    +0.000 S 
ATOM     13  O   UNL     1       5.424   5.593  19.730  0.00  0.00    +0.000 OA
ATOM     14  O   UNL     1       5.320   3.077  19.589  0.00  0.00    +0.000 OA
BRANCH  12  15
ATOM     15  C   UNL     1       5.653   4.468  17.397  0.00  0.00    +0.000 A 
ATOM     16  C   UNL     1       6.969   4.910  17.218  0.00  0.00    +0.000 A 
ATOM     17  C   UNL     1       7.517   4.949  15.935  0.00  0.00    +0.000 A 
ATOM     18  C   UNL     1       6.756   4.542  14.839  0.00  0.00    +0.000 A 
ATOM     19  C   UNL     1       5.452   4.076  15.023  0.00  0.00    +0.000 A 
ATOM     20  C   UNL     1       4.898   4.026  16.304  0.00  0.00    +0.000 A 
ENDBRANCH  12  15
ENDBRANCH   1  12
BRANCH   1  21
ATOM     21  C   UNL     1       2.634   3.107  18.738  0.00  0.00    +0.000 C 
BRANCH  21  22
ATOM     22  C   UNL     1       1.143   3.102  18.431  0.00  0.00    +0.000 C 
ATOM     23  F   UNL     1       0.426   2.848  19.556  0.00  0.00    +0.000 F 
ENDBRANCH  21  22
ENDBRANCH   1  21
TORSDOF 5
ENDMDL
MODEL 6
REMARK VINA RESULT:      -7.4      3.302      4.720
REMARK  Name = 
REMARK  6 active torsions:
REMARK  status: ('A' for Active; 'I' for Inactive)
REMARK    1  A    between atoms: C_1  and  C_2
REMARK    2  A    between atoms: C_3  and  N_4
REMARK    3  A    between atoms: N_4  and  C_5
REMARK    4  A    between atoms: N_4  and  S_8
REMARK    5  A    between atoms: C_5  and  C_6
REMARK    6  A    between atoms: S_8  and  C_11
REMARK                            x       y       z     vdW  Elec       q    Type
REMARK                         _______ _______ _______ _____ _____    ______ ____
ROOT
ATOM      1  N   UNL     1       6.267   4.763  17.332  0.00  0.00    +0.000 N 
ENDROOT
BRANCH   1   4
ATOM      2  C   UNL     1       4.456   2.381  16.995  0.00  0.00    +0.000 C 
ATOM      3  C   UNL     1       4.233   3.519  17.938  0.00  0.00    +0.000 A 
ATOM      4  C   UNL     1       5.064   4.608  18.107  0.00  0.00    +0.000 A 
ATOM      5  S   UNL     1       4.493   5.696  19.278  0.00  0.00    +0.000 S 
ATOM      6  C   UNL     1       3.059   4.772  19.555  0.00  0.00    +0.000 A 
ATOM      7  C   UNL     1       1.985   5.071  20.422  0.00  0.00    +0.000 A 
ATOM      8  C   UNL     1       0.907   4.178  20.514  0.00  0.00    +0.000 A 
ATOM      9  C   UNL     1       0.892   3.012  19.767  0.00  0.00    +0.000 A 
ATOM     10  C   UNL     1       1.952   2.724  18.905  0.00  0.00    +0.000 A 
ATOM     11  C   UNL     1       3.057   3.608  18.780  0.00  0.00    +0.000 A 
ENDBRANCH   1   4
BRANCH   1  12
ATOM     12  S   UNL     1       6.195   6.044  16.181  0.00  0.00    +0.000 S 
ATOM     13  O   UNL     1       4.881   6.655  16.180  0.00  0.00    +0.000 OA
ATOM     14  O   UNL     1       7.392   6.856  16.310  0.00  0.00    +0.000 OA
BRANCH  12  15
ATOM     15  C   UNL     1       6.333   5.136  14.646  0.00  0.00    +0.000 A 
ATOM     16  C   UNL     1       7.472   5.320  13.854  0.00  0.00    +0.000 A 
ATOM     17  C   UNL     1       7.615   4.597  12.669  0.00  0.00    +0.000 A 
ATOM     18  C   UNL     1       6.628   3.691  12.283  0.00  0.00    +0.000 A 
ATOM     19  C   UNL     1       5.505   3.488  13.088  0.00  0.00    +0.000 A 
ATOM     20  C   UNL     1       5.358   4.202  14.280  0.00  0.00    +0.000 A 
ENDBRANCH  12  15
ENDBRANCH   1  12
BRANCH   1  21
ATOM     21  C   UNL     1       7.623   4.554  17.921  0.00  0.00    +0.000 C 
BRANCH  21  22
ATOM     22  C   UNL     1       7.891   5.256  19.244  0.00  0.00    +0.000 C 
ATOM     23  F   UNL     1       8.334   6.522  19.031  0.00  0.00    +0.000 F 
ENDBRANCH  21  22
ENDBRANCH   1  21
TORSDOF 5
ENDMDL
MODEL 7
REMARK VINA RESULT:      -6.8      2.923      4.782
REMARK  Name = 
REMARK  6 active torsions:
REMARK  status: ('A' for Active; 'I' for Inactive)
REMARK    1  A    between atoms: C_1  and  C_2
REMARK    2  A    between atoms: C_3  and  N_4
REMARK    3  A    between atoms: N_4  and  C_5
REMARK    4  A    between atoms: N_4  and  S_8
REMARK    5  A    between atoms: C_5  and  C_6
REMARK    6  A    between atoms: S_8  and  C_11
REMARK                            x       y       z     vdW  Elec       q    Type
REMARK                         _______ _______ _______ _____ _____    ______ ____
ROOT
ATOM      1  N   UNL     1       5.447   5.324  16.570  0.00  0.00    +0.000 N 
ENDROOT
BRANCH   1   4
ATOM      2  C   UNL     1       3.663   6.933  18.387  0.00  0.00    +0.000 C 
ATOM      3  C   UNL     1       3.545   5.465  18.126  0.00  0.00    +0.000 A 
ATOM      4  C   UNL     1       4.352   4.724  17.285  0.00  0.00    +0.000 A 
ATOM      5  S   UNL     1       3.911   3.085  17.230  0.00  0.00    +0.000 S 
ATOM      6  C   UNL     1       2.654   3.299  18.397  0.00  0.00    +0.000 A 
ATOM      7  C   UNL     1       1.800   2.317  18.945  0.00  0.00    +0.000 A 
ATOM      8  C   UNL     1       0.826   2.698  19.879  0.00  0.00    +0.000 A 
ATOM      9  C   UNL     1       0.697   4.023  20.262  0.00  0.00    +0.000 A 
ATOM     10  C   UNL     1       1.549   4.990  19.724  0.00  0.00    +0.000 A 
ATOM     11  C   UNL     1       2.552   4.639  18.780  0.00  0.00    +0.000 A 
ENDBRANCH   1   4
BRANCH   1  12
ATOM     12  S   UNL     1       6.990   5.019  17.274  0.00  0.00    +0.000 S 
ATOM     13  O   UNL     1       6.849   4.274  18.509  0.00  0.00    +0.000 OA
ATOM     14  O   UNL     1       7.897   4.567  16.234  0.00  0.00    +0.000 OA
BRANCH  12  15
ATOM     15  C   UNL     1       7.492   6.672  17.735  0.00  0.00    +0.000 A 
ATOM     16  C   UNL     1       8.349   6.837  18.829  0.00  0.00    +0.000 A 
ATOM     17  C   UNL     1       8.779   8.116  19.186  0.00  0.00    +0.000 A 
ATOM     18  C   UNL     1       8.361   9.222  18.447  0.00  0.00    +0.000 A 
ATOM     19  C   UNL     1       7.528   9.054  17.338  0.00  0.00    +0.000 A 
ATOM     20  C   UNL     1       7.099   7.776  16.970  0.00  0.00    +0.000 A 
ENDBRANCH  12  15
ENDBRANCH   1  12
BRANCH   1  21
ATOM     21  C   UNL     1       5.468   5.413  15.080  0.00  0.00    +0.000 C 
BRANCH  21  22
ATOM     22  C   UNL     1       5.725   4.109  14.338  0.00  0.00    +0.000 C 
ATOM     23  F   UNL     1       4.805   3.931  13.355  0.00  0.00    +0.000 F 
ENDBRANCH  21  22
ENDBRANCH   1  21
TORSDOF 5
ENDMDL
MODEL 8
REMARK VINA RESULT:      -6.8      3.040      4.781
REMARK  Name = 
REMARK  6 active torsions:
REMARK  status: ('A' for Active; 'I' for Inactive)
REMARK    1  A    between atoms: C_1  and  C_2
REMARK    2  A    between atoms: C_3  and  N_4
REMARK    3  A    between atoms: N_4  and  C_5
REMARK    4  A    between atoms: N_4  and  S_8
REMARK    5  A    between atoms: C_5  and  C_6
REMARK    6  A    between atoms: S_8  and  C_11
REMARK                            x       y       z     vdW  Elec       q    Type
REMARK                         _______ _______ _______ _____ _____    ______ ____
ROOT
ATOM      1  N   UNL     1       5.522   5.271  16.757  0.00  0.00    +0.000 N 
ENDROOT
BRANCH   1   4
ATOM      2  C   UNL     1       3.611   6.884  18.436  0.00  0.00    +0.000 C 
ATOM      3  C   UNL     1       3.570   5.401  18.250  0.00  0.00    +0.000 A 
ATOM      4  C   UNL     1       4.435   4.657  17.473  0.00  0.00    +0.000 A 
ATOM      5  S   UNL     1       4.074   2.998  17.494  0.00  0.00    +0.000 S 
ATOM      6  C   UNL     1       2.774   3.211  18.613  0.00  0.00    +0.000 A 
ATOM      7  C   UNL     1       1.951   2.219  19.189  0.00  0.00    +0.000 A 
ATOM      8  C   UNL     1       0.933   2.601  20.075  0.00  0.00    +0.000 A 
ATOM      9  C   UNL     1       0.731   3.936  20.383  0.00  0.00    +0.000 A 
ATOM     10  C   UNL     1       1.552   4.913  19.817  0.00  0.00    +0.000 A 
ATOM     11  C   UNL     1       2.598   4.563  18.921  0.00  0.00    +0.000 A 
ENDBRANCH   1   4
BRANCH   1  12
ATOM     12  S   UNL     1       7.064   5.029  17.488  0.00  0.00    +0.000 S 
ATOM     13  O   UNL     1       6.921   4.396  18.783  0.00  0.00    +0.000 OA
ATOM     14  O   UNL     1       7.973   4.488  16.492  0.00  0.00    +0.000 OA
BRANCH  12  15
ATOM     15  C   UNL     1       7.565   6.717  17.802  0.00  0.00    +0.000 A 
ATOM     16  C   UNL     1       6.998   7.743  17.037  0.00  0.00    +0.000 A 
ATOM     17  C   UNL     1       7.350   9.070  17.288  0.00  0.00    +0.000 A 
ATOM     18  C   UNL     1       8.258   9.369  18.303  0.00  0.00    +0.000 A 
ATOM     19  C   UNL     1       8.803   8.346  19.084  0.00  0.00    +0.000 A 
ATOM     20  C   UNL     1       8.449   7.016  18.844  0.00  0.00    +0.000 A 
ENDBRANCH  12  15
ENDBRANCH   1  12
BRANCH   1  21
ATOM     21  C   UNL     1       5.560   5.324  15.265  0.00  0.00    +0.000 C 
BRANCH  21  22
ATOM     22  C   UNL     1       5.610   3.980  14.552  0.00  0.00    +0.000 C 
ATOM     23  F   UNL     1       6.581   3.981  13.603  0.00  0.00    +0.000 F 
ENDBRANCH  21  22
ENDBRANCH   1  21
TORSDOF 5
ENDMDL
MODEL 9
REMARK VINA RESULT:      -6.7      2.433      4.260
REMARK  Name = 
REMARK  6 active torsions:
REMARK  status: ('A' for Active; 'I' for Inactive)
REMARK    1  A    between atoms: C_1  and  C_2
REMARK    2  A    between atoms: C_3  and  N_4
REMARK    3  A    between atoms: N_4  and  C_5
REMARK    4  A    between atoms: N_4  and  S_8
REMARK    5  A    between atoms: C_5  and  C_6
REMARK    6  A    between atoms: S_8  and  C_11
REMARK                            x       y       z     vdW  Elec       q    Type
REMARK                         _______ _______ _______ _____ _____    ______ ____
ROOT
ATOM      1  N   UNL     1       3.478   5.883  18.291  0.00  0.00    +0.000 N 
ENDROOT
BRANCH   1   4
ATOM      2  C   UNL     1       2.297   6.284  21.032  0.00  0.00    +0.000 C 
ATOM      3  C   UNL     1       2.168   7.228  19.881  0.00  0.00    +0.000 A 
ATOM      4  C   UNL     1       2.717   7.057  18.626  0.00  0.00    +0.000 A 
ATOM      5  S   UNL     1       2.370   8.346  17.576  0.00  0.00    +0.000 S 
ATOM      6  C   UNL     1       1.402   9.155  18.757  0.00  0.00    +0.000 A 
ATOM      7  C   UNL     1       0.682  10.361  18.613  0.00  0.00    +0.000 A 
ATOM      8  C   UNL     1      -0.040  10.865  19.705  0.00  0.00    +0.000 A 
ATOM      9  C   UNL     1      -0.048  10.191  20.916  0.00  0.00    +0.000 A 
ATOM     10  C   UNL     1       0.660   8.996  21.052  0.00  0.00    +0.000 A 
ATOM     11  C   UNL     1       1.397   8.452  19.965  0.00  0.00    +0.000 A 
ENDBRANCH   1   4
BRANCH   1  12
ATOM     12  S   UNL     1       2.515   4.552  17.770  0.00  0.00    +0.000 S 
ATOM     13  O   UNL     1       1.183   4.996  17.412  0.00  0.00    +0.000 OA
ATOM     14  O   UNL     1       3.298   3.739  16.856  0.00  0.00    +0.000 OA
BRANCH  12  15
ATOM     15  C   UNL     1       2.349   3.629  19.293  0.00  0.00    +0.000 A 
ATOM     16  C   UNL     1       3.501   3.111  19.897  0.00  0.00    +0.000 A 
ATOM     17  C   UNL     1       3.398   2.416  21.103  0.00  0.00    +0.000 A 
ATOM     18  C   UNL     1       2.151   2.247  21.704  0.00  0.00    +0.000 A 
ATOM     19  C   UNL     1       1.006   2.787  21.115  0.00  0.00    +0.000 A 
ATOM     20  C   UNL     1       1.102   3.491  19.912  0.00  0.00    +0.000 A 
ENDBRANCH  12  15
ENDBRANCH   1  12
BRANCH   1  21
ATOM     21  C   UNL     1       4.811   5.964  17.623  0.00  0.00    +0.000 C 
BRANCH  21  22
ATOM     22  C   UNL     1       6.008   5.559  18.471  0.00  0.00    +0.000 C 
ATOM     23  F   UNL     1       5.663   5.498  19.783  0.00  0.00    +0.000 F 
ENDBRANCH  21  22
ENDBRANCH   1  21
TORSDOF 5
ENDMDL
