MODEL 1
REMARK VINA RESULT:      -8.3      0.000      0.000
REMARK  Name = 
REMARK  11 active torsions:
REMARK  status: ('A' for Active; 'I' for Inactive)
REMARK    1  A    between atoms: C_1  and  C_2
REMARK    2  A    between atoms: C_2  and  C_3
REMARK    3  A    between atoms: N_5  and  C_6
REMARK    4  A    between atoms: C_6  and  C_7
REMARK    5  A    between atoms: C_10  and  N_11
REMARK    6  A    between atoms: C_12  and  C_14
REMARK    7  A    between atoms: C_26  and  C_27
REMARK    8  A    between atoms: C_27  and  C_28
REMARK    9  A    between atoms: C_29  and  C_30
REMARK   10  A    between atoms: C_30  and  C_31
REMARK   11  A    between atoms: C_31  and  O_33
REMARK                            x       y       z     vdW  Elec       q    Type
REMARK                         _______ _______ _______ _____ _____    ______ ____
ROOT
ATOM      1  C   UNL     1       2.171   6.925  19.517  0.00  0.00    +0.000 A 
ATOM      2  C   UNL     1       1.567   7.554  20.613  0.00  0.00    +0.000 A 
ATOM      3  C   UNL     1       1.214   8.901  20.563  0.00  0.00    +0.000 A 
ATOM      4  C   UNL     1       1.466   9.654  19.418  0.00  0.00    +0.000 A 
ATOM      5  C   UNL     1       2.000   9.016  18.289  0.00  0.00    +0.000 A 
ATOM      6  C   UNL     1       2.345   7.661  18.339  0.00  0.00    +0.000 A 
ENDROOT
BRANCH   4   7
ATOM      7  N   UNL     1       1.228  11.051  19.345  0.00  0.00    +0.000 N 
ATOM      8  C   UNL     1       0.027  11.682  19.107  0.00  0.00    +0.000 C 
ATOM      9  O   UNL     1      -1.057  11.151  18.926  0.00  0.00    +0.000 OA
ATOM     10  H   UNL     1       2.031  11.626  19.554  0.00  0.00    +0.000 HD
BRANCH   8  11
ATOM     11  C   UNL     1       0.131  13.140  19.116  0.00  0.00    +0.000 A 
ATOM     12  C   UNL     1      -0.831  14.114  18.938  0.00  0.00    +0.000 A 
ATOM     13  C   UNL     1      -0.206  15.370  19.057  0.00  0.00    +0.000 A 
ATOM     14  C   UNL     1      -0.679  16.685  18.917  0.00  0.00    +0.000 A 
ATOM     15  C   UNL     1       0.009  17.303  17.877  0.00  0.00    +0.000 A 
ATOM     16  C   UNL     1       1.383  17.121  17.770  0.00  0.00    +0.000 A 
ATOM     17  F   UNL     1       2.055  17.821  16.846  0.00  0.00    +0.000 F 
ATOM     18  C   UNL     1       2.044  16.112  18.481  0.00  0.00    +0.000 A 
ATOM     19  C   UNL     1       1.166  15.129  18.962  0.00  0.00    +0.000 A 
ATOM     20  N   UNL     1       1.339  13.803  19.283  0.00  0.00    +0.000 N 
ATOM     21  H   UNL     1       2.224  13.326  19.374  0.00  0.00    +0.000 HD
ENDBRANCH   8  11
ENDBRANCH   4   7
BRANCH   1  22
ATOM     22  C   UNL     1       2.795   5.561  19.691  0.00  0.00    +0.000 C 
BRANCH  22  25
ATOM     23  C   UNL     1       6.029   5.334  18.308  0.00  0.00    +0.000 A 
ATOM     24  N   UNL     1       5.185   5.731  19.256  0.00  0.00    +0.000 NA
ATOM     25  N   UNL     1       3.989   5.218  18.916  0.00  0.00    +0.000 N 
ATOM     26  C   UNL     1       4.063   4.405  17.793  0.00  0.00    +0.000 A 
ATOM     27  C   UNL     1       5.383   4.507  17.350  0.00  0.00    +0.000 A 
BRANCH  23  29
ATOM     28  C   UNL     1       7.654   7.149  17.738  0.00  0.00    +0.000 C 
ATOM     29  C   UNL     1       7.455   5.779  18.368  0.00  0.00    +0.000 C 
ENDBRANCH  23  29
BRANCH  26  30
ATOM     30  C   UNL     1       2.958   3.614  17.133  0.00  0.00    +0.000 C 
ATOM     31  C   UNL     1       2.507   2.302  17.742  0.00  0.00    +0.000 C 
ENDBRANCH  26  30
BRANCH  27  32
ATOM     32  C   UNL     1       5.985   3.924  16.100  0.00  0.00    +0.000 C 
BRANCH  32  33
ATOM     33  C   UNL     1       6.041   4.829  14.884  0.00  0.00    +0.000 C 
ATOM     34  O   UNL     1       5.761   6.020  14.938  0.00  0.00    +0.000 OA
BRANCH  33  35
ATOM     35  O   UNL     1       6.498   4.249  13.744  0.00  0.00    +0.000 OA
ATOM     36  H   UNL     1       7.428   4.416  13.575  0.00  0.00    +0.000 HD
ENDBRANCH  33  35
ENDBRANCH  32  33
ENDBRANCH  27  32
ENDBRANCH  22  25
ENDBRANCH   1  22
TORSDOF 9
ENDMDL
MODEL 2
REMARK VINA RESULT:      -8.2      1.111      1.221
REMARK  Name = 
REMARK  11 active torsions:
REMARK  status: ('A' for Active; 'I' for Inactive)
REMARK    1  A    between atoms: C_1  and  C_2
REMARK    2  A    between atoms: C_2  and  C_3
REMARK    3  A    between atoms: N_5  and  C_6
REMARK    4  A    between atoms: C_6  and  C_7
REMARK    5  A    between atoms: C_10  and  N_11
REMARK    6  A    between atoms: C_12  and  C_14
REMARK    7  A    between atoms: C_26  and  C_27
REMARK    8  A    between atoms: C_27  and  C_28
REMARK    9  A    between atoms: C_29  and  C_30
REMARK   10  A    between atoms: C_30  and  C_31
REMARK   11  A    between atoms: C_31  and  O_33
REMARK                            x       y       z     vdW  Elec       q    Type
REMARK                         _______ _______ _______ _____ _____    ______ ____
ROOT
ATOM      1  C   UNL     1       2.252   6.524  19.745  0.00  0.00    +0.000 A 
ATOM      2  C   UNL     1       1.594   7.071  20.855  0.00  0.00    +0.000 A 
ATOM      3  C   UNL     1       1.137   8.387  20.840  0.00  0.00    +0.000 A 
ATOM      4  C   UNL     1       1.335   9.191  19.720  0.00  0.00    +0.000 A 
ATOM      5  C   UNL     1       1.923   8.630  18.577  0.00  0.00    +0.000 A 
ATOM      6  C   UNL     1       2.374   7.306  18.590  0.00  0.00    +0.000 A 
ENDROOT
BRANCH   4   7
ATOM      7  N   UNL     1       0.989  10.566  19.686  0.00  0.00    +0.000 N 
ATOM      8  C   UNL     1      -0.179  11.121  19.209  0.00  0.00    +0.000 C 
ATOM      9  O   UNL     1      -1.134  10.527  18.737  0.00  0.00    +0.000 OA
ATOM     10  H   UNL     1       1.661  11.180  20.121  0.00  0.00    +0.000 HD
BRANCH   8  11
ATOM     11  C   UNL     1      -0.220  12.577  19.340  0.00  0.00    +0.000 A 
ATOM     12  C   UNL     1      -0.271  13.568  18.381  0.00  0.00    +0.000 A 
ATOM     13  C   UNL     1      -0.309  14.812  19.041  0.00  0.00    +0.000 A 
ATOM     14  C   UNL     1      -0.314  16.136  18.575  0.00  0.00    +0.000 A 
ATOM     15  C   UNL     1       0.819  16.786  19.055  0.00  0.00    +0.000 A 
ATOM     16  C   UNL     1       1.203  16.594  20.377  0.00  0.00    +0.000 A 
ATOM     17  F   UNL     1       2.215  17.321  20.866  0.00  0.00    +0.000 F 
ATOM     18  C   UNL     1       0.674  15.549  21.147  0.00  0.00    +0.000 A 
ATOM     19  C   UNL     1       0.064  14.559  20.362  0.00  0.00    +0.000 A 
ATOM     20  N   UNL     1      -0.168  13.219  20.570  0.00  0.00    +0.000 N 
ATOM     21  H   UNL     1      -0.065  12.729  21.446  0.00  0.00    +0.000 HD
ENDBRANCH   8  11
ENDBRANCH   4   7
BRANCH   1  22
ATOM     22  C   UNL     1       2.981   5.208  19.884  0.00  0.00    +0.000 C 
BRANCH  22  25
ATOM     23  C   UNL     1       6.162   5.152  18.367  0.00  0.00    +0.000 A 
ATOM     24  N   UNL     1       5.348   5.463  19.373  0.00  0.00    +0.000 NA
ATOM     25  N   UNL     1       4.150   4.947  19.042  0.00  0.00    +0.000 N 
ATOM     26  C   UNL     1       4.196   4.217  17.863  0.00  0.00    +0.000 A 
ATOM     27  C   UNL     1       5.495   4.379  17.378  0.00  0.00    +0.000 A 
BRANCH  23  29
ATOM     28  C   UNL     1       7.723   7.047  17.886  0.00  0.00    +0.000 C 
ATOM     29  C   UNL     1       7.579   5.624  18.406  0.00  0.00    +0.000 C 
ENDBRANCH  23  29
BRANCH  26  30
ATOM     30  C   UNL     1       3.082   3.449  17.190  0.00  0.00    +0.000 C 
ATOM     31  C   UNL     1       2.601   2.144  17.791  0.00  0.00    +0.000 C 
ENDBRANCH  26  30
BRANCH  27  32
ATOM     32  C   UNL     1       6.060   3.899  16.069  0.00  0.00    +0.000 C 
BRANCH  32  33
ATOM     33  C   UNL     1       5.847   4.797  14.864  0.00  0.00    +0.000 C 
ATOM     34  O   UNL     1       5.715   6.011  14.965  0.00  0.00    +0.000 OA
BRANCH  33  35
ATOM     35  O   UNL     1       5.890   4.175  13.658  0.00  0.00    +0.000 OA
ATOM     36  H   UNL     1       6.472   4.604  13.026  0.00  0.00    +0.000 HD
ENDBRANCH  33  35
ENDBRANCH  32  33
ENDBRANCH  27  32
ENDBRANCH  22  25
ENDBRANCH   1  22
TORSDOF 9
ENDMDL
MODEL 3
REMARK VINA RESULT:      -8.1      4.013      5.211
REMARK  Name = 
REMARK  11 active torsions:
REMARK  status: ('A' for Active; 'I' for Inactive)
REMARK    1  A    between atoms: C_1  and  C_2
REMARK    2  A    between atoms: C_2  and  C_3
REMARK    3  A    between atoms: N_5  and  C_6
REMARK    4  A    between atoms: C_6  and  C_7
REMARK    5  A    between atoms: C_10  and  N_11
REMARK    6  A    between atoms: C_12  and  C_14
REMARK    7  A    between atoms: C_26  and  C_27
REMARK    8  A    between atoms: C_27  and  C_28
REMARK    9  A    between atoms: C_29  and  C_30
REMARK   10  A    between atoms: C_30  and  C_31
REMARK   11  A    between atoms: C_31  and  O_33
REMARK                            x       y       z     vdW  Elec       q    Type
REMARK                         _______ _______ _______ _____ _____    ______ ____
ROOT
ATOM      1  C   UNL     1       2.572   7.815  18.471  0.00  0.00    +0.000 A 
ATOM      2  C   UNL     1       2.070   8.878  17.710  0.00  0.00    +0.000 A 
ATOM      3  C   UNL     1       1.136   9.764  18.245  0.00  0.00    +0.000 A 
ATOM      4  C   UNL     1       0.676   9.602  19.550  0.00  0.00    +0.000 A 
ATOM      5  C   UNL     1       1.229   8.587  20.344  0.00  0.00    +0.000 A 
ATOM      6  C   UNL     1       2.173   7.704  19.809  0.00  0.00    +0.000 A 
ENDROOT
BRANCH   4   7
ATOM      7  N   UNL     1      -0.350  10.404  20.112  0.00  0.00    +0.000 N 
ATOM      8  C   UNL     1      -0.223  11.336  21.119  0.00  0.00    +0.000 C 
ATOM      9  O   UNL     1       0.801  11.649  21.704  0.00  0.00    +0.000 OA
ATOM     10  H   UNL     1      -1.251  10.307  19.667  0.00  0.00    +0.000 HD
BRANCH   8  11
ATOM     11  C   UNL     1      -1.482  12.002  21.448  0.00  0.00    +0.000 A 
ATOM     12  C   UNL     1      -2.075  12.258  22.668  0.00  0.00    +0.000 A 
ATOM     13  C   UNL     1      -3.282  12.944  22.431  0.00  0.00    +0.000 A 
ATOM     14  C   UNL     1      -4.300  13.399  23.284  0.00  0.00    +0.000 A 
ATOM     15  C   UNL     1      -5.491  12.765  22.941  0.00  0.00    +0.000 A 
ATOM     16  C   UNL     1      -5.821  12.620  21.598  0.00  0.00    +0.000 A 
ATOM     17  F   UNL     1      -7.025  12.127  21.281  0.00  0.00    +0.000 F 
ATOM     18  C   UNL     1      -4.872  12.818  20.587  0.00  0.00    +0.000 A 
ATOM     19  C   UNL     1      -3.556  12.784  21.072  0.00  0.00    +0.000 A 
ATOM     20  N   UNL     1      -2.354  12.479  20.478  0.00  0.00    +0.000 N 
ATOM     21  H   UNL     1      -2.193  12.367  19.487  0.00  0.00    +0.000 HD
ENDBRANCH   8  11
ENDBRANCH   4   7
BRANCH   1  22
ATOM     22  C   UNL     1       3.355   6.716  17.791  0.00  0.00    +0.000 C 
BRANCH  22  25
ATOM     23  C   UNL     1       1.956   3.704  18.971  0.00  0.00    +0.000 A 
ATOM     24  N   UNL     1       1.906   5.017  18.763  0.00  0.00    +0.000 NA
ATOM     25  N   UNL     1       3.029   5.320  18.086  0.00  0.00    +0.000 N 
ATOM     26  C   UNL     1       3.774   4.193  17.766  0.00  0.00    +0.000 A 
ATOM     27  C   UNL     1       3.113   3.127  18.379  0.00  0.00    +0.000 A 
BRANCH  23  29
ATOM     28  C   UNL     1       1.237   2.842  21.206  0.00  0.00    +0.000 C 
ATOM     29  C   UNL     1       0.860   3.048  19.747  0.00  0.00    +0.000 C 
ENDBRANCH  23  29
BRANCH  26  30
ATOM     30  C   UNL     1       5.059   4.110  16.976  0.00  0.00    +0.000 C 
ATOM     31  C   UNL     1       5.077   4.541  15.524  0.00  0.00    +0.000 C 
ENDBRANCH  26  30
BRANCH  27  32
ATOM     32  C   UNL     1       3.551   1.690  18.458  0.00  0.00    +0.000 C 
BRANCH  32  33
ATOM     33  C   UNL     1       4.572   1.345  19.526  0.00  0.00    +0.000 C 
ATOM     34  O   UNL     1       4.852   2.113  20.439  0.00  0.00    +0.000 OA
BRANCH  33  35
ATOM     35  O   UNL     1       5.101   0.097  19.447  0.00  0.00    +0.000 OA
ATOM     36  H   UNL     1       6.007   0.044  19.760  0.00  0.00    +0.000 HD
ENDBRANCH  33  35
ENDBRANCH  32  33
ENDBRANCH  27  32
ENDBRANCH  22  25
ENDBRANCH   1  22
TORSDOF 9
ENDMDL
MODEL 4
REMARK VINA RESULT:      -8.1      1.557      1.898
REMARK  Name = 
REMARK  11 active torsions:
REMARK  status: ('A' for Active; 'I' for Inactive)
REMARK    1  A    between atoms: C_1  and  C_2
REMARK    2  A    between atoms: C_2  and  C_3
REMARK    3  A    between atoms: N_5  and  C_6
REMARK    4  A    between atoms: C_6  and  C_7
REMARK    5  A    between atoms: C_10  and  N_11
REMARK    6  A    between atoms: C_12  and  C_14
REMARK    7  A    between atoms: C_26  and  C_27
REMARK    8  A    between atoms: C_27  and  C_28
REMARK    9  A    between atoms: C_29  and  C_30
REMARK   10  A    between atoms: C_30  and  C_31
REMARK   11  A    between atoms: C_31  and  O_33
REMARK                            x       y       z     vdW  Elec       q    Type
REMARK                         _______ _______ _______ _____ _____    ______ ____
ROOT
ATOM      1  C   UNL     1       2.275   6.593  19.810  0.00  0.00    +0.000 A 
ATOM      2  C   UNL     1       1.572   7.155  20.884  0.00  0.00    +0.000 A 
ATOM      3  C   UNL     1       1.043   8.441  20.799  0.00  0.00    +0.000 A 
ATOM      4  C   UNL     1       1.212   9.199  19.644  0.00  0.00    +0.000 A 
ATOM      5  C   UNL     1       1.847   8.618  18.537  0.00  0.00    +0.000 A 
ATOM      6  C   UNL     1       2.371   7.323  18.620  0.00  0.00    +0.000 A 
ENDROOT
BRANCH   4   7
ATOM      7  N   UNL     1       0.790  10.549  19.537  0.00  0.00    +0.000 N 
ATOM      8  C   UNL     1       1.408  11.564  18.837  0.00  0.00    +0.000 C 
ATOM      9  O   UNL     1       2.427  11.481  18.172  0.00  0.00    +0.000 OA
ATOM     10  H   UNL     1      -0.095  10.750  19.980  0.00  0.00    +0.000 HD
BRANCH   8  11
ATOM     11  C   UNL     1       0.695  12.838  18.922  0.00  0.00    +0.000 A 
ATOM     12  C   UNL     1       1.079  14.112  18.558  0.00  0.00    +0.000 A 
ATOM     13  C   UNL     1       0.010  14.986  18.836  0.00  0.00    +0.000 A 
ATOM     14  C   UNL     1      -0.135  16.377  18.720  0.00  0.00    +0.000 A 
ATOM     15  C   UNL     1      -0.384  16.911  19.981  0.00  0.00    +0.000 A 
ATOM     16  C   UNL     1      -1.273  16.261  20.830  0.00  0.00    +0.000 A 
ATOM     17  F   UNL     1      -1.605  16.848  21.986  0.00  0.00    +0.000 F 
ATOM     18  C   UNL     1      -1.691  14.947  20.582  0.00  0.00    +0.000 A 
ATOM     19  C   UNL     1      -0.857  14.280  19.671  0.00  0.00    +0.000 A 
ATOM     20  N   UNL     1      -0.576  12.950  19.470  0.00  0.00    +0.000 N 
ATOM     21  H   UNL     1      -1.074  12.170  19.875  0.00  0.00    +0.000 HD
ENDBRANCH   8  11
ENDBRANCH   4   7
BRANCH   1  22
ATOM     22  C   UNL     1       3.074   5.328  20.023  0.00  0.00    +0.000 C 
BRANCH  22  25
ATOM     23  C   UNL     1       6.268   5.249  18.535  0.00  0.00    +0.000 A 
ATOM     24  N   UNL     1       5.453   5.536  19.547  0.00  0.00    +0.000 NA
ATOM     25  N   UNL     1       4.244   5.073  19.181  0.00  0.00    +0.000 N 
ATOM     26  C   UNL     1       4.281   4.398  17.969  0.00  0.00    +0.000 A 
ATOM     27  C   UNL     1       5.590   4.544  17.504  0.00  0.00    +0.000 A 
BRANCH  23  29
ATOM     28  C   UNL     1       7.891   7.114  18.151  0.00  0.00    +0.000 C 
ATOM     29  C   UNL     1       7.698   5.676  18.609  0.00  0.00    +0.000 C 
ENDBRANCH  23  29
BRANCH  26  30
ATOM     30  C   UNL     1       3.152   3.696  17.250  0.00  0.00    +0.000 C 
ATOM     31  C   UNL     1       2.689   2.336  17.729  0.00  0.00    +0.000 C 
ENDBRANCH  26  30
BRANCH  27  32
ATOM     32  C   UNL     1       6.154   4.110  16.179  0.00  0.00    +0.000 C 
BRANCH  32  33
ATOM     33  C   UNL     1       6.417   5.202  15.159  0.00  0.00    +0.000 C 
ATOM     34  O   UNL     1       5.566   6.024  14.842  0.00  0.00    +0.000 OA
BRANCH  33  35
ATOM     35  O   UNL     1       7.685   5.257  14.676  0.00  0.00    +0.000 OA
ATOM     36  H   UNL     1       7.907   6.101  14.276  0.00  0.00    +0.000 HD
ENDBRANCH  33  35
ENDBRANCH  32  33
ENDBRANCH  27  32
ENDBRANCH  22  25
ENDBRANCH   1  22
TORSDOF 9
ENDMDL
MODEL 5
REMARK VINA RESULT:      -8.0      1.204      1.521
REMARK  Name = 
REMARK  11 active torsions:
REMARK  status: ('A' for Active; 'I' for Inactive)
REMARK    1  A    between atoms: C_1  and  C_2
REMARK    2  A    between atoms: C_2  and  C_3
REMARK    3  A    between atoms: N_5  and  C_6
REMARK    4  A    between atoms: C_6  and  C_7
REMARK    5  A    between atoms: C_10  and  N_11
REMARK    6  A    between atoms: C_12  and  C_14
REMARK    7  A    between atoms: C_26  and  C_27
REMARK    8  A    between atoms: C_27  and  C_28
REMARK    9  A    between atoms: C_29  and  C_30
REMARK   10  A    between atoms: C_30  and  C_31
REMARK   11  A    between atoms: C_31  and  O_33
REMARK                            x       y       z     vdW  Elec       q    Type
REMARK                         _______ _______ _______ _____ _____    ______ ____
ROOT
ATOM      1  C   UNL     1       2.115   6.940  19.520  0.00  0.00    +0.000 A 
ATOM      2  C   UNL     1       1.530   7.612  20.602  0.00  0.00    +0.000 A 
ATOM      3  C   UNL     1       1.171   8.954  20.502  0.00  0.00    +0.000 A 
ATOM      4  C   UNL     1       1.396   9.659  19.323  0.00  0.00    +0.000 A 
ATOM      5  C   UNL     1       1.909   8.977  18.210  0.00  0.00    +0.000 A 
ATOM      6  C   UNL     1       2.261   7.626  18.309  0.00  0.00    +0.000 A 
ENDROOT
BRANCH   4   7
ATOM      7  N   UNL     1       1.151  11.051  19.196  0.00  0.00    +0.000 N 
ATOM      8  C   UNL     1      -0.057  11.701  19.325  0.00  0.00    +0.000 C 
ATOM      9  O   UNL     1      -1.138  11.197  19.584  0.00  0.00    +0.000 OA
ATOM     10  H   UNL     1       1.978  11.613  19.057  0.00  0.00    +0.000 HD
BRANCH   8  11
ATOM     11  C   UNL     1       0.047  13.149  19.151  0.00  0.00    +0.000 A 
ATOM     12  C   UNL     1       1.152  13.962  18.997  0.00  0.00    +0.000 A 
ATOM     13  C   UNL     1       0.701  15.288  18.851  0.00  0.00    +0.000 A 
ATOM     14  C   UNL     1       1.375  16.512  18.718  0.00  0.00    +0.000 A 
ATOM     15  C   UNL     1       1.035  17.331  19.791  0.00  0.00    +0.000 A 
ATOM     16  C   UNL     1      -0.290  17.393  20.206  0.00  0.00    +0.000 A 
ATOM     17  F   UNL     1      -0.628  18.278  21.151  0.00  0.00    +0.000 F 
ATOM     18  C   UNL     1      -1.232  16.445  19.785  0.00  0.00    +0.000 A 
ATOM     19  C   UNL     1      -0.633  15.289  19.261  0.00  0.00    +0.000 A 
ATOM     20  N   UNL     1      -1.061  13.986  19.157  0.00  0.00    +0.000 N 
ATOM     21  H   UNL     1      -2.002  13.656  19.315  0.00  0.00    +0.000 HD
ENDBRANCH   8  11
ENDBRANCH   4   7
BRANCH   1  22
ATOM     22  C   UNL     1       2.748   5.586  19.739  0.00  0.00    +0.000 C 
BRANCH  22  25
ATOM     23  C   UNL     1       6.083   5.352  18.621  0.00  0.00    +0.000 A 
ATOM     24  N   UNL     1       5.171   5.705  19.523  0.00  0.00    +0.000 NA
ATOM     25  N   UNL     1       3.995   5.261  19.043  0.00  0.00    +0.000 N 
ATOM     26  C   UNL     1       4.144   4.533  17.871  0.00  0.00    +0.000 A 
ATOM     27  C   UNL     1       5.499   4.622  17.550  0.00  0.00    +0.000 A 
BRANCH  23  29
ATOM     28  C   UNL     1       7.841   7.078  18.194  0.00  0.00    +0.000 C 
ATOM     29  C   UNL     1       7.509   5.740  18.838  0.00  0.00    +0.000 C 
ENDBRANCH  23  29
BRANCH  26  30
ATOM     30  C   UNL     1       3.078   3.834  17.059  0.00  0.00    +0.000 C 
ATOM     31  C   UNL     1       2.566   2.479  17.502  0.00  0.00    +0.000 C 
ENDBRANCH  26  30
BRANCH  27  32
ATOM     32  C   UNL     1       6.191   4.114  16.314  0.00  0.00    +0.000 C 
BRANCH  32  33
ATOM     33  C   UNL     1       6.491   5.135  15.233  0.00  0.00    +0.000 C 
ATOM     34  O   UNL     1       5.629   5.870  14.766  0.00  0.00    +0.000 OA
BRANCH  33  35
ATOM     35  O   UNL     1       7.796   5.235  14.869  0.00  0.00    +0.000 OA
ATOM     36  H   UNL     1       8.242   5.996  15.248  0.00  0.00    +0.000 HD
ENDBRANCH  33  35
ENDBRANCH  32  33
ENDBRANCH  27  32
ENDBRANCH  22  25
ENDBRANCH   1  22
TORSDOF 9
ENDMDL
MODEL 6
REMARK VINA RESULT:      -7.9      1.040      1.094
REMARK  Name = 
REMARK  11 active torsions:
REMARK  status: ('A' for Active; 'I' for Inactive)
REMARK    1  A    between atoms: C_1  and  C_2
REMARK    2  A    between atoms: C_2  and  C_3
REMARK    3  A    between atoms: N_5  and  C_6
REMARK    4  A    between atoms: C_6  and  C_7
REMARK    5  A    between atoms: C_10  and  N_11
REMARK    6  A    between atoms: C_12  and  C_14
REMARK    7  A    between atoms: C_26  and  C_27
REMARK    8  A    between atoms: C_27  and  C_28
REMARK    9  A    between atoms: C_29  and  C_30
REMARK   10  A    between atoms: C_30  and  C_31
REMARK   11  A    between atoms: C_31  and  O_33
REMARK                            x       y       z     vdW  Elec       q    Type
REMARK                         _______ _______ _______ _____ _____    ______ ____
ROOT
ATOM      1  C   UNL     1       2.072   6.953  19.351  0.00  0.00    +0.000 A 
ATOM      2  C   UNL     1       1.551   7.583  20.489  0.00  0.00    +0.000 A 
ATOM      3  C   UNL     1       1.224   8.937  20.471  0.00  0.00    +0.000 A 
ATOM      4  C   UNL     1       1.417   9.695  19.319  0.00  0.00    +0.000 A 
ATOM      5  C   UNL     1       1.865   9.057  18.153  0.00  0.00    +0.000 A 
ATOM      6  C   UNL     1       2.186   7.695  18.170  0.00  0.00    +0.000 A 
ENDROOT
BRANCH   4   7
ATOM      7  N   UNL     1       1.204  11.097  19.272  0.00  0.00    +0.000 N 
ATOM      8  C   UNL     1       1.905  12.023  18.530  0.00  0.00    +0.000 C 
ATOM      9  O   UNL     1       2.833  11.803  17.769  0.00  0.00    +0.000 OA
ATOM     10  H   UNL     1       0.406  11.420  19.800  0.00  0.00    +0.000 HD
BRANCH   8  11
ATOM     11  C   UNL     1       1.411  13.389  18.700  0.00  0.00    +0.000 A 
ATOM     12  C   UNL     1       0.128  13.895  18.664  0.00  0.00    +0.000 A 
ATOM     13  C   UNL     1       0.199  15.281  18.904  0.00  0.00    +0.000 A 
ATOM     14  C   UNL     1      -0.774  16.293  18.929  0.00  0.00    +0.000 A 
ATOM     15  C   UNL     1      -0.475  17.229  17.944  0.00  0.00    +0.000 A 
ATOM     16  C   UNL     1       0.843  17.638  17.773  0.00  0.00    +0.000 A 
ATOM     17  F   UNL     1       1.103  18.631  16.914  0.00  0.00    +0.000 F 
ATOM     18  C   UNL     1       1.907  16.928  18.344  0.00  0.00    +0.000 A 
ATOM     19  C   UNL     1       1.539  15.633  18.739  0.00  0.00    +0.000 A 
ATOM     20  N   UNL     1       2.257  14.471  18.903  0.00  0.00    +0.000 N 
ATOM     21  H   UNL     1       3.264  14.392  18.911  0.00  0.00    +0.000 HD
ENDBRANCH   8  11
ENDBRANCH   4   7
BRANCH   1  22
ATOM     22  C   UNL     1       2.678   5.574  19.474  0.00  0.00    +0.000 C 
BRANCH  22  25
ATOM     23  C   UNL     1       5.955   5.535  18.177  0.00  0.00    +0.000 A 
ATOM     24  N   UNL     1       5.049   5.943  19.062  0.00  0.00    +0.000 NA
ATOM     25  N   UNL     1       3.921   5.275  18.761  0.00  0.00    +0.000 N 
ATOM     26  C   UNL     1       4.107   4.358  17.736  0.00  0.00    +0.000 A 
ATOM     27  C   UNL     1       5.421   4.546  17.306  0.00  0.00    +0.000 A 
BRANCH  23  29
ATOM     28  C   UNL     1       8.059   5.798  19.503  0.00  0.00    +0.000 C 
ATOM     29  C   UNL     1       7.326   6.128  18.212  0.00  0.00    +0.000 C 
ENDBRANCH  23  29
BRANCH  26  30
ATOM     30  C   UNL     1       3.105   3.390  17.149  0.00  0.00    +0.000 C 
ATOM     31  C   UNL     1       2.643   2.202  17.967  0.00  0.00    +0.000 C 
ENDBRANCH  26  30
BRANCH  27  32
ATOM     32  C   UNL     1       6.113   3.897  16.138  0.00  0.00    +0.000 C 
BRANCH  32  33
ATOM     33  C   UNL     1       6.344   4.764  14.914  0.00  0.00    +0.000 C 
ATOM     34  O   UNL     1       7.360   5.433  14.765  0.00  0.00    +0.000 OA
BRANCH  33  35
ATOM     35  O   UNL     1       5.384   4.692  13.958  0.00  0.00    +0.000 OA
ATOM     36  H   UNL     1       4.817   5.466  13.923  0.00  0.00    +0.000 HD
ENDBRANCH  33  35
ENDBRANCH  32  33
ENDBRANCH  27  32
ENDBRANCH  22  25
ENDBRANCH   1  22
TORSDOF 9
ENDMDL
MODEL 7
REMARK VINA RESULT:      -7.8      5.167     11.857
REMARK  Name = 
REMARK  11 active torsions:
REMARK  status: ('A' for Active; 'I' for Inactive)
REMARK    1  A    between atoms: C_1  and  C_2
REMARK    2  A    between atoms: C_2  and  C_3
REMARK    3  A    between atoms: N_5  and  C_6
REMARK    4  A    between atoms: C_6  and  C_7
REMARK    5  A    between atoms: C_10  and  N_11
REMARK    6  A    between atoms: C_12  and  C_14
REMARK    7  A    between atoms: C_26  and  C_27
REMARK    8  A    between atoms: C_27  and  C_28
REMARK    9  A    between atoms: C_29  and  C_30
REMARK   10  A    between atoms: C_30  and  C_31
REMARK   11  A    between atoms: C_31  and  O_33
REMARK                            x       y       z     vdW  Elec       q    Type
REMARK                         _______ _______ _______ _____ _____    ______ ____
ROOT
ATOM      1  C   UNL     1      -1.138  12.417  20.053  0.00  0.00    +0.000 A 
ATOM      2  C   UNL     1       0.043  12.268  20.792  0.00  0.00    +0.000 A 
ATOM      3  C   UNL     1       0.852  11.146  20.631  0.00  0.00    +0.000 A 
ATOM      4  C   UNL     1       0.496  10.141  19.735  0.00  0.00    +0.000 A 
ATOM      5  C   UNL     1      -0.643  10.316  18.936  0.00  0.00    +0.000 A 
ATOM      6  C   UNL     1      -1.451  11.448  19.092  0.00  0.00    +0.000 A 
ENDROOT
BRANCH   4   7
ATOM      7  N   UNL     1       1.221   8.928  19.606  0.00  0.00    +0.000 N 
ATOM      8  C   UNL     1       1.994   8.528  18.537  0.00  0.00    +0.000 C 
ATOM      9  O   UNL     1       2.204   9.152  17.510  0.00  0.00    +0.000 OA
ATOM     10  H   UNL     1       1.203   8.338  20.424  0.00  0.00    +0.000 HD
BRANCH   8  11
ATOM     11  C   UNL     1       2.621   7.223  18.738  0.00  0.00    +0.000 A 
ATOM     12  C   UNL     1       3.343   6.426  17.873  0.00  0.00    +0.000 A 
ATOM     13  C   UNL     1       3.739   5.270  18.572  0.00  0.00    +0.000 A 
ATOM     14  C   UNL     1       4.435   4.114  18.182  0.00  0.00    +0.000 A 
ATOM     15  C   UNL     1       3.610   3.008  18.368  0.00  0.00    +0.000 A 
ATOM     16  C   UNL     1       2.850   2.915  19.528  0.00  0.00    +0.000 A 
ATOM     17  F   UNL     1       2.161   1.790  19.758  0.00  0.00    +0.000 F 
ATOM     18  C   UNL     1       2.657   4.022  20.365  0.00  0.00    +0.000 A 
ATOM     19  C   UNL     1       2.962   5.236  19.731  0.00  0.00    +0.000 A 
ATOM     20  N   UNL     1       2.532   6.525  19.936  0.00  0.00    +0.000 N 
ATOM     21  H   UNL     1       2.003   6.855  20.730  0.00  0.00    +0.000 HD
ENDBRANCH   8  11
ENDBRANCH   4   7
BRANCH   1  22
ATOM     22  C   UNL     1      -2.132  13.486  20.444  0.00  0.00    +0.000 C 
BRANCH  22  25
ATOM     23  C   UNL     1      -5.477  12.696  21.223  0.00  0.00    +0.000 A 
ATOM     24  N   UNL     1      -4.501  12.931  20.350  0.00  0.00    +0.000 NA
ATOM     25  N   UNL     1      -3.387  13.093  21.087  0.00  0.00    +0.000 N 
ATOM     26  C   UNL     1      -3.611  12.873  22.439  0.00  0.00    +0.000 A 
ATOM     27  C   UNL     1      -4.985  12.659  22.556  0.00  0.00    +0.000 A 
BRANCH  23  29
ATOM     28  C   UNL     1      -7.234  11.042  20.563  0.00  0.00    +0.000 C 
ATOM     29  C   UNL     1      -6.873  12.512  20.722  0.00  0.00    +0.000 C 
ENDBRANCH  23  29
BRANCH  26  30
ATOM     30  C   UNL     1      -2.613  12.909  23.573  0.00  0.00    +0.000 C 
ATOM     31  C   UNL     1      -1.822  14.174  23.837  0.00  0.00    +0.000 C 
ENDBRANCH  26  30
BRANCH  27  32
ATOM     32  C   UNL     1      -5.790  12.489  23.816  0.00  0.00    +0.000 C 
BRANCH  32  33
ATOM     33  C   UNL     1      -6.747  13.611  24.171  0.00  0.00    +0.000 C 
ATOM     34  O   UNL     1      -7.907  13.403  24.508  0.00  0.00    +0.000 OA
BRANCH  33  35
ATOM     35  O   UNL     1      -6.213  14.859  24.164  0.00  0.00    +0.000 OA
ATOM     36  H   UNL     1      -6.584  15.431  23.489  0.00  0.00    +0.000 HD
ENDBRANCH  33  35
ENDBRANCH  32  33
ENDBRANCH  27  32
ENDBRANCH  22  25
ENDBRANCH   1  22
TORSDOF 9
ENDMDL
MODEL 8
REMARK VINA RESULT:      -7.8      4.144      4.978
REMARK  Name = 
REMARK  11 active torsions:
REMARK  status: ('A' for Active; 'I' for Inactive)
REMARK    1  A    between atoms: C_1  and  C_2
REMARK    2  A    between atoms: C_2  and  C_3
REMARK    3  A    between atoms: N_5  and  C_6
REMARK    4  A    between atoms: C_6  and  C_7
REMARK    5  A    between atoms: C_10  and  N_11
REMARK    6  A    between atoms: C_12  and  C_14
REMARK    7  A    between atoms: C_26  and  C_27
REMARK    8  A    between atoms: C_27  and  C_28
REMARK    9  A    between atoms: C_29  and  C_30
REMARK   10  A    between atoms: C_30  and  C_31
REMARK   11  A    between atoms: C_31  and  O_33
REMARK                            x       y       z     vdW  Elec       q    Type
REMARK                         _______ _______ _______ _____ _____    ______ ____
ROOT
ATOM      1  C   UNL     1       2.329   8.430  18.298  0.00  0.00    +0.000 A 
ATOM      2  C   UNL     1       1.969   9.699  17.825  0.00  0.00    +0.000 A 
ATOM      3  C   UNL     1       1.081  10.503  18.536  0.00  0.00    +0.000 A 
ATOM      4  C   UNL     1       0.525  10.056  19.732  0.00  0.00    +0.000 A 
ATOM      5  C   UNL     1       0.938   8.820  20.252  0.00  0.00    +0.000 A 
ATOM      6  C   UNL     1       1.836   8.017  19.542  0.00  0.00    +0.000 A 
ENDROOT
BRANCH   4   7
ATOM      7  N   UNL     1      -0.464  10.782  20.445  0.00  0.00    +0.000 N 
ATOM      8  C   UNL     1      -0.518  11.006  21.803  0.00  0.00    +0.000 C 
ATOM      9  O   UNL     1       0.284  10.628  22.641  0.00  0.00    +0.000 OA
ATOM     10  H   UNL     1      -1.160  11.226  19.863  0.00  0.00    +0.000 HD
BRANCH   8  11
ATOM     11  C   UNL     1      -1.667  11.815  22.208  0.00  0.00    +0.000 A 
ATOM     12  C   UNL     1      -2.132  12.158  23.461  0.00  0.00    +0.000 A 
ATOM     13  C   UNL     1      -3.271  12.970  23.296  0.00  0.00    +0.000 A 
ATOM     14  C   UNL     1      -4.164  13.551  24.210  0.00  0.00    +0.000 A 
ATOM     15  C   UNL     1      -5.440  13.047  23.975  0.00  0.00    +0.000 A 
ATOM     16  C   UNL     1      -5.887  12.916  22.665  0.00  0.00    +0.000 A 
ATOM     17  F   UNL     1      -7.159  12.553  22.452  0.00  0.00    +0.000 F 
ATOM     18  C   UNL     1      -5.003  12.987  21.581  0.00  0.00    +0.000 A 
ATOM     19  C   UNL     1      -3.665  12.816  21.966  0.00  0.00    +0.000 A 
ATOM     20  N   UNL     1      -2.553  12.367  21.293  0.00  0.00    +0.000 N 
ATOM     21  H   UNL     1      -2.483  12.220  20.296  0.00  0.00    +0.000 HD
ENDBRANCH   8  11
ENDBRANCH   4   7
BRANCH   1  22
ATOM     22  C   UNL     1       3.059   7.474  17.384  0.00  0.00    +0.000 C 
BRANCH  22  25
ATOM     23  C   UNL     1       5.380   5.231  18.800  0.00  0.00    +0.000 A 
ATOM     24  N   UNL     1       4.990   6.458  18.465  0.00  0.00    +0.000 NA
ATOM     25  N   UNL     1       3.749   6.320  17.964  0.00  0.00    +0.000 N 
ATOM     26  C   UNL     1       3.285   5.015  18.053  0.00  0.00    +0.000 A 
ATOM     27  C   UNL     1       4.357   4.275  18.554  0.00  0.00    +0.000 A 
BRANCH  23  29
ATOM     28  C   UNL     1       7.752   6.024  18.785  0.00  0.00    +0.000 C 
ATOM     29  C   UNL     1       6.752   5.029  19.356  0.00  0.00    +0.000 C 
ENDBRANCH  23  29
BRANCH  26  30
ATOM     30  C   UNL     1       1.935   4.470  17.649  0.00  0.00    +0.000 C 
ATOM     31  C   UNL     1       1.133   3.644  18.634  0.00  0.00    +0.000 C 
ENDBRANCH  26  30
BRANCH  27  32
ATOM     32  C   UNL     1       4.445   2.784  18.738  0.00  0.00    +0.000 C 
BRANCH  32  33
ATOM     33  C   UNL     1       4.392   2.269  20.165  0.00  0.00    +0.000 C 
ATOM     34  O   UNL     1       3.479   2.552  20.932  0.00  0.00    +0.000 OA
BRANCH  33  35
ATOM     35  O   UNL     1       5.385   1.411  20.513  0.00  0.00    +0.000 OA
ATOM     36  H   UNL     1       5.066   0.550  20.794  0.00  0.00    +0.000 HD
ENDBRANCH  33  35
ENDBRANCH  32  33
ENDBRANCH  27  32
ENDBRANCH  22  25
ENDBRANCH   1  22
TORSDOF 9
ENDMDL
MODEL 9
REMARK VINA RESULT:      -7.8      5.325     11.984
REMARK  Name = 
REMARK  11 active torsions:
REMARK  status: ('A' for Active; 'I' for Inactive)
REMARK    1  A    between atoms: C_1  and  C_2
REMARK    2  A    between atoms: C_2  and  C_3
REMARK    3  A    between atoms: N_5  and  C_6
REMARK    4  A    between atoms: C_6  and  C_7
REMARK    5  A    between atoms: C_10  and  N_11
REMARK    6  A    between atoms: C_12  and  C_14
REMARK    7  A    between atoms: C_26  and  C_27
REMARK    8  A    between atoms: C_27  and  C_28
REMARK    9  A    between atoms: C_29  and  C_30
REMARK   10  A    between atoms: C_30  and  C_31
REMARK   11  A    between atoms: C_31  and  O_33
REMARK                            x       y       z     vdW  Elec       q    Type
REMARK                         _______ _______ _______ _____ _____    ______ ____
ROOT
ATOM      1  C   UNL     1      -1.732  12.787  20.528  0.00  0.00    +0.000 A 
ATOM      2  C   UNL     1      -1.402  11.942  21.596  0.00  0.00    +0.000 A 
ATOM      3  C   UNL     1      -0.604  10.817  21.399  0.00  0.00    +0.000 A 
ATOM      4  C   UNL     1      -0.126  10.504  20.129  0.00  0.00    +0.000 A 
ATOM      5  C   UNL     1      -0.387  11.383  19.069  0.00  0.00    +0.000 A 
ATOM      6  C   UNL     1      -1.181  12.518  19.270  0.00  0.00    +0.000 A 
ENDROOT
BRANCH   4   7
ATOM      7  N   UNL     1       0.599   9.317  19.848  0.00  0.00    +0.000 N 
ATOM      8  C   UNL     1       1.362   8.577  20.724  0.00  0.00    +0.000 C 
ATOM      9  O   UNL     1       1.545   8.804  21.909  0.00  0.00    +0.000 OA
ATOM     10  H   UNL     1       0.476   8.961  18.910  0.00  0.00    +0.000 HD
BRANCH   8  11
ATOM     11  C   UNL     1       1.961   7.394  20.109  0.00  0.00    +0.000 A 
ATOM     12  C   UNL     1       2.433   7.185  18.828  0.00  0.00    +0.000 A 
ATOM     13  C   UNL     1       2.926   5.867  18.756  0.00  0.00    +0.000 A 
ATOM     14  C   UNL     1       3.465   5.111  17.703  0.00  0.00    +0.000 A 
ATOM     15  C   UNL     1       2.657   3.998  17.490  0.00  0.00    +0.000 A 
ATOM     16  C   UNL     1       2.176   3.288  18.584  0.00  0.00    +0.000 A 
ATOM     17  F   UNL     1       1.509   2.147  18.369  0.00  0.00    +0.000 F 
ATOM     18  C   UNL     1       2.226   3.820  19.879  0.00  0.00    +0.000 A 
ATOM     19  C   UNL     1       2.432   5.208  19.882  0.00  0.00    +0.000 A 
ATOM     20  N   UNL     1       2.115   6.193  20.788  0.00  0.00    +0.000 N 
ATOM     21  H   UNL     1       1.794   6.048  21.734  0.00  0.00    +0.000 HD
ENDBRANCH   8  11
ENDBRANCH   4   7
BRANCH   1  22
ATOM     22  C   UNL     1      -2.815  13.825  20.707  0.00  0.00    +0.000 C 
BRANCH  22  25
ATOM     23  C   UNL     1      -6.047  12.432  20.516  0.00  0.00    +0.000 A 
ATOM     24  N   UNL     1      -4.790  12.541  20.092  0.00  0.00    +0.000 NA
ATOM     25  N   UNL     1      -4.191  13.387  20.949  0.00  0.00    +0.000 N 
ATOM     26  C   UNL     1      -5.026  13.764  21.991  0.00  0.00    +0.000 A 
ATOM     27  C   UNL     1      -6.263  13.187  21.700  0.00  0.00    +0.000 A 
BRANCH  23  29
ATOM     28  C   UNL     1      -7.024  11.944  18.266  0.00  0.00    +0.000 C 
ATOM     29  C   UNL     1      -7.004  11.584  19.744  0.00  0.00    +0.000 C 
ENDBRANCH  23  29
BRANCH  26  30
ATOM     30  C   UNL     1      -4.711  14.654  23.171  0.00  0.00    +0.000 C 
ATOM     31  C   UNL     1      -3.776  14.160  24.256  0.00  0.00    +0.000 C 
ENDBRANCH  26  30
BRANCH  27  32
ATOM     32  C   UNL     1      -7.563  13.369  22.436  0.00  0.00    +0.000 C 
BRANCH  32  33
ATOM     33  C   UNL     1      -7.692  12.670  23.776  0.00  0.00    +0.000 C 
ATOM     34  O   UNL     1      -7.542  11.461  23.904  0.00  0.00    +0.000 OA
BRANCH  33  35
ATOM     35  O   UNL     1      -7.908  13.484  24.841  0.00  0.00    +0.000 OA
ATOM     36  H   UNL     1      -8.065  14.399  24.598  0.00  0.00    +0.000 HD
ENDBRANCH  33  35
ENDBRANCH  32  33
ENDBRANCH  27  32
ENDBRANCH  22  25
ENDBRANCH   1  22
TORSDOF 9
ENDMDL
