MODEL 1
REMARK VINA RESULT:      -5.2      0.000      0.000
REMARK  Name = 
REMARK  9 active torsions:
REMARK  status: ('A' for Active; 'I' for Inactive)
REMARK    1  A    between atoms: C_1  and  C_2
REMARK    2  A    between atoms: C_2  and  C_3
REMARK    3  A    between atoms: C_3  and  C_4
REMARK    4  A    between atoms: C_4  and  C_5
REMARK    5  A    between atoms: C_5  and  C_6
REMARK    6  A    between atoms: C_6  and  C_7
REMARK    7  A    between atoms: C_7  and  C_8
REMARK    8  A    between atoms: C_8  and  O_10
REMARK    9  A    between atoms: O_10  and  C_11
REMARK                            x       y       z     vdW  Elec       q    Type
REMARK                         _______ _______ _______ _____ _____    ______ ____
ROOT
ATOM      1  C   UNL     1       5.986   5.024  17.877  0.00  0.00    +0.000 C 
ATOM      2  C   UNL     1       6.348   5.501  19.274  0.00  0.00    +0.000 C 
ATOM      3  O   UNL     1       6.130   4.117  18.997  0.00  0.00    +0.000 OA
ENDROOT
BRANCH   1   4
ATOM      4  C   UNL     1       7.079   4.888  16.873  0.00  0.00    +0.000 C 
ATOM      5  O   UNL     1       8.070   4.202  17.081  0.00  0.00    +0.000 OA
BRANCH   4   6
ATOM      6  O   UNL     1       6.824   5.614  15.753  0.00  0.00    +0.000 OA
ATOM      7  C   UNL     1       6.865   4.857  14.543  0.00  0.00    +0.000 C 
ENDBRANCH   4   6
ENDBRANCH   1   4
BRANCH   1   8
ATOM      8  C   UNL     1       4.552   5.122  17.418  0.00  0.00    +0.000 C 
BRANCH   8   9
ATOM      9  C   UNL     1       3.978   3.781  16.953  0.00  0.00    +0.000 C 
BRANCH   9  10
ATOM     10  C   UNL     1       2.524   3.646  17.410  0.00  0.00    +0.000 C 
BRANCH  10  11
ATOM     11  C   UNL     1       2.222   2.273  18.009  0.00  0.00    +0.000 C 
BRANCH  11  13
ATOM     12  C   UNL     1       0.965   3.378  19.903  0.00  0.00    +0.000 C 
ATOM     13  C   UNL     1       2.043   2.377  19.526  0.00  0.00    +0.000 C 
ENDBRANCH  11  13
ENDBRANCH  10  11
ENDBRANCH   9  10
ENDBRANCH   8   9
ENDBRANCH   1   8
TORSDOF 7
ENDMDL
MODEL 2
REMARK VINA RESULT:      -5.2      2.650      5.170
REMARK  Name = 
REMARK  9 active torsions:
REMARK  status: ('A' for Active; 'I' for Inactive)
REMARK    1  A    between atoms: C_1  and  C_2
REMARK    2  A    between atoms: C_2  and  C_3
REMARK    3  A    between atoms: C_3  and  C_4
REMARK    4  A    between atoms: C_4  and  C_5
REMARK    5  A    between atoms: C_5  and  C_6
REMARK    6  A    between atoms: C_6  and  C_7
REMARK    7  A    between atoms: C_7  and  C_8
REMARK    8  A    between atoms: C_8  and  O_10
REMARK    9  A    between atoms: O_10  and  C_11
REMARK                            x       y       z     vdW  Elec       q    Type
REMARK                         _______ _______ _______ _____ _____    ______ ____
ROOT
ATOM      1  C   UNL     1       5.812   4.836  16.065  0.00  0.00    +0.000 C 
ATOM      2  C   UNL     1       4.601   5.234  16.895  0.00  0.00    +0.000 C 
ATOM      3  O   UNL     1       5.116   3.902  16.925  0.00  0.00    +0.000 OA
ENDROOT
BRANCH   1   4
ATOM      4  C   UNL     1       7.164   5.200  16.574  0.00  0.00    +0.000 C 
ATOM      5  O   UNL     1       7.900   4.381  17.106  0.00  0.00    +0.000 OA
BRANCH   4   6
ATOM      6  O   UNL     1       7.437   6.517  16.374  0.00  0.00    +0.000 OA
ATOM      7  C   UNL     1       7.562   7.277  17.576  0.00  0.00    +0.000 C 
ENDBRANCH   4   6
ENDBRANCH   1   4
BRANCH   1   8
ATOM      8  C   UNL     1       5.621   4.502  14.607  0.00  0.00    +0.000 C 
BRANCH   8   9
ATOM      9  C   UNL     1       6.942   4.389  13.840  0.00  0.00    +0.000 C 
BRANCH   9  10
ATOM     10  C   UNL     1       6.672   4.032  12.378  0.00  0.00    +0.000 C 
BRANCH  10  11
ATOM     11  C   UNL     1       5.390   3.219  12.198  0.00  0.00    +0.000 C 
BRANCH  11  13
ATOM     12  C   UNL     1       7.156   1.760  11.131  0.00  0.00    +0.000 C 
ATOM     13  C   UNL     1       5.676   1.930  11.422  0.00  0.00    +0.000 C 
ENDBRANCH  11  13
ENDBRANCH  10  11
ENDBRANCH   9  10
ENDBRANCH   8   9
ENDBRANCH   1   8
TORSDOF 7
ENDMDL
MODEL 3
REMARK VINA RESULT:      -5.2      0.842      1.244
REMARK  Name = 
REMARK  9 active torsions:
REMARK  status: ('A' for Active; 'I' for Inactive)
REMARK    1  A    between atoms: C_1  and  C_2
REMARK    2  A    between atoms: C_2  and  C_3
REMARK    3  A    between atoms: C_3  and  C_4
REMARK    4  A    between atoms: C_4  and  C_5
REMARK    5  A    between atoms: C_5  and  C_6
REMARK    6  A    between atoms: C_6  and  C_7
REMARK    7  A    between atoms: C_7  and  C_8
REMARK    8  A    between atoms: C_8  and  O_10
REMARK    9  A    between atoms: O_10  and  C_11
REMARK                            x       y       z     vdW  Elec       q    Type
REMARK                         _______ _______ _______ _____ _____    ______ ____
ROOT
ATOM      1  C   UNL     1       6.109   5.382  17.791  0.00  0.00    +0.000 C 
ATOM      2  C   UNL     1       6.523   5.441  19.253  0.00  0.00    +0.000 C 
ATOM      3  O   UNL     1       6.476   4.202  18.545  0.00  0.00    +0.000 OA
ENDROOT
BRANCH   1   4
ATOM      4  C   UNL     1       7.118   5.751  16.758  0.00  0.00    +0.000 C 
ATOM      5  O   UNL     1       7.531   6.896  16.634  0.00  0.00    +0.000 OA
BRANCH   4   6
ATOM      6  O   UNL     1       7.483   4.678  16.008  0.00  0.00    +0.000 OA
ATOM      7  C   UNL     1       7.084   4.758  14.639  0.00  0.00    +0.000 C 
ENDBRANCH   4   6
ENDBRANCH   1   4
BRANCH   1   8
ATOM      8  C   UNL     1       4.641   5.390  17.445  0.00  0.00    +0.000 C 
BRANCH   8   9
ATOM      9  C   UNL     1       4.172   4.086  16.794  0.00  0.00    +0.000 C 
BRANCH   9  10
ATOM     10  C   UNL     1       3.077   3.439  17.644  0.00  0.00    +0.000 C 
BRANCH  10  11
ATOM     11  C   UNL     1       1.898   4.377  17.897  0.00  0.00    +0.000 C 
BRANCH  11  13
ATOM     12  C   UNL     1       0.935   3.080  19.841  0.00  0.00    +0.000 C 
ATOM     13  C   UNL     1       1.537   4.398  19.385  0.00  0.00    +0.000 C 
ENDBRANCH  11  13
ENDBRANCH  10  11
ENDBRANCH   9  10
ENDBRANCH   8   9
ENDBRANCH   1   8
TORSDOF 7
ENDMDL
MODEL 4
REMARK VINA RESULT:      -5.1      1.496      2.373
REMARK  Name = 
REMARK  9 active torsions:
REMARK  status: ('A' for Active; 'I' for Inactive)
REMARK    1  A    between atoms: C_1  and  C_2
REMARK    2  A    between atoms: C_2  and  C_3
REMARK    3  A    between atoms: C_3  and  C_4
REMARK    4  A    between atoms: C_4  and  C_5
REMARK    5  A    between atoms: C_5  and  C_6
REMARK    6  A    between atoms: C_6  and  C_7
REMARK    7  A    between atoms: C_7  and  C_8
REMARK    8  A    between atoms: C_8  and  O_10
REMARK    9  A    between atoms: O_10  and  C_11
REMARK                            x       y       z     vdW  Elec       q    Type
REMARK                         _______ _______ _______ _____ _____    ______ ____
ROOT
ATOM      1  C   UNL     1       5.902   4.527  16.573  0.00  0.00    +0.000 C 
ATOM      2  C   UNL     1       5.876   4.060  15.126  0.00  0.00    +0.000 C 
ATOM      3  O   UNL     1       5.370   5.343  15.501  0.00  0.00    +0.000 OA
ENDROOT
BRANCH   1   4
ATOM      4  C   UNL     1       7.185   5.050  17.121  0.00  0.00    +0.000 C 
ATOM      5  O   UNL     1       7.845   4.424  17.939  0.00  0.00    +0.000 OA
BRANCH   4   6
ATOM      6  O   UNL     1       7.490   6.271  16.606  0.00  0.00    +0.000 OA
ATOM      7  C   UNL     1       7.532   7.320  17.573  0.00  0.00    +0.000 C 
ENDBRANCH   4   6
ENDBRANCH   1   4
BRANCH   1   8
ATOM      8  C   UNL     1       4.818   4.061  17.512  0.00  0.00    +0.000 C 
BRANCH   8   9
ATOM      9  C   UNL     1       4.163   5.208  18.288  0.00  0.00    +0.000 C 
BRANCH   9  10
ATOM     10  C   UNL     1       2.698   5.353  17.874  0.00  0.00    +0.000 C 
BRANCH  10  11
ATOM     11  C   UNL     1       1.795   4.311  18.533  0.00  0.00    +0.000 C 
BRANCH  11  13
ATOM     12  C   UNL     1       1.346   3.348  20.826  0.00  0.00    +0.000 C 
ATOM     13  C   UNL     1       1.633   4.607  20.026  0.00  0.00    +0.000 C 
ENDBRANCH  11  13
ENDBRANCH  10  11
ENDBRANCH   9  10
ENDBRANCH   8   9
ENDBRANCH   1   8
TORSDOF 7
ENDMDL
MODEL 5
REMARK VINA RESULT:      -5.1      1.129      1.499
REMARK  Name = 
REMARK  9 active torsions:
REMARK  status: ('A' for Active; 'I' for Inactive)
REMARK    1  A    between atoms: C_1  and  C_2
REMARK    2  A    between atoms: C_2  and  C_3
REMARK    3  A    between atoms: C_3  and  C_4
REMARK    4  A    between atoms: C_4  and  C_5
REMARK    5  A    between atoms: C_5  and  C_6
REMARK    6  A    between atoms: C_6  and  C_7
REMARK    7  A    between atoms: C_7  and  C_8
REMARK    8  A    between atoms: C_8  and  O_10
REMARK    9  A    between atoms: O_10  and  C_11
REMARK                            x       y       z     vdW  Elec       q    Type
REMARK                         _______ _______ _______ _____ _____    ______ ____
ROOT
ATOM      1  C   UNL     1       4.980   4.368  17.949  0.00  0.00    +0.000 C 
ATOM      2  C   UNL     1       5.076   5.222  19.204  0.00  0.00    +0.000 C 
ATOM      3  O   UNL     1       5.429   3.837  19.219  0.00  0.00    +0.000 OA
ENDROOT
BRANCH   1   4
ATOM      4  C   UNL     1       6.072   4.472  16.941  0.00  0.00    +0.000 C 
ATOM      5  O   UNL     1       7.251   4.362  17.248  0.00  0.00    +0.000 OA
BRANCH   4   6
ATOM      6  O   UNL     1       5.584   4.703  15.694  0.00  0.00    +0.000 OA
ATOM      7  C   UNL     1       6.351   4.110  14.646  0.00  0.00    +0.000 C 
ENDBRANCH   4   6
ENDBRANCH   1   4
BRANCH   1   8
ATOM      8  C   UNL     1       3.639   3.804  17.550  0.00  0.00    +0.000 C 
BRANCH   8   9
ATOM      9  C   UNL     1       3.479   2.325  17.916  0.00  0.00    +0.000 C 
BRANCH   9  10
ATOM     10  C   UNL     1       2.212   2.125  18.750  0.00  0.00    +0.000 C 
BRANCH  10  11
ATOM     11  C   UNL     1       1.497   3.439  19.058  0.00  0.00    +0.000 C 
BRANCH  11  13
ATOM     12  C   UNL     1       2.219   3.213  21.469  0.00  0.00    +0.000 C 
ATOM     13  C   UNL     1       1.061   3.483  20.525  0.00  0.00    +0.000 C 
ENDBRANCH  11  13
ENDBRANCH  10  11
ENDBRANCH   9  10
ENDBRANCH   8   9
ENDBRANCH   1   8
TORSDOF 7
ENDMDL
MODEL 6
REMARK VINA RESULT:      -5.0      1.346      1.937
REMARK  Name = 
REMARK  9 active torsions:
REMARK  status: ('A' for Active; 'I' for Inactive)
REMARK    1  A    between atoms: C_1  and  C_2
REMARK    2  A    between atoms: C_2  and  C_3
REMARK    3  A    between atoms: C_3  and  C_4
REMARK    4  A    between atoms: C_4  and  C_5
REMARK    5  A    between atoms: C_5  and  C_6
REMARK    6  A    between atoms: C_6  and  C_7
REMARK    7  A    between atoms: C_7  and  C_8
REMARK    8  A    between atoms: C_8  and  O_10
REMARK    9  A    between atoms: O_10  and  C_11
REMARK                            x       y       z     vdW  Elec       q    Type
REMARK                         _______ _______ _______ _____ _____    ______ ____
ROOT
ATOM      1  C   UNL     1       4.749   4.354  17.907  0.00  0.00    +0.000 C 
ATOM      2  C   UNL     1       5.011   5.102  19.205  0.00  0.00    +0.000 C 
ATOM      3  O   UNL     1       5.959   4.170  18.682  0.00  0.00    +0.000 OA
ENDROOT
BRANCH   1   4
ATOM      4  C   UNL     1       4.983   5.070  16.622  0.00  0.00    +0.000 C 
ATOM      5  O   UNL     1       4.596   6.216  16.437  0.00  0.00    +0.000 OA
BRANCH   4   6
ATOM      6  O   UNL     1       5.650   4.293  15.729  0.00  0.00    +0.000 OA
ATOM      7  C   UNL     1       6.956   4.769  15.400  0.00  0.00    +0.000 C 
ENDBRANCH   4   6
ENDBRANCH   1   4
BRANCH   1   8
ATOM      8  C   UNL     1       3.875   3.125  17.935  0.00  0.00    +0.000 C 
BRANCH   8   9
ATOM      9  C   UNL     1       2.519   3.338  17.257  0.00  0.00    +0.000 C 
BRANCH   9  10
ATOM     10  C   UNL     1       1.535   3.975  18.239  0.00  0.00    +0.000 C 
BRANCH  10  11
ATOM     11  C   UNL     1       0.914   2.956  19.194  0.00  0.00    +0.000 C 
BRANCH  11  13
ATOM     12  C   UNL     1       2.357   3.129  21.261  0.00  0.00    +0.000 C 
ATOM     13  C   UNL     1       1.008   3.447  20.641  0.00  0.00    +0.000 C 
ENDBRANCH  11  13
ENDBRANCH  10  11
ENDBRANCH   9  10
ENDBRANCH   8   9
ENDBRANCH   1   8
TORSDOF 7
ENDMDL
MODEL 7
REMARK VINA RESULT:      -5.0      1.097      1.263
REMARK  Name = 
REMARK  9 active torsions:
REMARK  status: ('A' for Active; 'I' for Inactive)
REMARK    1  A    between atoms: C_1  and  C_2
REMARK    2  A    between atoms: C_2  and  C_3
REMARK    3  A    between atoms: C_3  and  C_4
REMARK    4  A    between atoms: C_4  and  C_5
REMARK    5  A    between atoms: C_5  and  C_6
REMARK    6  A    between atoms: C_6  and  C_7
REMARK    7  A    between atoms: C_7  and  C_8
REMARK    8  A    between atoms: C_8  and  O_10
REMARK    9  A    between atoms: O_10  and  C_11
REMARK                            x       y       z     vdW  Elec       q    Type
REMARK                         _______ _______ _______ _____ _____    ______ ____
ROOT
ATOM      1  C   UNL     1       6.661   5.484  18.078  0.00  0.00    +0.000 C 
ATOM      2  C   UNL     1       7.722   6.124  18.959  0.00  0.00    +0.000 C 
ATOM      3  O   UNL     1       7.452   4.723  19.023  0.00  0.00    +0.000 OA
ENDROOT
BRANCH   1   4
ATOM      4  C   UNL     1       7.007   5.191  16.659  0.00  0.00    +0.000 C 
ATOM      5  O   UNL     1       7.883   4.393  16.356  0.00  0.00    +0.000 OA
BRANCH   4   6
ATOM      6  O   UNL     1       6.246   5.915  15.797  0.00  0.00    +0.000 OA
ATOM      7  C   UNL     1       5.709   5.158  14.712  0.00  0.00    +0.000 C 
ENDBRANCH   4   6
ENDBRANCH   1   4
BRANCH   1   8
ATOM      8  C   UNL     1       5.215   5.566  18.498  0.00  0.00    +0.000 C 
BRANCH   8   9
ATOM      9  C   UNL     1       4.498   4.214  18.446  0.00  0.00    +0.000 C 
BRANCH   9  10
ATOM     10  C   UNL     1       3.373   4.256  17.411  0.00  0.00    +0.000 C 
BRANCH  10  11
ATOM     11  C   UNL     1       2.008   4.541  18.036  0.00  0.00    +0.000 C 
BRANCH  11  13
ATOM     12  C   UNL     1       1.034   4.038  20.313  0.00  0.00    +0.000 C 
ATOM     13  C   UNL     1       1.644   3.454  19.050  0.00  0.00    +0.000 C 
ENDBRANCH  11  13
ENDBRANCH  10  11
ENDBRANCH   9  10
ENDBRANCH   8   9
ENDBRANCH   1   8
TORSDOF 7
ENDMDL
MODEL 8
REMARK VINA RESULT:      -5.0      1.952      3.394
REMARK  Name = 
REMARK  9 active torsions:
REMARK  status: ('A' for Active; 'I' for Inactive)
REMARK    1  A    between atoms: C_1  and  C_2
REMARK    2  A    between atoms: C_2  and  C_3
REMARK    3  A    between atoms: C_3  and  C_4
REMARK    4  A    between atoms: C_4  and  C_5
REMARK    5  A    between atoms: C_5  and  C_6
REMARK    6  A    between atoms: C_6  and  C_7
REMARK    7  A    between atoms: C_7  and  C_8
REMARK    8  A    between atoms: C_8  and  O_10
REMARK    9  A    between atoms: O_10  and  C_11
REMARK                            x       y       z     vdW  Elec       q    Type
REMARK                         _______ _______ _______ _____ _____    ______ ____
ROOT
ATOM      1  C   UNL     1       4.378   5.119  17.865  0.00  0.00    +0.000 C 
ATOM      2  C   UNL     1       4.935   5.326  16.465  0.00  0.00    +0.000 C 
ATOM      3  O   UNL     1       5.292   6.194  17.542  0.00  0.00    +0.000 OA
ENDROOT
BRANCH   1   4
ATOM      4  C   UNL     1       4.995   4.066  18.719  0.00  0.00    +0.000 C 
ATOM      5  O   UNL     1       6.050   4.246  19.310  0.00  0.00    +0.000 OA
BRANCH   4   6
ATOM      6  O   UNL     1       4.247   2.931  18.735  0.00  0.00    +0.000 OA
ATOM      7  C   UNL     1       4.503   2.077  19.850  0.00  0.00    +0.000 C 
ENDBRANCH   4   6
ENDBRANCH   1   4
BRANCH   1   8
ATOM      8  C   UNL     1       2.998   5.636  18.187  0.00  0.00    +0.000 C 
BRANCH   8   9
ATOM      9  C   UNL     1       2.867   6.138  19.628  0.00  0.00    +0.000 C 
BRANCH   9  10
ATOM     10  C   UNL     1       1.694   5.444  20.321  0.00  0.00    +0.000 C 
BRANCH  10  11
ATOM     11  C   UNL     1       2.146   4.330  21.266  0.00  0.00    +0.000 C 
BRANCH  11  13
ATOM     12  C   UNL     1       0.810   2.895  19.671  0.00  0.00    +0.000 C 
ATOM     13  C   UNL     1       1.251   3.097  21.110  0.00  0.00    +0.000 C 
ENDBRANCH  11  13
ENDBRANCH  10  11
ENDBRANCH   9  10
ENDBRANCH   8   9
ENDBRANCH   1   8
TORSDOF 7
ENDMDL
MODEL 9
REMARK VINA RESULT:      -4.9      1.554      1.773
REMARK  Name = 
REMARK  9 active torsions:
REMARK  status: ('A' for Active; 'I' for Inactive)
REMARK    1  A    between atoms: C_1  and  C_2
REMARK    2  A    between atoms: C_2  and  C_3
REMARK    3  A    between atoms: C_3  and  C_4
REMARK    4  A    between atoms: C_4  and  C_5
REMARK    5  A    between atoms: C_5  and  C_6
REMARK    6  A    between atoms: C_6  and  C_7
REMARK    7  A    between atoms: C_7  and  C_8
REMARK    8  A    between atoms: C_8  and  O_10
REMARK    9  A    between atoms: O_10  and  C_11
REMARK                            x       y       z     vdW  Elec       q    Type
REMARK                         _______ _______ _______ _____ _____    ______ ____
ROOT
ATOM      1  C   UNL     1       5.295   5.072  16.613  0.00  0.00    +0.000 C 
ATOM      2  C   UNL     1       5.160   6.557  16.319  0.00  0.00    +0.000 C 
ATOM      3  O   UNL     1       5.597   6.091  17.596  0.00  0.00    +0.000 OA
ENDROOT
BRANCH   1   4
ATOM      4  C   UNL     1       6.507   4.363  16.116  0.00  0.00    +0.000 C 
ATOM      5  O   UNL     1       7.617   4.565  16.589  0.00  0.00    +0.000 OA
BRANCH   4   6
ATOM      6  O   UNL     1       6.208   3.507  15.103  0.00  0.00    +0.000 OA
ATOM      7  C   UNL     1       6.408   4.053  13.798  0.00  0.00    +0.000 C 
ENDBRANCH   4   6
ENDBRANCH   1   4
BRANCH   1   8
ATOM      8  C   UNL     1       4.063   4.285  16.985  0.00  0.00    +0.000 C 
BRANCH   8   9
ATOM      9  C   UNL     1       3.966   3.997  18.486  0.00  0.00    +0.000 C 
BRANCH   9  10
ATOM     10  C   UNL     1       2.645   4.534  19.040  0.00  0.00    +0.000 C 
BRANCH  10  11
ATOM     11  C   UNL     1       1.427   3.846  18.425  0.00  0.00    +0.000 C 
BRANCH  11  13
ATOM     12  C   UNL     1       1.246   3.113  20.837  0.00  0.00    +0.000 C 
ATOM     13  C   UNL     1       0.833   2.829  19.404  0.00  0.00    +0.000 C 
ENDBRANCH  11  13
ENDBRANCH  10  11
ENDBRANCH   9  10
ENDBRANCH   8   9
ENDBRANCH   1   8
TORSDOF 7
ENDMDL
