MODEL 1
REMARK VINA RESULT:      -6.8      0.000      0.000
REMARK  Name = 
REMARK  7 active torsions:
REMARK  status: ('A' for Active; 'I' for Inactive)
REMARK    1  A    between atoms: C_1  and  O_2
REMARK    2  A    between atoms: O_2  and  C_3
REMARK    3  A    between atoms: C_5  and  C_6
REMARK    4  A    between atoms: C_7  and  C_8
REMARK    5  A    between atoms: C_8  and  N_9
REMARK    6  A    between atoms: N_9  and  C_10
REMARK    7  A    between atoms: C_17  and  C_18
REMARK                            x       y       z     vdW  Elec       q    Type
REMARK                         _______ _______ _______ _____ _____    ______ ____
ROOT
ATOM      1  C   UNL     1       7.591   6.941  18.152  0.00  0.00    +0.000 A 
ATOM      2  C   UNL     1       6.805   7.115  17.010  0.00  0.00    +0.000 A 
ATOM      3  C   UNL     1       5.875   6.140  16.604  0.00  0.00    +0.000 A 
ATOM      4  C   UNL     1       5.075   6.387  15.353  0.00  0.00    +0.000 C 
ATOM      5  C   UNL     1       5.753   4.950  17.348  0.00  0.00    +0.000 A 
ATOM      6  C   UNL     1       6.575   4.771  18.476  0.00  0.00    +0.000 A 
ATOM      7  C   UNL     1       7.496   5.750  18.884  0.00  0.00    +0.000 A 
ATOM      8  C   UNL     1       8.340   5.525  20.106  0.00  0.00    +0.000 C 
ENDROOT
BRANCH   1  10
ATOM      9  C   UNL     1       8.322   9.191  18.120  0.00  0.00    +0.000 C 
ATOM     10  O   UNL     1       8.502   7.864  18.601  0.00  0.00    +0.000 OA
ENDBRANCH   1  10
BRANCH   5  11
ATOM     11  C   UNL     1       4.763   3.856  16.993  0.00  0.00    +0.000 C 
BRANCH  11  12
ATOM     12  N   UNL     1       3.784   3.655  18.056  0.00  0.00    +0.000 NA
ATOM     13  H   UNL     1       4.275   3.614  18.947  0.00  0.00    +0.000 HD
BRANCH  12  14
ATOM     14  C   UNL     1       2.710   4.656  18.089  0.00  0.00    +0.000 C 
ATOM     15  C   UNL     1       1.360   3.926  17.952  0.00  0.00    +0.000 C 
ATOM     16  C   UNL     1       1.010   3.087  19.185  0.00  0.00    +0.000 C 
ATOM     17  C   UNL     1       1.074   3.906  20.474  0.00  0.00    +0.000 C 
ATOM     18  C   UNL     1       2.377   4.690  20.615  0.00  0.00    +0.000 C 
ATOM     19  C   UNL     1       2.669   5.516  19.365  0.00  0.00    +0.000 C 
ENDBRANCH  12  14
ENDBRANCH  11  12
ENDBRANCH   5  11
TORSDOF 4
ENDMDL
MODEL 2
REMARK VINA RESULT:      -6.7      2.806      5.924
REMARK  Name = 
REMARK  7 active torsions:
REMARK  status: ('A' for Active; 'I' for Inactive)
REMARK    1  A    between atoms: C_1  and  O_2
REMARK    2  A    between atoms: O_2  and  C_3
REMARK    3  A    between atoms: C_5  and  C_6
REMARK    4  A    between atoms: C_7  and  C_8
REMARK    5  A    between atoms: C_8  and  N_9
REMARK    6  A    between atoms: N_9  and  C_10
REMARK    7  A    between atoms: C_17  and  C_18
REMARK                            x       y       z     vdW  Elec       q    Type
REMARK                         _______ _______ _______ _____ _____    ______ ____
ROOT
ATOM      1  C   UNL     1       1.503   8.196  19.987  0.00  0.00    +0.000 A 
ATOM      2  C   UNL     1       1.580   6.984  20.678  0.00  0.00    +0.000 A 
ATOM      3  C   UNL     1       2.227   5.864  20.125  0.00  0.00    +0.000 A 
ATOM      4  C   UNL     1       2.256   4.586  20.919  0.00  0.00    +0.000 C 
ATOM      5  C   UNL     1       2.785   5.957  18.835  0.00  0.00    +0.000 A 
ATOM      6  C   UNL     1       2.670   7.172  18.134  0.00  0.00    +0.000 A 
ATOM      7  C   UNL     1       2.031   8.291  18.693  0.00  0.00    +0.000 A 
ATOM      8  C   UNL     1       1.949   9.574  17.917  0.00  0.00    +0.000 C 
ENDROOT
BRANCH   1  10
ATOM      9  C   UNL     1       0.199   9.155  21.712  0.00  0.00    +0.000 C 
ATOM     10  O   UNL     1       0.898   9.323  20.484  0.00  0.00    +0.000 OA
ENDBRANCH   1  10
BRANCH   5  11
ATOM     11  C   UNL     1       3.517   4.804  18.170  0.00  0.00    +0.000 C 
BRANCH  11  12
ATOM     12  N   UNL     1       4.918   4.758  18.574  0.00  0.00    +0.000 NA
ATOM     13  H   UNL     1       5.039   4.001  19.243  0.00  0.00    +0.000 HD
BRANCH  12  14
ATOM     14  C   UNL     1       5.867   4.636  17.459  0.00  0.00    +0.000 C 
ATOM     15  C   UNL     1       5.625   5.806  16.484  0.00  0.00    +0.000 C 
ATOM     16  C   UNL     1       6.037   7.161  17.068  0.00  0.00    +0.000 C 
ATOM     17  C   UNL     1       7.476   7.151  17.583  0.00  0.00    +0.000 C 
ATOM     18  C   UNL     1       7.768   5.971  18.507  0.00  0.00    +0.000 C 
ATOM     19  C   UNL     1       7.350   4.647  17.871  0.00  0.00    +0.000 C 
ENDBRANCH  12  14
ENDBRANCH  11  12
ENDBRANCH   5  11
TORSDOF 4
ENDMDL
MODEL 3
REMARK VINA RESULT:      -6.6      4.522      6.376
REMARK  Name = 
REMARK  7 active torsions:
REMARK  status: ('A' for Active; 'I' for Inactive)
REMARK    1  A    between atoms: C_1  and  O_2
REMARK    2  A    between atoms: O_2  and  C_3
REMARK    3  A    between atoms: C_5  and  C_6
REMARK    4  A    between atoms: C_7  and  C_8
REMARK    5  A    between atoms: C_8  and  N_9
REMARK    6  A    between atoms: N_9  and  C_10
REMARK    7  A    between atoms: C_17  and  C_18
REMARK                            x       y       z     vdW  Elec       q    Type
REMARK                         _______ _______ _______ _____ _____    ______ ____
ROOT
ATOM      1  C   UNL     1      -0.095  10.339  20.760  0.00  0.00    +0.000 A 
ATOM      2  C   UNL     1       0.405  10.234  19.460  0.00  0.00    +0.000 A 
ATOM      3  C   UNL     1       1.247   9.172  19.081  0.00  0.00    +0.000 A 
ATOM      4  C   UNL     1       1.762   9.133  17.667  0.00  0.00    +0.000 C 
ATOM      5  C   UNL     1       1.617   8.209  20.040  0.00  0.00    +0.000 A 
ATOM      6  C   UNL     1       1.136   8.345  21.356  0.00  0.00    +0.000 A 
ATOM      7  C   UNL     1       0.290   9.402  21.728  0.00  0.00    +0.000 A 
ATOM      8  C   UNL     1      -0.215   9.497  23.139  0.00  0.00    +0.000 C 
ENDROOT
BRANCH   1  10
ATOM      9  C   UNL     1      -1.276  12.308  20.193  0.00  0.00    +0.000 C 
ATOM     10  O   UNL     1      -0.929  11.344  21.180  0.00  0.00    +0.000 OA
ENDBRANCH   1  10
BRANCH   5  11
ATOM     11  C   UNL     1       2.505   7.021  19.713  0.00  0.00    +0.000 C 
BRANCH  11  12
ATOM     12  N   UNL     1       2.170   5.863  20.533  0.00  0.00    +0.000 NA
ATOM     13  H   UNL     1       1.169   5.694  20.465  0.00  0.00    +0.000 HD
BRANCH  12  14
ATOM     14  C   UNL     1       2.936   4.650  20.212  0.00  0.00    +0.000 C 
ATOM     15  C   UNL     1       2.396   3.492  21.073  0.00  0.00    +0.000 C 
ATOM     16  C   UNL     1       0.984   3.058  20.668  0.00  0.00    +0.000 C 
ATOM     17  C   UNL     1       0.886   2.738  19.176  0.00  0.00    +0.000 C 
ATOM     18  C   UNL     1       1.466   3.841  18.294  0.00  0.00    +0.000 C 
ATOM     19  C   UNL     1       2.876   4.225  18.733  0.00  0.00    +0.000 C 
ENDBRANCH  12  14
ENDBRANCH  11  12
ENDBRANCH   5  11
TORSDOF 4
ENDMDL
MODEL 4
REMARK VINA RESULT:      -6.5      1.812      2.976
REMARK  Name = 
REMARK  7 active torsions:
REMARK  status: ('A' for Active; 'I' for Inactive)
REMARK    1  A    between atoms: C_1  and  O_2
REMARK    2  A    between atoms: O_2  and  C_3
REMARK    3  A    between atoms: C_5  and  C_6
REMARK    4  A    between atoms: C_7  and  C_8
REMARK    5  A    between atoms: C_8  and  N_9
REMARK    6  A    between atoms: N_9  and  C_10
REMARK    7  A    between atoms: C_17  and  C_18
REMARK                            x       y       z     vdW  Elec       q    Type
REMARK                         _______ _______ _______ _____ _____    ______ ____
ROOT
ATOM      1  C   UNL     1       5.707   6.250  16.854  0.00  0.00    +0.000 A 
ATOM      2  C   UNL     1       4.727   7.070  17.417  0.00  0.00    +0.000 A 
ATOM      3  C   UNL     1       3.442   6.580  17.716  0.00  0.00    +0.000 A 
ATOM      4  C   UNL     1       2.431   7.526  18.305  0.00  0.00    +0.000 C 
ATOM      5  C   UNL     1       3.128   5.240  17.415  0.00  0.00    +0.000 A 
ATOM      6  C   UNL     1       4.113   4.433  16.815  0.00  0.00    +0.000 A 
ATOM      7  C   UNL     1       5.397   4.924  16.526  0.00  0.00    +0.000 A 
ATOM      8  C   UNL     1       6.423   4.021  15.903  0.00  0.00    +0.000 C 
ENDROOT
BRANCH   1  10
ATOM      9  C   UNL     1       7.603   7.487  17.540  0.00  0.00    +0.000 C 
ATOM     10  O   UNL     1       6.978   6.672  16.555  0.00  0.00    +0.000 OA
ENDBRANCH   1  10
BRANCH   5  11
ATOM     11  C   UNL     1       1.775   4.623  17.721  0.00  0.00    +0.000 C 
BRANCH  11  12
ATOM     12  N   UNL     1       1.588   4.432  19.155  0.00  0.00    +0.000 NA
ATOM     13  H   UNL     1       0.900   5.104  19.487  0.00  0.00    +0.000 HD
BRANCH  12  14
ATOM     14  C   UNL     1       1.219   3.062  19.541  0.00  0.00    +0.000 C 
ATOM     15  C   UNL     1       2.276   2.095  18.971  0.00  0.00    +0.000 C 
ATOM     16  C   UNL     1       3.638   2.232  19.657  0.00  0.00    +0.000 C 
ATOM     17  C   UNL     1       3.531   2.110  21.177  0.00  0.00    +0.000 C 
ATOM     18  C   UNL     1       2.452   3.013  21.771  0.00  0.00    +0.000 C 
ATOM     19  C   UNL     1       1.114   2.827  21.059  0.00  0.00    +0.000 C 
ENDBRANCH  12  14
ENDBRANCH  11  12
ENDBRANCH   5  11
TORSDOF 4
ENDMDL
MODEL 5
REMARK VINA RESULT:      -6.5      1.601      2.668
REMARK  Name = 
REMARK  7 active torsions:
REMARK  status: ('A' for Active; 'I' for Inactive)
REMARK    1  A    between atoms: C_1  and  O_2
REMARK    2  A    between atoms: O_2  and  C_3
REMARK    3  A    between atoms: C_5  and  C_6
REMARK    4  A    between atoms: C_7  and  C_8
REMARK    5  A    between atoms: C_8  and  N_9
REMARK    6  A    between atoms: N_9  and  C_10
REMARK    7  A    between atoms: C_17  and  C_18
REMARK                            x       y       z     vdW  Elec       q    Type
REMARK                         _______ _______ _______ _____ _____    ______ ____
ROOT
ATOM      1  C   UNL     1       5.960   6.459  16.828  0.00  0.00    +0.000 A 
ATOM      2  C   UNL     1       4.864   7.096  17.416  0.00  0.00    +0.000 A 
ATOM      3  C   UNL     1       3.656   6.414  17.650  0.00  0.00    +0.000 A 
ATOM      4  C   UNL     1       2.512   7.170  18.270  0.00  0.00    +0.000 C 
ATOM      5  C   UNL     1       3.540   5.065  17.259  0.00  0.00    +0.000 A 
ATOM      6  C   UNL     1       4.638   4.444  16.636  0.00  0.00    +0.000 A 
ATOM      7  C   UNL     1       5.845   5.127  16.412  0.00  0.00    +0.000 A 
ATOM      8  C   UNL     1       6.998   4.418  15.761  0.00  0.00    +0.000 C 
ENDROOT
BRANCH   1  10
ATOM      9  C   UNL     1       7.761   7.713  17.711  0.00  0.00    +0.000 C 
ATOM     10  O   UNL     1       7.164   7.072  16.590  0.00  0.00    +0.000 OA
ENDBRANCH   1  10
BRANCH   5  11
ATOM     11  C   UNL     1       2.281   4.248  17.491  0.00  0.00    +0.000 C 
BRANCH  11  12
ATOM     12  N   UNL     1       2.571   3.017  18.219  0.00  0.00    +0.000 NA
ATOM     13  H   UNL     1       3.451   3.133  18.718  0.00  0.00    +0.000 HD
BRANCH  12  14
ATOM     14  C   UNL     1       1.500   2.583  19.127  0.00  0.00    +0.000 C 
ATOM     15  C   UNL     1       2.126   1.718  20.239  0.00  0.00    +0.000 C 
ATOM     16  C   UNL     1       3.007   2.526  21.196  0.00  0.00    +0.000 C 
ATOM     17  C   UNL     1       2.269   3.733  21.776  0.00  0.00    +0.000 C 
ATOM     18  C   UNL     1       1.586   4.582  20.705  0.00  0.00    +0.000 C 
ATOM     19  C   UNL     1       0.713   3.729  19.788  0.00  0.00    +0.000 C 
ENDBRANCH  12  14
ENDBRANCH  11  12
ENDBRANCH   5  11
TORSDOF 4
ENDMDL
MODEL 6
REMARK VINA RESULT:      -6.5      2.638      5.993
REMARK  Name = 
REMARK  7 active torsions:
REMARK  status: ('A' for Active; 'I' for Inactive)
REMARK    1  A    between atoms: C_1  and  O_2
REMARK    2  A    between atoms: O_2  and  C_3
REMARK    3  A    between atoms: C_5  and  C_6
REMARK    4  A    between atoms: C_7  and  C_8
REMARK    5  A    between atoms: C_8  and  N_9
REMARK    6  A    between atoms: N_9  and  C_10
REMARK    7  A    between atoms: C_17  and  C_18
REMARK                            x       y       z     vdW  Elec       q    Type
REMARK                         _______ _______ _______ _____ _____    ______ ____
ROOT
ATOM      1  C   UNL     1       2.054   3.609  19.179  0.00  0.00    +0.000 A 
ATOM      2  C   UNL     1       1.844   4.982  19.324  0.00  0.00    +0.000 A 
ATOM      3  C   UNL     1       2.569   5.921  18.566  0.00  0.00    +0.000 A 
ATOM      4  C   UNL     1       2.302   7.385  18.789  0.00  0.00    +0.000 C 
ATOM      5  C   UNL     1       3.548   5.466  17.660  0.00  0.00    +0.000 A 
ATOM      6  C   UNL     1       3.775   4.082  17.548  0.00  0.00    +0.000 A 
ATOM      7  C   UNL     1       3.043   3.149  18.300  0.00  0.00    +0.000 A 
ATOM      8  C   UNL     1       3.306   1.679  18.134  0.00  0.00    +0.000 C 
ENDROOT
BRANCH   1  10
ATOM      9  C   UNL     1       1.430   2.764  21.298  0.00  0.00    +0.000 C 
ATOM     10  O   UNL     1       1.367   2.652  19.881  0.00  0.00    +0.000 OA
ENDBRANCH   1  10
BRANCH   5  11
ATOM     11  C   UNL     1       4.362   6.407  16.789  0.00  0.00    +0.000 C 
BRANCH  11  12
ATOM     12  N   UNL     1       5.421   7.058  17.552  0.00  0.00    +0.000 NA
ATOM     13  H   UNL     1       5.432   6.669  18.492  0.00  0.00    +0.000 HD
BRANCH  12  14
ATOM     14  C   UNL     1       6.751   6.980  16.931  0.00  0.00    +0.000 C 
ATOM     15  C   UNL     1       7.813   7.191  18.028  0.00  0.00    +0.000 C 
ATOM     16  C   UNL     1       7.886   6.024  19.017  0.00  0.00    +0.000 C 
ATOM     17  C   UNL     1       8.073   4.682  18.310  0.00  0.00    +0.000 C 
ATOM     18  C   UNL     1       7.073   4.463  17.177  0.00  0.00    +0.000 C 
ATOM     19  C   UNL     1       7.050   5.650  16.216  0.00  0.00    +0.000 C 
ENDBRANCH  12  14
ENDBRANCH  11  12
ENDBRANCH   5  11
TORSDOF 4
ENDMDL
MODEL 7
REMARK VINA RESULT:      -6.4      0.957      1.574
REMARK  Name = 
REMARK  7 active torsions:
REMARK  status: ('A' for Active; 'I' for Inactive)
REMARK    1  A    between atoms: C_1  and  O_2
REMARK    2  A    between atoms: O_2  and  C_3
REMARK    3  A    between atoms: C_5  and  C_6
REMARK    4  A    between atoms: C_7  and  C_8
REMARK    5  A    between atoms: C_8  and  N_9
REMARK    6  A    between atoms: N_9  and  C_10
REMARK    7  A    between atoms: C_17  and  C_18
REMARK                            x       y       z     vdW  Elec       q    Type
REMARK                         _______ _______ _______ _____ _____    ______ ____
ROOT
ATOM      1  C   UNL     1       7.568   6.930  18.149  0.00  0.00    +0.000 A 
ATOM      2  C   UNL     1       6.771   7.134  17.019  0.00  0.00    +0.000 A 
ATOM      3  C   UNL     1       5.806   6.190  16.621  0.00  0.00    +0.000 A 
ATOM      4  C   UNL     1       4.996   6.468  15.383  0.00  0.00    +0.000 C 
ATOM      5  C   UNL     1       5.659   5.000  17.362  0.00  0.00    +0.000 A 
ATOM      6  C   UNL     1       6.492   4.790  18.477  0.00  0.00    +0.000 A 
ATOM      7  C   UNL     1       7.448   5.739  18.875  0.00  0.00    +0.000 A 
ATOM      8  C   UNL     1       8.302   5.482  20.084  0.00  0.00    +0.000 C 
ENDROOT
BRANCH   1  10
ATOM      9  C   UNL     1       8.354   9.161  18.133  0.00  0.00    +0.000 C 
ATOM     10  O   UNL     1       8.512   7.823  18.589  0.00  0.00    +0.000 OA
ENDBRANCH   1  10
BRANCH   5  11
ATOM     11  C   UNL     1       4.631   3.938  17.015  0.00  0.00    +0.000 C 
BRANCH  11  12
ATOM     12  N   UNL     1       3.555   3.896  17.998  0.00  0.00    +0.000 NA
ATOM     13  H   UNL     1       2.701   4.236  17.561  0.00  0.00    +0.000 HD
BRANCH  12  14
ATOM     14  C   UNL     1       3.346   2.577  18.613  0.00  0.00    +0.000 C 
ATOM     15  C   UNL     1       3.623   2.697  20.125  0.00  0.00    +0.000 C 
ATOM     16  C   UNL     1       2.567   3.528  20.859  0.00  0.00    +0.000 C 
ATOM     17  C   UNL     1       1.149   3.025  20.588  0.00  0.00    +0.000 C 
ATOM     18  C   UNL     1       0.859   2.839  19.100  0.00  0.00    +0.000 C 
ATOM     19  C   UNL     1       1.935   1.994  18.423  0.00  0.00    +0.000 C 
ENDBRANCH  12  14
ENDBRANCH  11  12
ENDBRANCH   5  11
TORSDOF 4
ENDMDL
MODEL 8
REMARK VINA RESULT:      -6.4      2.551      5.582
REMARK  Name = 
REMARK  7 active torsions:
REMARK  status: ('A' for Active; 'I' for Inactive)
REMARK    1  A    between atoms: C_1  and  O_2
REMARK    2  A    between atoms: O_2  and  C_3
REMARK    3  A    between atoms: C_5  and  C_6
REMARK    4  A    between atoms: C_7  and  C_8
REMARK    5  A    between atoms: C_8  and  N_9
REMARK    6  A    between atoms: N_9  and  C_10
REMARK    7  A    between atoms: C_17  and  C_18
REMARK                            x       y       z     vdW  Elec       q    Type
REMARK                         _______ _______ _______ _____ _____    ______ ____
ROOT
ATOM      1  C   UNL     1       1.726   7.668  20.060  0.00  0.00    +0.000 A 
ATOM      2  C   UNL     1       1.623   6.488  20.800  0.00  0.00    +0.000 A 
ATOM      3  C   UNL     1       1.994   5.245  20.256  0.00  0.00    +0.000 A 
ATOM      4  C   UNL     1       1.839   4.013  21.107  0.00  0.00    +0.000 C 
ATOM      5  C   UNL     1       2.455   5.184  18.927  0.00  0.00    +0.000 A 
ATOM      6  C   UNL     1       2.522   6.375  18.179  0.00  0.00    +0.000 A 
ATOM      7  C   UNL     1       2.158   7.615  18.728  0.00  0.00    +0.000 A 
ATOM      8  C   UNL     1       2.263   8.863  17.899  0.00  0.00    +0.000 C 
ENDROOT
BRANCH   1  10
ATOM      9  C   UNL     1       1.258   9.000  21.958  0.00  0.00    +0.000 C 
ATOM     10  O   UNL     1       1.391   8.907  20.545  0.00  0.00    +0.000 OA
ENDBRANCH   1  10
BRANCH   5  11
ATOM     11  C   UNL     1       2.895   3.889  18.267  0.00  0.00    +0.000 C 
BRANCH  11  12
ATOM     12  N   UNL     1       3.600   4.141  17.015  0.00  0.00    +0.000 NA
ATOM     13  H   UNL     1       3.514   5.128  16.785  0.00  0.00    +0.000 HD
BRANCH  12  14
ATOM     14  C   UNL     1       5.007   3.717  17.015  0.00  0.00    +0.000 C 
ATOM     15  C   UNL     1       5.629   4.095  15.656  0.00  0.00    +0.000 C 
ATOM     16  C   UNL     1       5.783   5.608  15.474  0.00  0.00    +0.000 C 
ATOM     17  C   UNL     1       6.540   6.253  16.634  0.00  0.00    +0.000 C 
ATOM     18  C   UNL     1       5.986   5.853  18.000  0.00  0.00    +0.000 C 
ATOM     19  C   UNL     1       5.866   4.337  18.132  0.00  0.00    +0.000 C 
ENDBRANCH  12  14
ENDBRANCH  11  12
ENDBRANCH   5  11
TORSDOF 4
ENDMDL
MODEL 9
REMARK VINA RESULT:      -6.4      2.810      6.207
REMARK  Name = 
REMARK  7 active torsions:
REMARK  status: ('A' for Active; 'I' for Inactive)
REMARK    1  A    between atoms: C_1  and  O_2
REMARK    2  A    between atoms: O_2  and  C_3
REMARK    3  A    between atoms: C_5  and  C_6
REMARK    4  A    between atoms: C_7  and  C_8
REMARK    5  A    between atoms: C_8  and  N_9
REMARK    6  A    between atoms: N_9  and  C_10
REMARK    7  A    between atoms: C_17  and  C_18
REMARK                            x       y       z     vdW  Elec       q    Type
REMARK                         _______ _______ _______ _____ _____    ______ ____
ROOT
ATOM      1  C   UNL     1       1.532   3.742  20.059  0.00  0.00    +0.000 A 
ATOM      2  C   UNL     1       1.476   5.083  20.448  0.00  0.00    +0.000 A 
ATOM      3  C   UNL     1       2.140   6.088  19.721  0.00  0.00    +0.000 A 
ATOM      4  C   UNL     1       2.049   7.508  20.210  0.00  0.00    +0.000 C 
ATOM      5  C   UNL     1       2.902   5.731  18.591  0.00  0.00    +0.000 A 
ATOM      6  C   UNL     1       2.981   4.374  18.229  0.00  0.00    +0.000 A 
ATOM      7  C   UNL     1       2.309   3.375  18.952  0.00  0.00    +0.000 A 
ATOM      8  C   UNL     1       2.405   1.940  18.518  0.00  0.00    +0.000 C 
ENDROOT
BRANCH   1  10
ATOM      9  C   UNL     1       1.380   2.442  22.029  0.00  0.00    +0.000 C 
ATOM     10  O   UNL     1       0.894   2.725  20.722  0.00  0.00    +0.000 OA
ENDBRANCH   1  10
BRANCH   5  11
ATOM     11  C   UNL     1       3.634   6.752  17.738  0.00  0.00    +0.000 C 
BRANCH  11  12
ATOM     12  N   UNL     1       5.079   6.662  17.920  0.00  0.00    +0.000 NA
ATOM     13  H   UNL     1       5.297   5.768  18.354  0.00  0.00    +0.000 HD
BRANCH  12  14
ATOM     14  C   UNL     1       5.859   6.857  16.689  0.00  0.00    +0.000 C 
ATOM     15  C   UNL     1       7.293   6.350  16.937  0.00  0.00    +0.000 C 
ATOM     16  C   UNL     1       7.368   4.828  17.087  0.00  0.00    +0.000 C 
ATOM     17  C   UNL     1       6.713   4.101  15.913  0.00  0.00    +0.000 C 
ATOM     18  C   UNL     1       5.310   4.618  15.602  0.00  0.00    +0.000 C 
ATOM     19  C   UNL     1       5.296   6.138  15.450  0.00  0.00    +0.000 C 
ENDBRANCH  12  14
ENDBRANCH  11  12
ENDBRANCH   5  11
TORSDOF 4
ENDMDL
