MODEL 1
REMARK VINA RESULT:      -8.2      0.000      0.000
REMARK  Name = 
REMARK  4 active torsions:
REMARK  status: ('A' for Active; 'I' for Inactive)
REMARK    1  A    between atoms: C_4  and  C_5
REMARK    2  A    between atoms: C_8  and  N_9
REMARK    3  A    between atoms: C_10  and  C_12
REMARK    4  A    between atoms: C_17  and  C_18
REMARK                            x       y       z     vdW  Elec       q    Type
REMARK                         _______ _______ _______ _____ _____    ______ ____
ROOT
ATOM      1  C   UNL     1      -0.779  11.459  22.414  0.00  0.00    +0.000 A 
ATOM      2  C   UNL     1      -0.722  10.335  23.240  0.00  0.00    +0.000 A 
ATOM      3  C   UNL     1      -0.090   9.164  22.810  0.00  0.00    +0.000 A 
ATOM      4  C   UNL     1       0.491   9.075  21.542  0.00  0.00    +0.000 A 
ATOM      5  C   UNL     1       0.459  10.206  20.719  0.00  0.00    +0.000 A 
ATOM      6  C   UNL     1      -0.177  11.386  21.150  0.00  0.00    +0.000 A 
ENDROOT
BRANCH   1  10
ATOM      7  N   UNL     1      -1.449  15.737  24.488  0.00  0.00    +0.000 N 
ATOM      8  C   UNL     1      -1.630  14.593  23.823  0.00  0.00    +0.000 A 
ATOM      9  N   UNL     1      -0.719  13.721  23.470  0.00  0.00    +0.000 NA
ATOM     10  C   UNL     1      -1.407  12.687  22.874  0.00  0.00    +0.000 A 
ATOM     11  C   UNL     1      -2.756  12.976  22.825  0.00  0.00    +0.000 A 
ATOM     12  N   UNL     1      -2.879  14.191  23.442  0.00  0.00    +0.000 N 
ATOM     13  H   UNL     1      -0.487  16.044  24.593  0.00  0.00    +0.000 HD
ATOM     14  H   UNL     1      -2.124  16.491  24.468  0.00  0.00    +0.000 HD
ATOM     15  H   UNL     1      -3.735  14.692  23.623  0.00  0.00    +0.000 HD
ENDBRANCH   1  10
BRANCH   4  16
ATOM     16  N   UNL     1       1.115   7.889  21.072  0.00  0.00    +0.000 N 
ATOM     17  C   UNL     1       1.797   7.796  19.866  0.00  0.00    +0.000 C 
ATOM     18  O   UNL     1       2.018   8.722  19.087  0.00  0.00    +0.000 OA
ATOM     19  H   UNL     1       1.185   7.122  21.730  0.00  0.00    +0.000 HD
BRANCH  17  20
ATOM     20  C   UNL     1       2.387   6.482  19.499  0.00  0.00    +0.000 A 
ATOM     21  C   UNL     1       2.865   6.351  18.191  0.00  0.00    +0.000 A 
ATOM     22  C   UNL     1       3.304   5.117  17.716  0.00  0.00    +0.000 A 
ATOM     23  C   UNL     1       3.261   3.988  18.540  0.00  0.00    +0.000 A 
ATOM     24 CL   UNL     1       3.800   2.513  17.825  0.00  0.00    +0.000 Cl
ATOM     25  C   UNL     1       2.784   4.088  19.855  0.00  0.00    +0.000 A 
ATOM     26  C   UNL     1       2.356   5.357  20.332  0.00  0.00    +0.000 A 
BRANCH  25  27
ATOM     27  C   UNL     1       2.662   2.913  20.796  0.00  0.00    +0.000 C 
ATOM     28  F   UNL     1       3.791   2.201  21.036  0.00  0.00    +0.000 F 
ATOM     29  F   UNL     1       2.209   3.303  22.021  0.00  0.00    +0.000 F 
ATOM     30  F   UNL     1       1.749   2.005  20.345  0.00  0.00    +0.000 F 
ENDBRANCH  25  27
ENDBRANCH  17  20
ENDBRANCH   4  16
TORSDOF 4
ENDMDL
MODEL 2
REMARK VINA RESULT:      -8.2      0.287      1.258
REMARK  Name = 
REMARK  4 active torsions:
REMARK  status: ('A' for Active; 'I' for Inactive)
REMARK    1  A    between atoms: C_4  and  C_5
REMARK    2  A    between atoms: C_8  and  N_9
REMARK    3  A    between atoms: C_10  and  C_12
REMARK    4  A    between atoms: C_17  and  C_18
REMARK                            x       y       z     vdW  Elec       q    Type
REMARK                         _______ _______ _______ _____ _____    ______ ____
ROOT
ATOM      1  C   UNL     1      -0.781  11.561  22.416  0.00  0.00    +0.000 A 
ATOM      2  C   UNL     1      -0.196  11.490  21.151  0.00  0.00    +0.000 A 
ATOM      3  C   UNL     1       0.402  10.307  20.706  0.00  0.00    +0.000 A 
ATOM      4  C   UNL     1       0.445   9.166  21.512  0.00  0.00    +0.000 A 
ATOM      5  C   UNL     1      -0.162   9.224  22.772  0.00  0.00    +0.000 A 
ATOM      6  C   UNL     1      -0.764  10.414  23.222  0.00  0.00    +0.000 A 
ENDROOT
BRANCH   1  10
ATOM      7  N   UNL     1      -1.633  15.703  24.690  0.00  0.00    +0.000 N 
ATOM      8  C   UNL     1      -1.741  14.620  23.916  0.00  0.00    +0.000 A 
ATOM      9  N   UNL     1      -0.816  13.735  23.645  0.00  0.00    +0.000 NA
ATOM     10  C   UNL     1      -1.432  12.781  22.866  0.00  0.00    +0.000 A 
ATOM     11  C   UNL     1      -2.745  13.136  22.625  0.00  0.00    +0.000 A 
ATOM     12  N   UNL     1      -2.925  14.307  23.308  0.00  0.00    +0.000 N 
ATOM     13  H   UNL     1      -0.691  15.956  24.972  0.00  0.00    +0.000 HD
ATOM     14  H   UNL     1      -2.268  16.488  24.622  0.00  0.00    +0.000 HD
ATOM     15  H   UNL     1      -3.780  14.833  23.389  0.00  0.00    +0.000 HD
ENDBRANCH   1  10
BRANCH   4  16
ATOM     16  N   UNL     1       1.070   7.961  21.094  0.00  0.00    +0.000 N 
ATOM     17  C   UNL     1       1.735   7.811  19.885  0.00  0.00    +0.000 C 
ATOM     18  O   UNL     1       1.939   8.696  19.056  0.00  0.00    +0.000 OA
ATOM     19  H   UNL     1       1.155   7.230  21.790  0.00  0.00    +0.000 HD
BRANCH  17  20
ATOM     20  C   UNL     1       2.330   6.483  19.578  0.00  0.00    +0.000 A 
ATOM     21  C   UNL     1       3.029   6.371  18.371  0.00  0.00    +0.000 A 
ATOM     22  C   UNL     1       3.497   5.134  17.934  0.00  0.00    +0.000 A 
ATOM     23  C   UNL     1       3.262   3.983  18.692  0.00  0.00    +0.000 A 
ATOM     24 CL   UNL     1       3.862   2.508  18.027  0.00  0.00    +0.000 Cl
ATOM     25  C   UNL     1       2.561   4.064  19.904  0.00  0.00    +0.000 A 
ATOM     26  C   UNL     1       2.105   5.335  20.346  0.00  0.00    +0.000 A 
BRANCH  25  27
ATOM     27  C   UNL     1       2.225   2.866  20.761  0.00  0.00    +0.000 C 
ATOM     28  F   UNL     1       1.357   3.069  21.783  0.00  0.00    +0.000 F 
ATOM     29  F   UNL     1       1.685   1.859  20.017  0.00  0.00    +0.000 F 
ATOM     30  F   UNL     1       3.343   2.333  21.334  0.00  0.00    +0.000 F 
ENDBRANCH  25  27
ENDBRANCH  17  20
ENDBRANCH   4  16
TORSDOF 4
ENDMDL
MODEL 3
REMARK VINA RESULT:      -8.2      6.110     10.028
REMARK  Name = 
REMARK  4 active torsions:
REMARK  status: ('A' for Active; 'I' for Inactive)
REMARK    1  A    between atoms: C_4  and  C_5
REMARK    2  A    between atoms: C_8  and  N_9
REMARK    3  A    between atoms: C_10  and  C_12
REMARK    4  A    between atoms: C_17  and  C_18
REMARK                            x       y       z     vdW  Elec       q    Type
REMARK                         _______ _______ _______ _____ _____    ______ ____
ROOT
ATOM      1  C   UNL     1       2.279   5.188  18.920  0.00  0.00    +0.000 A 
ATOM      2  C   UNL     1       2.572   5.967  17.799  0.00  0.00    +0.000 A 
ATOM      3  C   UNL     1       2.507   7.362  17.863  0.00  0.00    +0.000 A 
ATOM      4  C   UNL     1       2.136   8.021  19.038  0.00  0.00    +0.000 A 
ATOM      5  C   UNL     1       1.865   7.246  20.172  0.00  0.00    +0.000 A 
ATOM      6  C   UNL     1       1.930   5.841  20.110  0.00  0.00    +0.000 A 
ENDROOT
BRANCH   1  10
ATOM      7  N   UNL     1       4.055   0.757  18.402  0.00  0.00    +0.000 N 
ATOM      8  C   UNL     1       3.242   1.795  18.615  0.00  0.00    +0.000 A 
ATOM      9  N   UNL     1       3.568   3.059  18.716  0.00  0.00    +0.000 NA
ATOM     10  C   UNL     1       2.379   3.739  18.863  0.00  0.00    +0.000 A 
ATOM     11  C   UNL     1       1.323   2.850  18.901  0.00  0.00    +0.000 A 
ATOM     12  N   UNL     1       1.892   1.617  18.734  0.00  0.00    +0.000 N 
ATOM     13  H   UNL     1       5.049   0.946  18.485  0.00  0.00    +0.000 HD
ATOM     14  H   UNL     1       3.794  -0.194  18.627  0.00  0.00    +0.000 HD
ATOM     15  H   UNL     1       1.411   0.735  18.669  0.00  0.00    +0.000 HD
ENDBRANCH   1  10
BRANCH   4  16
ATOM     16  N   UNL     1       2.036   9.435  19.120  0.00  0.00    +0.000 N 
ATOM     17  C   UNL     1       1.010  10.175  18.549  0.00  0.00    +0.000 C 
ATOM     18  O   UNL     1       0.026   9.720  17.968  0.00  0.00    +0.000 OA
ATOM     19  H   UNL     1       2.672   9.897  19.759  0.00  0.00    +0.000 HD
BRANCH  17  20
ATOM     20  C   UNL     1       1.046  11.652  18.707  0.00  0.00    +0.000 A 
ATOM     21  C   UNL     1      -0.177  12.289  18.946  0.00  0.00    +0.000 A 
ATOM     22  C   UNL     1      -0.261  13.679  18.966  0.00  0.00    +0.000 A 
ATOM     23  C   UNL     1       0.876  14.459  18.735  0.00  0.00    +0.000 A 
ATOM     24 CL   UNL     1       0.635  16.167  18.752  0.00  0.00    +0.000 Cl
ATOM     25  C   UNL     1       2.115  13.849  18.489  0.00  0.00    +0.000 A 
ATOM     26  C   UNL     1       2.190  12.429  18.490  0.00  0.00    +0.000 A 
BRANCH  25  27
ATOM     27  C   UNL     1       3.382  14.613  18.186  0.00  0.00    +0.000 C 
ATOM     28  F   UNL     1       3.811  15.487  19.132  0.00  0.00    +0.000 F 
ATOM     29  F   UNL     1       4.430  13.770  17.965  0.00  0.00    +0.000 F 
ATOM     30  F   UNL     1       3.261  15.347  17.042  0.00  0.00    +0.000 F 
ENDBRANCH  25  27
ENDBRANCH  17  20
ENDBRANCH   4  16
TORSDOF 4
ENDMDL
MODEL 4
REMARK VINA RESULT:      -8.2      1.441      1.915
REMARK  Name = 
REMARK  4 active torsions:
REMARK  status: ('A' for Active; 'I' for Inactive)
REMARK    1  A    between atoms: C_4  and  C_5
REMARK    2  A    between atoms: C_8  and  N_9
REMARK    3  A    between atoms: C_10  and  C_12
REMARK    4  A    between atoms: C_17  and  C_18
REMARK                            x       y       z     vdW  Elec       q    Type
REMARK                         _______ _______ _______ _____ _____    ______ ____
ROOT
ATOM      1  C   UNL     1      -0.610  11.138  22.059  0.00  0.00    +0.000 A 
ATOM      2  C   UNL     1      -0.347  11.207  20.690  0.00  0.00    +0.000 A 
ATOM      3  C   UNL     1       0.379  10.198  20.050  0.00  0.00    +0.000 A 
ATOM      4  C   UNL     1       0.874   9.099  20.756  0.00  0.00    +0.000 A 
ATOM      5  C   UNL     1       0.592   9.011  22.125  0.00  0.00    +0.000 A 
ATOM      6  C   UNL     1      -0.138  10.026  22.771  0.00  0.00    +0.000 A 
ENDROOT
BRANCH   1  10
ATOM      7  N   UNL     1      -1.847  15.252  24.203  0.00  0.00    +0.000 N 
ATOM      8  C   UNL     1      -1.869  14.029  23.667  0.00  0.00    +0.000 A 
ATOM      9  N   UNL     1      -0.917  13.433  22.995  0.00  0.00    +0.000 NA
ATOM     10  C   UNL     1      -1.394  12.170  22.717  0.00  0.00    +0.000 A 
ATOM     11  C   UNL     1      -2.683  12.031  23.193  0.00  0.00    +0.000 A 
ATOM     12  N   UNL     1      -2.965  13.224  23.801  0.00  0.00    +0.000 N 
ATOM     13  H   UNL     1      -1.070  15.845  23.926  0.00  0.00    +0.000 HD
ATOM     14  H   UNL     1      -2.690  15.759  24.440  0.00  0.00    +0.000 HD
ATOM     15  H   UNL     1      -3.809  13.463  24.296  0.00  0.00    +0.000 HD
ENDBRANCH   1  10
BRANCH   4  16
ATOM     16  N   UNL     1       1.637   8.075  20.136  0.00  0.00    +0.000 N 
ATOM     17  C   UNL     1       2.139   8.155  18.843  0.00  0.00    +0.000 C 
ATOM     18  O   UNL     1       2.061   9.129  18.097  0.00  0.00    +0.000 OA
ATOM     19  H   UNL     1       1.949   7.318  20.732  0.00  0.00    +0.000 HD
BRANCH  17  20
ATOM     20  C   UNL     1       2.910   6.996  18.322  0.00  0.00    +0.000 A 
ATOM     21  C   UNL     1       3.975   7.285  17.463  0.00  0.00    +0.000 A 
ATOM     22  C   UNL     1       4.662   6.261  16.815  0.00  0.00    +0.000 A 
ATOM     23  C   UNL     1       4.288   4.928  17.007  0.00  0.00    +0.000 A 
ATOM     24 CL   UNL     1       5.194   3.755  16.124  0.00  0.00    +0.000 Cl
ATOM     25  C   UNL     1       3.221   4.608  17.861  0.00  0.00    +0.000 A 
ATOM     26  C   UNL     1       2.541   5.662  18.529  0.00  0.00    +0.000 A 
BRANCH  25  27
ATOM     27  C   UNL     1       2.723   3.201  18.090  0.00  0.00    +0.000 C 
ATOM     28  F   UNL     1       3.573   2.343  18.708  0.00  0.00    +0.000 F 
ATOM     29  F   UNL     1       1.585   3.193  18.842  0.00  0.00    +0.000 F 
ATOM     30  F   UNL     1       2.384   2.593  16.916  0.00  0.00    +0.000 F 
ENDBRANCH  25  27
ENDBRANCH  17  20
ENDBRANCH   4  16
TORSDOF 4
ENDMDL
MODEL 5
REMARK VINA RESULT:      -8.2      1.611      2.263
REMARK  Name = 
REMARK  4 active torsions:
REMARK  status: ('A' for Active; 'I' for Inactive)
REMARK    1  A    between atoms: C_4  and  C_5
REMARK    2  A    between atoms: C_8  and  N_9
REMARK    3  A    between atoms: C_10  and  C_12
REMARK    4  A    between atoms: C_17  and  C_18
REMARK                            x       y       z     vdW  Elec       q    Type
REMARK                         _______ _______ _______ _____ _____    ______ ____
ROOT
ATOM      1  C   UNL     1      -0.596  10.989  21.920  0.00  0.00    +0.000 A 
ATOM      2  C   UNL     1       0.154  11.277  20.778  0.00  0.00    +0.000 A 
ATOM      3  C   UNL     1       0.916  10.285  20.155  0.00  0.00    +0.000 A 
ATOM      4  C   UNL     1       0.964   8.982  20.656  0.00  0.00    +0.000 A 
ATOM      5  C   UNL     1       0.195   8.680  21.785  0.00  0.00    +0.000 A 
ATOM      6  C   UNL     1      -0.573   9.678  22.415  0.00  0.00    +0.000 A 
ENDROOT
BRANCH   1  10
ATOM      7  N   UNL     1      -4.084  13.131  24.428  0.00  0.00    +0.000 N 
ATOM      8  C   UNL     1      -3.003  12.895  23.681  0.00  0.00    +0.000 A 
ATOM      9  N   UNL     1      -2.460  11.737  23.404  0.00  0.00    +0.000 NA
ATOM     10  C   UNL     1      -1.416  12.012  22.549  0.00  0.00    +0.000 A 
ATOM     11  C   UNL     1      -1.304  13.374  22.354  0.00  0.00    +0.000 A 
ATOM     12  N   UNL     1      -2.329  13.919  23.078  0.00  0.00    +0.000 N 
ATOM     13  H   UNL     1      -4.431  12.345  24.970  0.00  0.00    +0.000 HD
ATOM     14  H   UNL     1      -4.274  14.035  24.843  0.00  0.00    +0.000 HD
ATOM     15  H   UNL     1      -2.576  14.894  23.133  0.00  0.00    +0.000 HD
ENDBRANCH   1  10
BRANCH   4  16
ATOM     16  N   UNL     1       1.752   7.964  20.057  0.00  0.00    +0.000 N 
ATOM     17  C   UNL     1       2.118   7.953  18.718  0.00  0.00    +0.000 C 
ATOM     18  O   UNL     1       1.883   8.837  17.896  0.00  0.00    +0.000 OA
ATOM     19  H   UNL     1       2.186   7.298  20.685  0.00  0.00    +0.000 HD
BRANCH  17  20
ATOM     20  C   UNL     1       2.936   6.811  18.229  0.00  0.00    +0.000 A 
ATOM     21  C   UNL     1       4.026   7.123  17.410  0.00  0.00    +0.000 A 
ATOM     22  C   UNL     1       4.761   6.115  16.792  0.00  0.00    +0.000 A 
ATOM     23  C   UNL     1       4.411   4.774  16.973  0.00  0.00    +0.000 A 
ATOM     24 CL   UNL     1       5.378   3.621  16.127  0.00  0.00    +0.000 Cl
ATOM     25  C   UNL     1       3.321   4.430  17.786  0.00  0.00    +0.000 A 
ATOM     26  C   UNL     1       2.591   5.469  18.425  0.00  0.00    +0.000 A 
BRANCH  25  27
ATOM     27  C   UNL     1       2.847   3.012  17.999  0.00  0.00    +0.000 C 
ATOM     28  F   UNL     1       2.501   2.308  16.892  0.00  0.00    +0.000 F 
ATOM     29  F   UNL     1       3.796   2.261  18.628  0.00  0.00    +0.000 F 
ATOM     30  F   UNL     1       1.754   2.968  18.814  0.00  0.00    +0.000 F 
ENDBRANCH  25  27
ENDBRANCH  17  20
ENDBRANCH   4  16
TORSDOF 4
ENDMDL
MODEL 6
REMARK VINA RESULT:      -8.1      1.781      2.524
REMARK  Name = 
REMARK  4 active torsions:
REMARK  status: ('A' for Active; 'I' for Inactive)
REMARK    1  A    between atoms: C_4  and  C_5
REMARK    2  A    between atoms: C_8  and  N_9
REMARK    3  A    between atoms: C_10  and  C_12
REMARK    4  A    between atoms: C_17  and  C_18
REMARK                            x       y       z     vdW  Elec       q    Type
REMARK                         _______ _______ _______ _____ _____    ______ ____
ROOT
ATOM      1  C   UNL     1      -1.417  11.501  22.314  0.00  0.00    +0.000 A 
ATOM      2  C   UNL     1      -1.296  11.750  20.945  0.00  0.00    +0.000 A 
ATOM      3  C   UNL     1      -0.434  10.985  20.154  0.00  0.00    +0.000 A 
ATOM      4  C   UNL     1       0.342   9.961  20.704  0.00  0.00    +0.000 A 
ATOM      5  C   UNL     1       0.206   9.690  22.070  0.00  0.00    +0.000 A 
ATOM      6  C   UNL     1      -0.661  10.460  22.869  0.00  0.00    +0.000 A 
ENDROOT
BRANCH   1  10
ATOM      7  N   UNL     1      -5.234  12.742  24.948  0.00  0.00    +0.000 N 
ATOM      8  C   UNL     1      -4.071  12.755  24.293  0.00  0.00    +0.000 A 
ATOM      9  N   UNL     1      -3.456  11.742  23.735  0.00  0.00    +0.000 NA
ATOM     10  C   UNL     1      -2.338  12.274  23.131  0.00  0.00    +0.000 A 
ATOM     11  C   UNL     1      -2.260  13.630  23.380  0.00  0.00    +0.000 A 
ATOM     12  N   UNL     1      -3.377  13.919  24.115  0.00  0.00    +0.000 N 
ATOM     13  H   UNL     1      -5.605  11.825  25.178  0.00  0.00    +0.000 HD
ATOM     14  H   UNL     1      -5.502  13.471  25.597  0.00  0.00    +0.000 HD
ATOM     15  H   UNL     1      -3.667  14.827  24.440  0.00  0.00    +0.000 HD
ENDBRANCH   1  10
BRANCH   4  16
ATOM     16  N   UNL     1       1.245   9.188  19.927  0.00  0.00    +0.000 N 
ATOM     17  C   UNL     1       1.595   7.877  20.220  0.00  0.00    +0.000 C 
ATOM     18  O   UNL     1       1.129   7.189  21.126  0.00  0.00    +0.000 OA
ATOM     19  H   UNL     1       1.522   9.578  19.034  0.00  0.00    +0.000 HD
BRANCH  17  20
ATOM     20  C   UNL     1       2.565   7.198  19.321  0.00  0.00    +0.000 A 
ATOM     21  C   UNL     1       2.868   7.846  18.118  0.00  0.00    +0.000 A 
ATOM     22  C   UNL     1       3.654   7.221  17.153  0.00  0.00    +0.000 A 
ATOM     23  C   UNL     1       4.142   5.929  17.369  0.00  0.00    +0.000 A 
ATOM     24 CL   UNL     1       5.074   5.251  16.084  0.00  0.00    +0.000 Cl
ATOM     25  C   UNL     1       3.852   5.253  18.563  0.00  0.00    +0.000 A 
ATOM     26  C   UNL     1       3.064   5.910  19.547  0.00  0.00    +0.000 A 
BRANCH  25  27
ATOM     27  C   UNL     1       4.300   3.841  18.858  0.00  0.00    +0.000 C 
ATOM     28  F   UNL     1       3.862   3.289  20.018  0.00  0.00    +0.000 F 
ATOM     29  F   UNL     1       3.912   2.980  17.875  0.00  0.00    +0.000 F 
ATOM     30  F   UNL     1       5.661   3.748  18.903  0.00  0.00    +0.000 F 
ENDBRANCH  25  27
ENDBRANCH  17  20
ENDBRANCH   4  16
TORSDOF 4
ENDMDL
MODEL 7
REMARK VINA RESULT:      -8.1      2.621      3.253
REMARK  Name = 
REMARK  4 active torsions:
REMARK  status: ('A' for Active; 'I' for Inactive)
REMARK    1  A    between atoms: C_4  and  C_5
REMARK    2  A    between atoms: C_8  and  N_9
REMARK    3  A    between atoms: C_10  and  C_12
REMARK    4  A    between atoms: C_17  and  C_18
REMARK                            x       y       z     vdW  Elec       q    Type
REMARK                         _______ _______ _______ _____ _____    ______ ____
ROOT
ATOM      1  C   UNL     1      -0.781  11.051  22.259  0.00  0.00    +0.000 A 
ATOM      2  C   UNL     1      -0.656   9.751  22.751  0.00  0.00    +0.000 A 
ATOM      3  C   UNL     1       0.129   8.807  22.083  0.00  0.00    +0.000 A 
ATOM      4  C   UNL     1       0.801   9.125  20.900  0.00  0.00    +0.000 A 
ATOM      5  C   UNL     1       0.700  10.435  20.415  0.00  0.00    +0.000 A 
ATOM      6  C   UNL     1      -0.090  11.387  21.086  0.00  0.00    +0.000 A 
ENDROOT
BRANCH   1  10
ATOM      7  N   UNL     1      -4.430  13.220  24.502  0.00  0.00    +0.000 N 
ATOM      8  C   UNL     1      -3.242  12.945  23.958  0.00  0.00    +0.000 A 
ATOM      9  N   UNL     1      -2.828  11.800  23.479  0.00  0.00    +0.000 NA
ATOM     10  C   UNL     1      -1.570  12.043  22.971  0.00  0.00    +0.000 A 
ATOM     11  C   UNL     1      -1.208  13.356  23.201  0.00  0.00    +0.000 A 
ATOM     12  N   UNL     1      -2.290  13.916  23.824  0.00  0.00    +0.000 N 
ATOM     13  H   UNL     1      -5.019  12.419  24.714  0.00  0.00    +0.000 HD
ATOM     14  H   UNL     1      -4.581  14.015  25.109  0.00  0.00    +0.000 HD
ATOM     15  H   UNL     1      -2.393  14.879  24.103  0.00  0.00    +0.000 HD
ENDBRANCH   1  10
BRANCH   4  16
ATOM     16  N   UNL     1       1.583   8.177  20.189  0.00  0.00    +0.000 N 
ATOM     17  C   UNL     1       1.835   8.247  18.825  0.00  0.00    +0.000 C 
ATOM     18  O   UNL     1       1.491   9.155  18.071  0.00  0.00    +0.000 OA
ATOM     19  H   UNL     1       2.098   7.506  20.745  0.00  0.00    +0.000 HD
BRANCH  17  20
ATOM     20  C   UNL     1       2.661   7.172  18.215  0.00  0.00    +0.000 A 
ATOM     21  C   UNL     1       2.085   5.898  18.147  0.00  0.00    +0.000 A 
ATOM     22  C   UNL     1       2.833   4.803  17.724  0.00  0.00    +0.000 A 
ATOM     23  C   UNL     1       4.177   4.959  17.371  0.00  0.00    +0.000 A 
ATOM     24 CL   UNL     1       5.004   3.521  16.896  0.00  0.00    +0.000 Cl
ATOM     25  C   UNL     1       4.782   6.223  17.431  0.00  0.00    +0.000 A 
ATOM     26  C   UNL     1       4.002   7.335  17.848  0.00  0.00    +0.000 A 
BRANCH  25  27
ATOM     27  C   UNL     1       6.237   6.473  17.111  0.00  0.00    +0.000 C 
ATOM     28  F   UNL     1       6.671   6.080  15.887  0.00  0.00    +0.000 F 
ATOM     29  F   UNL     1       6.544   7.799  17.199  0.00  0.00    +0.000 F 
ATOM     30  F   UNL     1       7.059   5.852  18.005  0.00  0.00    +0.000 F 
ENDBRANCH  25  27
ENDBRANCH  17  20
ENDBRANCH   4  16
TORSDOF 4
ENDMDL
MODEL 8
REMARK VINA RESULT:      -8.0      1.349      2.125
REMARK  Name = 
REMARK  4 active torsions:
REMARK  status: ('A' for Active; 'I' for Inactive)
REMARK    1  A    between atoms: C_4  and  C_5
REMARK    2  A    between atoms: C_8  and  N_9
REMARK    3  A    between atoms: C_10  and  C_12
REMARK    4  A    between atoms: C_17  and  C_18
REMARK                            x       y       z     vdW  Elec       q    Type
REMARK                         _______ _______ _______ _____ _____    ______ ____
ROOT
ATOM      1  C   UNL     1      -0.976  12.774  22.675  0.00  0.00    +0.000 A 
ATOM      2  C   UNL     1      -0.145  12.913  21.562  0.00  0.00    +0.000 A 
ATOM      3  C   UNL     1       0.318  11.790  20.871  0.00  0.00    +0.000 A 
ATOM      4  C   UNL     1      -0.022  10.496  21.275  0.00  0.00    +0.000 A 
ATOM      5  C   UNL     1      -0.875  10.350  22.376  0.00  0.00    +0.000 A 
ATOM      6  C   UNL     1      -1.342  11.481  23.073  0.00  0.00    +0.000 A 
ENDROOT
BRANCH   1  10
ATOM      7  N   UNL     1      -3.876  15.729  25.106  0.00  0.00    +0.000 N 
ATOM      8  C   UNL     1      -2.834  15.205  24.455  0.00  0.00    +0.000 A 
ATOM      9  N   UNL     1      -2.686  13.970  24.048  0.00  0.00    +0.000 NA
ATOM     10  C   UNL     1      -1.485  13.943  23.373  0.00  0.00    +0.000 A 
ATOM     11  C   UNL     1      -0.880  15.184  23.426  0.00  0.00    +0.000 A 
ATOM     12  N   UNL     1      -1.759  15.976  24.113  0.00  0.00    +0.000 N 
ATOM     13  H   UNL     1      -4.556  15.066  25.464  0.00  0.00    +0.000 HD
ATOM     14  H   UNL     1      -3.808  16.584  25.644  0.00  0.00    +0.000 HD
ATOM     15  H   UNL     1      -1.661  16.960  24.304  0.00  0.00    +0.000 HD
ENDBRANCH   1  10
BRANCH   4  16
ATOM     16  N   UNL     1       0.457   9.338  20.607  0.00  0.00    +0.000 N 
ATOM     17  C   UNL     1       1.405   8.473  21.137  0.00  0.00    +0.000 C 
ATOM     18  O   UNL     1       1.898   8.540  22.262  0.00  0.00    +0.000 OA
ATOM     19  H   UNL     1      -0.037   9.062  19.768  0.00  0.00    +0.000 HD
BRANCH  17  20
ATOM     20  C   UNL     1       1.820   7.307  20.314  0.00  0.00    +0.000 A 
ATOM     21  C   UNL     1       2.368   7.587  19.058  0.00  0.00    +0.000 A 
ATOM     22  C   UNL     1       2.653   6.560  18.162  0.00  0.00    +0.000 A 
ATOM     23  C   UNL     1       2.383   5.231  18.503  0.00  0.00    +0.000 A 
ATOM     24 CL   UNL     1       2.749   4.053  17.296  0.00  0.00    +0.000 Cl
ATOM     25  C   UNL     1       1.832   4.919  19.754  0.00  0.00    +0.000 A 
ATOM     26  C   UNL     1       1.563   5.977  20.665  0.00  0.00    +0.000 A 
BRANCH  25  27
ATOM     27  C   UNL     1       1.469   3.518  20.186  0.00  0.00    +0.000 C 
ATOM     28  F   UNL     1       0.489   2.895  19.484  0.00  0.00    +0.000 F 
ATOM     29  F   UNL     1       2.547   2.685  20.128  0.00  0.00    +0.000 F 
ATOM     30  F   UNL     1       1.058   3.487  21.487  0.00  0.00    +0.000 F 
ENDBRANCH  25  27
ENDBRANCH  17  20
ENDBRANCH   4  16
TORSDOF 4
ENDMDL
MODEL 9
REMARK VINA RESULT:      -8.0      2.498      3.134
REMARK  Name = 
REMARK  4 active torsions:
REMARK  status: ('A' for Active; 'I' for Inactive)
REMARK    1  A    between atoms: C_4  and  C_5
REMARK    2  A    between atoms: C_8  and  N_9
REMARK    3  A    between atoms: C_10  and  C_12
REMARK    4  A    between atoms: C_17  and  C_18
REMARK                            x       y       z     vdW  Elec       q    Type
REMARK                         _______ _______ _______ _____ _____    ______ ____
ROOT
ATOM      1  C   UNL     1      -0.772  11.533  22.510  0.00  0.00    +0.000 A 
ATOM      2  C   UNL     1      -0.035  11.760  21.346  0.00  0.00    +0.000 A 
ATOM      3  C   UNL     1       0.686  10.725  20.745  0.00  0.00    +0.000 A 
ATOM      4  C   UNL     1       0.706   9.439  21.290  0.00  0.00    +0.000 A 
ATOM      5  C   UNL     1      -0.050   9.199  22.443  0.00  0.00    +0.000 A 
ATOM      6  C   UNL     1      -0.778  10.240  23.051  0.00  0.00    +0.000 A 
ENDROOT
BRANCH   1  10
ATOM      7  N   UNL     1      -1.943  15.628  24.727  0.00  0.00    +0.000 N 
ATOM      8  C   UNL     1      -1.995  14.444  24.112  0.00  0.00    +0.000 A 
ATOM      9  N   UNL     1      -1.010  13.793  23.545  0.00  0.00    +0.000 NA
ATOM     10  C   UNL     1      -1.550  12.601  23.117  0.00  0.00    +0.000 A 
ATOM     11  C   UNL     1      -2.904  12.564  23.390  0.00  0.00    +0.000 A 
ATOM     12  N   UNL     1      -3.166  13.744  24.031  0.00  0.00    +0.000 N 
ATOM     13  H   UNL     1      -1.084  16.155  24.606  0.00  0.00    +0.000 HD
ATOM     14  H   UNL     1      -2.764  16.202  24.874  0.00  0.00    +0.000 HD
ATOM     15  H   UNL     1      -4.050  14.039  24.413  0.00  0.00    +0.000 HD
ENDBRANCH   1  10
BRANCH   4  16
ATOM     16  N   UNL     1       1.454   8.378  20.714  0.00  0.00    +0.000 N 
ATOM     17  C   UNL     1       1.793   8.309  19.369  0.00  0.00    +0.000 C 
ATOM     18  O   UNL     1       1.566   9.169  18.521  0.00  0.00    +0.000 OA
ATOM     19  H   UNL     1       1.881   7.723  21.358  0.00  0.00    +0.000 HD
BRANCH  17  20
ATOM     20  C   UNL     1       2.568   7.128  18.907  0.00  0.00    +0.000 A 
ATOM     21  C   UNL     1       2.588   6.017  19.758  0.00  0.00    +0.000 A 
ATOM     22  C   UNL     1       3.402   4.922  19.476  0.00  0.00    +0.000 A 
ATOM     23  C   UNL     1       4.220   4.923  18.342  0.00  0.00    +0.000 A 
ATOM     24 CL   UNL     1       5.205   3.524  18.122  0.00  0.00    +0.000 Cl
ATOM     25  C   UNL     1       4.223   6.024  17.473  0.00  0.00    +0.000 A 
ATOM     26  C   UNL     1       3.375   7.127  17.764  0.00  0.00    +0.000 A 
BRANCH  25  27
ATOM     27  C   UNL     1       5.107   6.127  16.253  0.00  0.00    +0.000 C 
ATOM     28  F   UNL     1       6.445   6.203  16.470  0.00  0.00    +0.000 F 
ATOM     29  F   UNL     1       4.932   5.061  15.421  0.00  0.00    +0.000 F 
ATOM     30  F   UNL     1       4.798   7.224  15.503  0.00  0.00    +0.000 F 
ENDBRANCH  25  27
ENDBRANCH  17  20
ENDBRANCH   4  16
TORSDOF 4
ENDMDL
