MODEL 1
REMARK VINA RESULT:      -8.9      0.000      0.000
REMARK  Name = 
REMARK  5 active torsions:
REMARK  status: ('A' for Active; 'I' for Inactive)
REMARK    1  A    between atoms: C_2  and  C_3
REMARK    2  A    between atoms: N_5  and  C_6
REMARK    3  A    between atoms: C_13  and  O_14
REMARK    4  A    between atoms: O_14  and  C_15
REMARK    5  A    between atoms: C_18  and  C_19
REMARK                            x       y       z     vdW  Elec       q    Type
REMARK                         _______ _______ _______ _____ _____    ______ ____
ROOT
ATOM      1  O   UNL     1       2.064   6.214  20.925  0.00  0.00    +0.000 OA
ENDROOT
BRANCH   1   9
ATOM      2  C   UNL     1       5.512   5.009  18.439  0.00  0.00    +0.000 A 
ATOM      3  C   UNL     1       5.332   3.862  17.674  0.00  0.00    +0.000 A 
ATOM      4  C   UNL     1       4.148   3.129  17.783  0.00  0.00    +0.000 A 
ATOM      5  C   UNL     1       3.116   3.512  18.626  0.00  0.00    +0.000 A 
ATOM      6  N   UNL     1       1.994   2.778  18.616  0.00  0.00    +0.000 NA
ATOM      7  C   UNL     1       0.958   3.183  19.373  0.00  0.00    +0.000 A 
ATOM      8  C   UNL     1       1.003   4.290  20.189  0.00  0.00    +0.000 A 
ATOM      9  C   UNL     1       2.181   5.033  20.229  0.00  0.00    +0.000 A 
ATOM     10  C   UNL     1       3.284   4.661  19.423  0.00  0.00    +0.000 A 
ATOM     11  C   UNL     1       4.498   5.391  19.317  0.00  0.00    +0.000 A 
BRANCH   2  14
ATOM     12  C   UNL     1       6.814   6.893  17.509  0.00  0.00    +0.000 C 
ATOM     13  O   UNL     1       6.035   7.271  16.646  0.00  0.00    +0.000 OA
ATOM     14  N   UNL     1       6.654   5.833  18.359  0.00  0.00    +0.000 N 
ATOM     15  H   UNL     1       7.326   5.733  19.114  0.00  0.00    +0.000 HD
BRANCH  12  17
ATOM     16  C   UNL     1       8.069   8.967  17.864  0.00  0.00    +0.000 C 
ATOM     17  C   UNL     1       8.083   7.632  17.752  0.00  0.00    +0.000 C 
ENDBRANCH  12  17
ENDBRANCH   2  14
ENDBRANCH   1   9
BRANCH   1  18
ATOM     18  C   UNL     1       1.679   7.388  20.332  0.00  0.00    +0.000 A 
ATOM     19  C   UNL     1       0.881   8.195  21.145  0.00  0.00    +0.000 A 
ATOM     20  C   UNL     1       0.452   9.442  20.705  0.00  0.00    +0.000 A 
ATOM     21  C   UNL     1       0.825   9.908  19.435  0.00  0.00    +0.000 A 
ATOM     22  C   UNL     1       1.598   9.088  18.602  0.00  0.00    +0.000 A 
ATOM     23  C   UNL     1       2.046   7.837  19.060  0.00  0.00    +0.000 A 
BRANCH  21  24
ATOM     24  C   UNL     1       0.473  11.319  19.101  0.00  0.00    +0.000 C 
ATOM     25  O   UNL     1      -0.552  11.529  18.458  0.00  0.00    +0.000 OA
ATOM     26  N   UNL     1       1.349  12.299  19.516  0.00  0.00    +0.000 N 
ATOM     27  C   UNL     1       1.101  13.658  19.295  0.00  0.00    +0.000 A 
ATOM     28  C   UNL     1      -0.166  14.210  19.466  0.00  0.00    +0.000 A 
ATOM     29  C   UNL     1      -0.355  15.557  19.172  0.00  0.00    +0.000 A 
ATOM     30  C   UNL     1       0.714  16.296  18.687  0.00  0.00    +0.000 A 
ATOM     31  C   UNL     1       1.944  15.668  18.573  0.00  0.00    +0.000 A 
ATOM     32  N   UNL     1       2.172  14.377  18.907  0.00  0.00    +0.000 NA
ATOM     33  H   UNL     1       2.333  12.080  19.569  0.00  0.00    +0.000 HD
ENDBRANCH  21  24
ENDBRANCH   1  18
TORSDOF 5
ENDMDL
MODEL 2
REMARK VINA RESULT:      -8.7      3.303      5.070
REMARK  Name = 
REMARK  5 active torsions:
REMARK  status: ('A' for Active; 'I' for Inactive)
REMARK    1  A    between atoms: C_2  and  C_3
REMARK    2  A    between atoms: N_5  and  C_6
REMARK    3  A    between atoms: C_13  and  O_14
REMARK    4  A    between atoms: O_14  and  C_15
REMARK    5  A    between atoms: C_18  and  C_19
REMARK                            x       y       z     vdW  Elec       q    Type
REMARK                         _______ _______ _______ _____ _____    ______ ____
ROOT
ATOM      1  O   UNL     1       3.864   4.685  18.462  0.00  0.00    +0.000 OA
ENDROOT
BRANCH   1   9
ATOM      2  C   UNL     1       5.563   4.416  14.393  0.00  0.00    +0.000 A 
ATOM      3  C   UNL     1       6.930   4.648  14.294  0.00  0.00    +0.000 A 
ATOM      4  C   UNL     1       7.659   5.018  15.427  0.00  0.00    +0.000 A 
ATOM      5  C   UNL     1       7.070   5.153  16.674  0.00  0.00    +0.000 A 
ATOM      6  N   UNL     1       7.863   5.452  17.712  0.00  0.00    +0.000 NA
ATOM      7  C   UNL     1       7.315   5.510  18.940  0.00  0.00    +0.000 A 
ATOM      8  C   UNL     1       5.974   5.317  19.182  0.00  0.00    +0.000 A 
ATOM      9  C   UNL     1       5.142   5.043  18.098  0.00  0.00    +0.000 A 
ATOM     10  C   UNL     1       5.682   4.940  16.794  0.00  0.00    +0.000 A 
ATOM     11  C   UNL     1       4.947   4.578  15.633  0.00  0.00    +0.000 A 
BRANCH   2  14
ATOM     12  C   UNL     1       5.200   3.316  12.210  0.00  0.00    +0.000 C 
ATOM     13  O   UNL     1       6.353   3.009  11.944  0.00  0.00    +0.000 OA
ATOM     14  N   UNL     1       4.759   3.996  13.313  0.00  0.00    +0.000 N 
ATOM     15  H   UNL     1       3.756   4.050  13.459  0.00  0.00    +0.000 HD
BRANCH  12  17
ATOM     16  C   UNL     1       3.600   3.787  10.415  0.00  0.00    +0.000 C 
ATOM     17  C   UNL     1       4.087   2.913  11.307  0.00  0.00    +0.000 C 
ENDBRANCH  12  17
ENDBRANCH   2  14
ENDBRANCH   1   9
BRANCH   1  18
ATOM     18  C   UNL     1       3.069   5.478  19.249  0.00  0.00    +0.000 A 
ATOM     19  C   UNL     1       2.981   6.800  18.810  0.00  0.00    +0.000 A 
ATOM     20  C   UNL     1       2.172   7.716  19.472  0.00  0.00    +0.000 A 
ATOM     21  C   UNL     1       1.425   7.315  20.591  0.00  0.00    +0.000 A 
ATOM     22  C   UNL     1       1.535   5.998  21.056  0.00  0.00    +0.000 A 
ATOM     23  C   UNL     1       2.339   5.072  20.370  0.00  0.00    +0.000 A 
BRANCH  21  24
ATOM     24  C   UNL     1       0.451   8.302  21.144  0.00  0.00    +0.000 C 
ATOM     25  O   UNL     1      -0.630   7.889  21.556  0.00  0.00    +0.000 OA
ATOM     26  N   UNL     1       0.824   9.629  21.127  0.00  0.00    +0.000 N 
ATOM     27  C   UNL     1       0.010  10.635  21.656  0.00  0.00    +0.000 A 
ATOM     28  C   UNL     1      -0.677  10.469  22.856  0.00  0.00    +0.000 A 
ATOM     29  C   UNL     1      -1.515  11.489  23.294  0.00  0.00    +0.000 A 
ATOM     30  C   UNL     1      -1.666  12.621  22.507  0.00  0.00    +0.000 A 
ATOM     31  C   UNL     1      -0.923  12.710  21.341  0.00  0.00    +0.000 A 
ATOM     32  N   UNL     1      -0.056  11.761  20.920  0.00  0.00    +0.000 NA
ATOM     33  H   UNL     1       1.424   9.954  20.383  0.00  0.00    +0.000 HD
ENDBRANCH  21  24
ENDBRANCH   1  18
TORSDOF 5
ENDMDL
MODEL 3
REMARK VINA RESULT:      -8.6      1.251      1.274
REMARK  Name = 
REMARK  5 active torsions:
REMARK  status: ('A' for Active; 'I' for Inactive)
REMARK    1  A    between atoms: C_2  and  C_3
REMARK    2  A    between atoms: N_5  and  C_6
REMARK    3  A    between atoms: C_13  and  O_14
REMARK    4  A    between atoms: O_14  and  C_15
REMARK    5  A    between atoms: C_18  and  C_19
REMARK                            x       y       z     vdW  Elec       q    Type
REMARK                         _______ _______ _______ _____ _____    ______ ____
ROOT
ATOM      1  O   UNL     1       2.027   5.778  20.777  0.00  0.00    +0.000 OA
ENDROOT
BRANCH   1   9
ATOM      2  C   UNL     1       5.584   5.136  18.237  0.00  0.00    +0.000 A 
ATOM      3  C   UNL     1       5.456   4.160  17.254  0.00  0.00    +0.000 A 
ATOM      4  C   UNL     1       4.284   3.404  17.171  0.00  0.00    +0.000 A 
ATOM      5  C   UNL     1       3.216   3.598  18.033  0.00  0.00    +0.000 A 
ATOM      6  N   UNL     1       2.111   2.866  17.835  0.00  0.00    +0.000 NA
ATOM      7  C   UNL     1       1.040   3.098  18.617  0.00  0.00    +0.000 A 
ATOM      8  C   UNL     1       1.033   4.023  19.636  0.00  0.00    +0.000 A 
ATOM      9  C   UNL     1       2.194   4.759  19.867  0.00  0.00    +0.000 A 
ATOM     10  C   UNL     1       3.331   4.569  19.047  0.00  0.00    +0.000 A 
ATOM     11  C   UNL     1       4.533   5.323  19.133  0.00  0.00    +0.000 A 
BRANCH   2  14
ATOM     12  C   UNL     1       7.008   7.038  17.556  0.00  0.00    +0.000 C 
ATOM     13  O   UNL     1       6.393   7.408  16.566  0.00  0.00    +0.000 OA
ATOM     14  N   UNL     1       6.711   5.975  18.365  0.00  0.00    +0.000 N 
ATOM     15  H   UNL     1       7.237   5.882  19.229  0.00  0.00    +0.000 HD
BRANCH  12  17
ATOM     16  C   UNL     1       8.212   9.133  17.967  0.00  0.00    +0.000 C 
ATOM     17  C   UNL     1       8.203   7.794  18.026  0.00  0.00    +0.000 C 
ENDBRANCH  12  17
ENDBRANCH   2  14
ENDBRANCH   1   9
BRANCH   1  18
ATOM     18  C   UNL     1       1.674   7.050  20.409  0.00  0.00    +0.000 A 
ATOM     19  C   UNL     1       0.947   7.737  21.383  0.00  0.00    +0.000 A 
ATOM     20  C   UNL     1       0.559   9.056  21.180  0.00  0.00    +0.000 A 
ATOM     21  C   UNL     1       0.902   9.716  19.990  0.00  0.00    +0.000 A 
ATOM     22  C   UNL     1       1.602   9.021  18.996  0.00  0.00    +0.000 A 
ATOM     23  C   UNL     1       2.009   7.694  19.214  0.00  0.00    +0.000 A 
BRANCH  21  24
ATOM     24  C   UNL     1       0.603  11.177  19.915  0.00  0.00    +0.000 C 
ATOM     25  O   UNL     1       0.447  11.685  18.807  0.00  0.00    +0.000 OA
ATOM     26  N   UNL     1       0.550  11.868  21.106  0.00  0.00    +0.000 N 
ATOM     27  C   UNL     1       0.237  13.230  21.160  0.00  0.00    +0.000 A 
ATOM     28  C   UNL     1      -0.773  13.783  20.377  0.00  0.00    +0.000 A 
ATOM     29  C   UNL     1      -0.993  15.155  20.437  0.00  0.00    +0.000 A 
ATOM     30  C   UNL     1      -0.177  15.932  21.247  0.00  0.00    +0.000 A 
ATOM     31  C   UNL     1       0.786  15.291  22.010  0.00  0.00    +0.000 A 
ATOM     32  N   UNL     1       0.983  13.953  22.017  0.00  0.00    +0.000 NA
ATOM     33  H   UNL     1       1.139  11.567  21.868  0.00  0.00    +0.000 HD
ENDBRANCH  21  24
ENDBRANCH   1  18
TORSDOF 5
ENDMDL
MODEL 4
REMARK VINA RESULT:      -8.6      1.629      1.910
REMARK  Name = 
REMARK  5 active torsions:
REMARK  status: ('A' for Active; 'I' for Inactive)
REMARK    1  A    between atoms: C_2  and  C_3
REMARK    2  A    between atoms: N_5  and  C_6
REMARK    3  A    between atoms: C_13  and  O_14
REMARK    4  A    between atoms: O_14  and  C_15
REMARK    5  A    between atoms: C_18  and  C_19
REMARK                            x       y       z     vdW  Elec       q    Type
REMARK                         _______ _______ _______ _____ _____    ______ ____
ROOT
ATOM      1  O   UNL     1       2.881   5.698  19.952  0.00  0.00    +0.000 OA
ENDROOT
BRANCH   1   9
ATOM      2  C   UNL     1       6.842   5.904  18.008  0.00  0.00    +0.000 A 
ATOM      3  C   UNL     1       7.008   5.096  16.888  0.00  0.00    +0.000 A 
ATOM      4  C   UNL     1       5.983   4.232  16.493  0.00  0.00    +0.000 A 
ATOM      5  C   UNL     1       4.778   4.156  17.174  0.00  0.00    +0.000 A 
ATOM      6  N   UNL     1       3.832   3.343  16.683  0.00  0.00    +0.000 NA
ATOM      7  C   UNL     1       2.631   3.316  17.291  0.00  0.00    +0.000 A 
ATOM      8  C   UNL     1       2.335   4.052  18.415  0.00  0.00    +0.000 A 
ATOM      9  C   UNL     1       3.329   4.870  18.948  0.00  0.00    +0.000 A 
ATOM     10  C   UNL     1       4.595   4.952  18.322  0.00  0.00    +0.000 A 
ATOM     11  C   UNL     1       5.649   5.816  18.724  0.00  0.00    +0.000 A 
BRANCH   2  14
ATOM     12  C   UNL     1       7.949   8.114  17.984  0.00  0.00    +0.000 C 
ATOM     13  O   UNL     1       7.320   8.646  17.081  0.00  0.00    +0.000 OA
ATOM     14  N   UNL     1       7.805   6.835  18.451  0.00  0.00    +0.000 N 
ATOM     15  H   UNL     1       8.304   6.587  19.299  0.00  0.00    +0.000 HD
BRANCH  12  17
ATOM     16  C   UNL     1       8.946  10.221  18.739  0.00  0.00    +0.000 C 
ATOM     17  C   UNL     1       8.979   8.882  18.738  0.00  0.00    +0.000 C 
ENDBRANCH  12  17
ENDBRANCH   2  14
ENDBRANCH   1   9
BRANCH   1  18
ATOM     18  C   UNL     1       2.297   6.913  19.705  0.00  0.00    +0.000 A 
ATOM     19  C   UNL     1       1.610   7.441  20.799  0.00  0.00    +0.000 A 
ATOM     20  C   UNL     1       1.006   8.691  20.723  0.00  0.00    +0.000 A 
ATOM     21  C   UNL     1       1.089   9.442  19.540  0.00  0.00    +0.000 A 
ATOM     22  C   UNL     1       1.748   8.903  18.429  0.00  0.00    +0.000 A 
ATOM     23  C   UNL     1       2.373   7.647  18.518  0.00  0.00    +0.000 A 
BRANCH  21  24
ATOM     24  C   UNL     1       0.568  10.840  19.588  0.00  0.00    +0.000 C 
ATOM     25  O   UNL     1       0.081  11.317  18.566  0.00  0.00    +0.000 OA
ATOM     26  N   UNL     1       0.698  11.517  20.781  0.00  0.00    +0.000 N 
ATOM     27  C   UNL     1       0.209  12.816  20.953  0.00  0.00    +0.000 A 
ATOM     28  C   UNL     1      -1.028  13.208  20.449  0.00  0.00    +0.000 A 
ATOM     29  C   UNL     1      -1.427  14.532  20.606  0.00  0.00    +0.000 A 
ATOM     30  C   UNL     1      -0.566  15.424  21.228  0.00  0.00    +0.000 A 
ATOM     31  C   UNL     1       0.634  14.938  21.721  0.00  0.00    +0.000 A 
ATOM     32  N   UNL     1       1.022  13.645  21.636  0.00  0.00    +0.000 NA
ATOM     33  H   UNL     1       1.488  11.310  21.373  0.00  0.00    +0.000 HD
ENDBRANCH  21  24
ENDBRANCH   1  18
TORSDOF 5
ENDMDL
MODEL 5
REMARK VINA RESULT:      -8.5      1.293      1.375
REMARK  Name = 
REMARK  5 active torsions:
REMARK  status: ('A' for Active; 'I' for Inactive)
REMARK    1  A    between atoms: C_2  and  C_3
REMARK    2  A    between atoms: N_5  and  C_6
REMARK    3  A    between atoms: C_13  and  O_14
REMARK    4  A    between atoms: O_14  and  C_15
REMARK    5  A    between atoms: C_18  and  C_19
REMARK                            x       y       z     vdW  Elec       q    Type
REMARK                         _______ _______ _______ _____ _____    ______ ____
ROOT
ATOM      1  O   UNL     1       1.794   5.842  20.944  0.00  0.00    +0.000 OA
ENDROOT
BRANCH   1   9
ATOM      2  C   UNL     1       5.129   5.087  18.146  0.00  0.00    +0.000 A 
ATOM      3  C   UNL     1       4.979   3.985  17.312  0.00  0.00    +0.000 A 
ATOM      4  C   UNL     1       3.863   3.155  17.446  0.00  0.00    +0.000 A 
ATOM      5  C   UNL     1       2.871   3.396  18.383  0.00  0.00    +0.000 A 
ATOM      6  N   UNL     1       1.809   2.579  18.395  0.00  0.00    +0.000 NA
ATOM      7  C   UNL     1       0.804   2.847  19.249  0.00  0.00    +0.000 A 
ATOM      8  C   UNL     1       0.827   3.895  20.141  0.00  0.00    +0.000 A 
ATOM      9  C   UNL     1       1.947   4.724  20.155  0.00  0.00    +0.000 A 
ATOM     10  C   UNL     1       3.012   4.497  19.251  0.00  0.00    +0.000 A 
ATOM     11  C   UNL     1       4.158   5.327  19.117  0.00  0.00    +0.000 A 
BRANCH   2  14
ATOM     12  C   UNL     1       7.256   6.084  18.917  0.00  0.00    +0.000 C 
ATOM     13  O   UNL     1       7.427   5.432  19.937  0.00  0.00    +0.000 OA
ATOM     14  N   UNL     1       6.199   6.002  18.051  0.00  0.00    +0.000 N 
ATOM     15  H   UNL     1       6.272   6.509  17.175  0.00  0.00    +0.000 HD
BRANCH  12  17
ATOM     16  C   UNL     1       7.916   8.113  17.713  0.00  0.00    +0.000 C 
ATOM     17  C   UNL     1       8.278   7.072  18.475  0.00  0.00    +0.000 C 
ENDBRANCH  12  17
ENDBRANCH   2  14
ENDBRANCH   1   9
BRANCH   1  18
ATOM     18  C   UNL     1       1.594   7.094  20.424  0.00  0.00    +0.000 A 
ATOM     19  C   UNL     1       1.015   7.991  21.323  0.00  0.00    +0.000 A 
ATOM     20  C   UNL     1       0.795   9.315  20.961  0.00  0.00    +0.000 A 
ATOM     21  C   UNL     1       1.162   9.767  19.684  0.00  0.00    +0.000 A 
ATOM     22  C   UNL     1       1.712   8.863  18.767  0.00  0.00    +0.000 A 
ATOM     23  C   UNL     1       1.950   7.530  19.144  0.00  0.00    +0.000 A 
BRANCH  21  24
ATOM     24  C   UNL     1       1.055  11.234  19.428  0.00  0.00    +0.000 C 
ATOM     25  O   UNL     1       1.783  11.732  18.572  0.00  0.00    +0.000 OA
ATOM     26  N   UNL     1       0.157  11.941  20.197  0.00  0.00    +0.000 N 
ATOM     27  C   UNL     1      -0.058  13.311  20.017  0.00  0.00    +0.000 A 
ATOM     28  C   UNL     1      -0.143  13.880  18.748  0.00  0.00    +0.000 A 
ATOM     29  C   UNL     1      -0.298  15.258  18.641  0.00  0.00    +0.000 A 
ATOM     30  C   UNL     1      -0.329  16.023  19.798  0.00  0.00    +0.000 A 
ATOM     31  C   UNL     1      -0.261  15.368  21.017  0.00  0.00    +0.000 A 
ATOM     32  N   UNL     1      -0.170  14.025  21.153  0.00  0.00    +0.000 NA
ATOM     33  H   UNL     1      -0.019  11.634  21.143  0.00  0.00    +0.000 HD
ENDBRANCH  21  24
ENDBRANCH   1  18
TORSDOF 5
ENDMDL
MODEL 6
REMARK VINA RESULT:      -8.4      1.035      1.118
REMARK  Name = 
REMARK  5 active torsions:
REMARK  status: ('A' for Active; 'I' for Inactive)
REMARK    1  A    between atoms: C_2  and  C_3
REMARK    2  A    between atoms: N_5  and  C_6
REMARK    3  A    between atoms: C_13  and  O_14
REMARK    4  A    between atoms: O_14  and  C_15
REMARK    5  A    between atoms: C_18  and  C_19
REMARK                            x       y       z     vdW  Elec       q    Type
REMARK                         _______ _______ _______ _____ _____    ______ ____
ROOT
ATOM      1  O   UNL     1       2.033   6.373  20.923  0.00  0.00    +0.000 OA
ENDROOT
BRANCH   1   9
ATOM      2  C   UNL     1       4.893   5.698  17.624  0.00  0.00    +0.000 A 
ATOM      3  C   UNL     1       4.648   4.581  16.833  0.00  0.00    +0.000 A 
ATOM      4  C   UNL     1       3.599   3.715  17.153  0.00  0.00    +0.000 A 
ATOM      5  C   UNL     1       2.765   3.934  18.238  0.00  0.00    +0.000 A 
ATOM      6  N   UNL     1       1.749   3.081  18.428  0.00  0.00    +0.000 NA
ATOM      7  C   UNL     1       0.887   3.326  19.433  0.00  0.00    +0.000 A 
ATOM      8  C   UNL     1       1.018   4.385  20.302  0.00  0.00    +0.000 A 
ATOM      9  C   UNL     1       2.095   5.252  20.128  0.00  0.00    +0.000 A 
ATOM     10  C   UNL     1       3.006   5.050  19.063  0.00  0.00    +0.000 A 
ATOM     11  C   UNL     1       4.084   5.917  18.738  0.00  0.00    +0.000 A 
BRANCH   2  14
ATOM     12  C   UNL     1       7.132   6.694  17.940  0.00  0.00    +0.000 C 
ATOM     13  O   UNL     1       7.550   5.972  18.834  0.00  0.00    +0.000 OA
ATOM     14  N   UNL     1       5.899   6.648  17.349  0.00  0.00    +0.000 N 
ATOM     15  H   UNL     1       5.753   7.222  16.525  0.00  0.00    +0.000 HD
BRANCH  12  17
ATOM     16  C   UNL     1       8.162   8.917  17.972  0.00  0.00    +0.000 C 
ATOM     17  C   UNL     1       8.009   7.742  17.347  0.00  0.00    +0.000 C 
ENDBRANCH  12  17
ENDBRANCH   2  14
ENDBRANCH   1   9
BRANCH   1  18
ATOM     18  C   UNL     1       1.459   7.546  20.506  0.00  0.00    +0.000 A 
ATOM     19  C   UNL     1       0.523   8.064  21.403  0.00  0.00    +0.000 A 
ATOM     20  C   UNL     1      -0.110   9.276  21.147  0.00  0.00    +0.000 A 
ATOM     21  C   UNL     1       0.194   9.997  19.982  0.00  0.00    +0.000 A 
ATOM     22  C   UNL     1       1.108   9.465  19.063  0.00  0.00    +0.000 A 
ATOM     23  C   UNL     1       1.759   8.250  19.336  0.00  0.00    +0.000 A 
BRANCH  21  24
ATOM     24  C   UNL     1      -0.392  11.364  19.860  0.00  0.00    +0.000 C 
ATOM     25  O   UNL     1      -1.611  11.469  19.742  0.00  0.00    +0.000 OA
ATOM     26  N   UNL     1       0.486  12.426  19.858  0.00  0.00    +0.000 N 
ATOM     27  C   UNL     1       0.048  13.752  19.790  0.00  0.00    +0.000 A 
ATOM     28  C   UNL     1      -1.055  14.198  20.513  0.00  0.00    +0.000 A 
ATOM     29  C   UNL     1      -1.473  15.516  20.354  0.00  0.00    +0.000 A 
ATOM     30  C   UNL     1      -0.799  16.330  19.456  0.00  0.00    +0.000 A 
ATOM     31  C   UNL     1       0.303  15.807  18.798  0.00  0.00    +0.000 A 
ATOM     32  N   UNL     1       0.768  14.550  18.978  0.00  0.00    +0.000 NA
ATOM     33  H   UNL     1       1.407  12.292  19.465  0.00  0.00    +0.000 HD
ENDBRANCH  21  24
ENDBRANCH   1  18
TORSDOF 5
ENDMDL
MODEL 7
REMARK VINA RESULT:      -8.4      2.873      3.228
REMARK  Name = 
REMARK  5 active torsions:
REMARK  status: ('A' for Active; 'I' for Inactive)
REMARK    1  A    between atoms: C_2  and  C_3
REMARK    2  A    between atoms: N_5  and  C_6
REMARK    3  A    between atoms: C_13  and  O_14
REMARK    4  A    between atoms: O_14  and  C_15
REMARK    5  A    between atoms: C_18  and  C_19
REMARK                            x       y       z     vdW  Elec       q    Type
REMARK                         _______ _______ _______ _____ _____    ______ ____
ROOT
ATOM      1  O   UNL     1       2.848   6.946  19.653  0.00  0.00    +0.000 OA
ENDROOT
BRANCH   1   9
ATOM      2  C   UNL     1       4.221   3.857  16.809  0.00  0.00    +0.000 A 
ATOM      3  C   UNL     1       3.634   2.604  16.950  0.00  0.00    +0.000 A 
ATOM      4  C   UNL     1       2.734   2.368  17.992  0.00  0.00    +0.000 A 
ATOM      5  C   UNL     1       2.381   3.353  18.901  0.00  0.00    +0.000 A 
ATOM      6  N   UNL     1       1.462   3.049  19.829  0.00  0.00    +0.000 NA
ATOM      7  C   UNL     1       1.055   4.019  20.669  0.00  0.00    +0.000 A 
ATOM      8  C   UNL     1       1.562   5.298  20.652  0.00  0.00    +0.000 A 
ATOM      9  C   UNL     1       2.544   5.606  19.711  0.00  0.00    +0.000 A 
ATOM     10  C   UNL     1       2.977   4.625  18.788  0.00  0.00    +0.000 A 
ATOM     11  C   UNL     1       3.902   4.850  17.733  0.00  0.00    +0.000 A 
BRANCH   2  14
ATOM     12  C   UNL     1       6.453   4.386  15.890  0.00  0.00    +0.000 C 
ATOM     13  O   UNL     1       7.109   4.355  16.920  0.00  0.00    +0.000 OA
ATOM     14  N   UNL     1       5.104   4.195  15.762  0.00  0.00    +0.000 N 
ATOM     15  H   UNL     1       4.730   4.112  14.822  0.00  0.00    +0.000 HD
BRANCH  12  17
ATOM     16  C   UNL     1       6.513   4.242  13.444  0.00  0.00    +0.000 C 
ATOM     17  C   UNL     1       7.122   4.614  14.579  0.00  0.00    +0.000 C 
ENDBRANCH  12  17
ENDBRANCH   2  14
ENDBRANCH   1   9
BRANCH   1  18
ATOM     18  C   UNL     1       1.906   7.928  19.814  0.00  0.00    +0.000 A 
ATOM     19  C   UNL     1       1.454   8.065  21.128  0.00  0.00    +0.000 A 
ATOM     20  C   UNL     1       0.534   9.052  21.464  0.00  0.00    +0.000 A 
ATOM     21  C   UNL     1       0.054   9.930  20.480  0.00  0.00    +0.000 A 
ATOM     22  C   UNL     1       0.479   9.777  19.154  0.00  0.00    +0.000 A 
ATOM     23  C   UNL     1       1.424   8.790  18.824  0.00  0.00    +0.000 A 
BRANCH  21  24
ATOM     24  C   UNL     1      -0.794  11.068  20.943  0.00  0.00    +0.000 C 
ATOM     25  O   UNL     1      -1.642  11.516  20.175  0.00  0.00    +0.000 OA
ATOM     26  N   UNL     1      -0.546  11.562  22.206  0.00  0.00    +0.000 N 
ATOM     27  C   UNL     1      -1.305  12.597  22.760  0.00  0.00    +0.000 A 
ATOM     28  C   UNL     1      -2.690  12.650  22.618  0.00  0.00    +0.000 A 
ATOM     29  C   UNL     1      -3.376  13.739  23.144  0.00  0.00    +0.000 A 
ATOM     30  C   UNL     1      -2.658  14.752  23.763  0.00  0.00    +0.000 A 
ATOM     31  C   UNL     1      -1.285  14.602  23.880  0.00  0.00    +0.000 A 
ATOM     32  N   UNL     1      -0.598  13.526  23.431  0.00  0.00    +0.000 NA
ATOM     33  H   UNL     1       0.397  11.527  22.563  0.00  0.00    +0.000 HD
ENDBRANCH  21  24
ENDBRANCH   1  18
TORSDOF 5
ENDMDL
MODEL 8
REMARK VINA RESULT:      -8.4      3.309      4.125
REMARK  Name = 
REMARK  5 active torsions:
REMARK  status: ('A' for Active; 'I' for Inactive)
REMARK    1  A    between atoms: C_2  and  C_3
REMARK    2  A    between atoms: N_5  and  C_6
REMARK    3  A    between atoms: C_13  and  O_14
REMARK    4  A    between atoms: O_14  and  C_15
REMARK    5  A    between atoms: C_18  and  C_19
REMARK                            x       y       z     vdW  Elec       q    Type
REMARK                         _______ _______ _______ _____ _____    ______ ____
ROOT
ATOM      1  O   UNL     1       2.896   7.388  19.352  0.00  0.00    +0.000 OA
ENDROOT
BRANCH   1   9
ATOM      2  C   UNL     1       4.304   4.134  16.717  0.00  0.00    +0.000 A 
ATOM      3  C   UNL     1       3.827   2.863  17.020  0.00  0.00    +0.000 A 
ATOM      4  C   UNL     1       3.021   2.670  18.145  0.00  0.00    +0.000 A 
ATOM      5  C   UNL     1       2.656   3.714  18.981  0.00  0.00    +0.000 A 
ATOM      6  N   UNL     1       1.830   3.440  20.000  0.00  0.00    +0.000 NA
ATOM      7  C   UNL     1       1.408   4.458  20.773  0.00  0.00    +0.000 A 
ATOM      8  C   UNL     1       1.812   5.761  20.597  0.00  0.00    +0.000 A 
ATOM      9  C   UNL     1       2.700   6.042  19.560  0.00  0.00    +0.000 A 
ATOM     10  C   UNL     1       3.143   5.006  18.703  0.00  0.00    +0.000 A 
ATOM     11  C   UNL     1       3.974   5.190  17.565  0.00  0.00    +0.000 A 
BRANCH   2  14
ATOM     12  C   UNL     1       6.451   4.499  15.548  0.00  0.00    +0.000 C 
ATOM     13  O   UNL     1       7.218   4.382  16.492  0.00  0.00    +0.000 OA
ATOM     14  N   UNL     1       5.085   4.426  15.579  0.00  0.00    +0.000 N 
ATOM     15  H   UNL     1       4.597   4.403  14.689  0.00  0.00    +0.000 HD
BRANCH  12  17
ATOM     16  C   UNL     1       6.551   3.932  13.166  0.00  0.00    +0.000 C 
ATOM     17  C   UNL     1       6.979   4.708  14.171  0.00  0.00    +0.000 C 
ENDBRANCH  12  17
ENDBRANCH   2  14
ENDBRANCH   1   9
BRANCH   1  18
ATOM     18  C   UNL     1       1.861   8.282  19.261  0.00  0.00    +0.000 A 
ATOM     19  C   UNL     1       1.493   8.587  17.949  0.00  0.00    +0.000 A 
ATOM     20  C   UNL     1       0.426   9.439  17.690  0.00  0.00    +0.000 A 
ATOM     21  C   UNL     1      -0.302   9.998  18.752  0.00  0.00    +0.000 A 
ATOM     22  C   UNL     1       0.083   9.722  20.071  0.00  0.00    +0.000 A 
ATOM     23  C   UNL     1       1.151   8.844  20.326  0.00  0.00    +0.000 A 
BRANCH  21  24
ATOM     24  C   UNL     1      -1.535  10.762  18.400  0.00  0.00    +0.000 C 
ATOM     25  O   UNL     1      -1.443  11.976  18.232  0.00  0.00    +0.000 OA
ATOM     26  N   UNL     1      -2.711  10.049  18.316  0.00  0.00    +0.000 N 
ATOM     27  C   UNL     1      -3.920  10.652  17.953  0.00  0.00    +0.000 A 
ATOM     28  C   UNL     1      -3.993  11.592  16.927  0.00  0.00    +0.000 A 
ATOM     29  C   UNL     1      -5.217  12.196  16.658  0.00  0.00    +0.000 A 
ATOM     30  C   UNL     1      -6.315  11.868  17.440  0.00  0.00    +0.000 A 
ATOM     31  C   UNL     1      -6.153  10.904  18.422  0.00  0.00    +0.000 A 
ATOM     32  N   UNL     1      -4.991  10.257  18.667  0.00  0.00    +0.000 NA
ATOM     33  H   UNL     1      -2.834   9.243  18.911  0.00  0.00    +0.000 HD
ENDBRANCH  21  24
ENDBRANCH   1  18
TORSDOF 5
ENDMDL
MODEL 9
REMARK VINA RESULT:      -8.4      4.568      9.755
REMARK  Name = 
REMARK  5 active torsions:
REMARK  status: ('A' for Active; 'I' for Inactive)
REMARK    1  A    between atoms: C_2  and  C_3
REMARK    2  A    between atoms: N_5  and  C_6
REMARK    3  A    between atoms: C_13  and  O_14
REMARK    4  A    between atoms: O_14  and  C_15
REMARK    5  A    between atoms: C_18  and  C_19
REMARK                            x       y       z     vdW  Elec       q    Type
REMARK                         _______ _______ _______ _____ _____    ______ ____
ROOT
ATOM      1  O   UNL     1      -2.623  13.296  22.456  0.00  0.00    +0.000 OA
ENDROOT
BRANCH   1   9
ATOM      2  C   UNL     1      -5.059  12.119  18.963  0.00  0.00    +0.000 A 
ATOM      3  C   UNL     1      -6.421  11.969  19.201  0.00  0.00    +0.000 A 
ATOM      4  C   UNL     1      -6.924  12.113  20.496  0.00  0.00    +0.000 A 
ATOM      5  C   UNL     1      -6.110  12.421  21.575  0.00  0.00    +0.000 A 
ATOM      6  N   UNL     1      -6.692  12.600  22.769  0.00  0.00    +0.000 NA
ATOM      7  C   UNL     1      -5.923  12.973  23.808  0.00  0.00    +0.000 A 
ATOM      8  C   UNL     1      -4.560  13.144  23.719  0.00  0.00    +0.000 A 
ATOM      9  C   UNL     1      -3.947  12.923  22.487  0.00  0.00    +0.000 A 
ATOM     10  C   UNL     1      -4.724  12.560  21.361  0.00  0.00    +0.000 A 
ATOM     11  C   UNL     1      -4.220  12.397  20.042  0.00  0.00    +0.000 A 
BRANCH   2  14
ATOM     12  C   UNL     1      -3.829  10.941  17.173  0.00  0.00    +0.000 C 
ATOM     13  O   UNL     1      -3.601   9.885  17.744  0.00  0.00    +0.000 OA
ATOM     14  N   UNL     1      -4.474  12.035  17.683  0.00  0.00    +0.000 N 
ATOM     15  H   UNL     1      -4.709  12.783  17.038  0.00  0.00    +0.000 HD
BRANCH  12  17
ATOM     16  C   UNL     1      -2.990  10.083  15.036  0.00  0.00    +0.000 C 
ATOM     17  C   UNL     1      -3.428  11.129  15.751  0.00  0.00    +0.000 C 
ENDBRANCH  12  17
ENDBRANCH   2  14
ENDBRANCH   1   9
BRANCH   1  18
ATOM     18  C   UNL     1      -1.619  12.437  22.093  0.00  0.00    +0.000 A 
ATOM     19  C   UNL     1      -1.493  11.330  22.933  0.00  0.00    +0.000 A 
ATOM     20  C   UNL     1      -0.553  10.341  22.669  0.00  0.00    +0.000 A 
ATOM     21  C   UNL     1       0.278  10.442  21.542  0.00  0.00    +0.000 A 
ATOM     22  C   UNL     1       0.178  11.568  20.714  0.00  0.00    +0.000 A 
ATOM     23  C   UNL     1      -0.787  12.555  20.976  0.00  0.00    +0.000 A 
BRANCH  21  24
ATOM     24  C   UNL     1       1.139   9.265  21.227  0.00  0.00    +0.000 C 
ATOM     25  O   UNL     1       1.756   8.729  22.145  0.00  0.00    +0.000 OA
ATOM     26  N   UNL     1       1.207   8.872  19.908  0.00  0.00    +0.000 N 
ATOM     27  C   UNL     1       1.949   7.758  19.503  0.00  0.00    +0.000 A 
ATOM     28  C   UNL     1       1.950   6.572  20.233  0.00  0.00    +0.000 A 
ATOM     29  C   UNL     1       2.757   5.523  19.804  0.00  0.00    +0.000 A 
ATOM     30  C   UNL     1       3.558   5.703  18.686  0.00  0.00    +0.000 A 
ATOM     31  C   UNL     1       3.472   6.909  18.008  0.00  0.00    +0.000 A 
ATOM     32  N   UNL     1       2.653   7.924  18.367  0.00  0.00    +0.000 NA
ATOM     33  H   UNL     1       1.122   9.574  19.188  0.00  0.00    +0.000 HD
ENDBRANCH  21  24
ENDBRANCH   1  18
TORSDOF 5
ENDMDL
