MODEL 1
REMARK VINA RESULT:      -9.2      0.000      0.000
REMARK  Name = 
REMARK  4 active torsions:
REMARK  status: ('A' for Active; 'I' for Inactive)
REMARK    1  A    between atoms: C_4  and  C_5
REMARK    2  A    between atoms: C_4  and  C_24
REMARK    3  A    between atoms: C_7  and  N_8
REMARK    4  A    between atoms: N_8  and  C_9
REMARK                            x       y       z     vdW  Elec       q    Type
REMARK                         _______ _______ _______ _____ _____    ______ ____
ROOT
ATOM      1  C   UNL     1       4.313   6.230  18.009  0.00  0.00    +0.000 A 
ATOM      2  C   UNL     1       3.589   7.409  17.722  0.00  0.00    +0.000 A 
ATOM      3  C   UNL     1       2.440   7.777  18.445  0.00  0.00    +0.000 A 
ATOM      4  C   UNL     1       2.054   6.970  19.520  0.00  0.00    +0.000 A 
ATOM      5  C   UNL     1       2.753   5.809  19.835  0.00  0.00    +0.000 A 
ATOM      6  C   UNL     1       3.862   5.448  19.084  0.00  0.00    +0.000 A 
ATOM      7  F   UNL     1       4.491   4.310  19.407  0.00  0.00    +0.000 F 
ENDROOT
BRANCH   1  11
ATOM      8  N   UNL     1       7.808   8.530  17.251  0.00  0.00    +0.000 N 
ATOM      9  C   UNL     1       7.166   7.368  17.490  0.00  0.00    +0.000 C 
ATOM     10  N   UNL     1       6.274   6.892  16.701  0.00  0.00    +0.000 NA
ATOM     11  C   UNL     1       5.489   5.714  17.147  0.00  0.00    +0.000 C 
ATOM     12  C   UNL     1       6.361   4.745  17.919  0.00  0.00    +0.000 C 
ATOM     13  C   UNL     1       7.825   4.487  17.624  0.00  0.00    +0.000 C 
ATOM     14  C   UNL     1       7.415   5.355  18.784  0.00  0.00    +0.000 C 
ATOM     15  O   UNL     1       7.627   6.769  18.615  0.00  0.00    +0.000 OA
ATOM     16  H   UNL     1       7.762   8.827  16.285  0.00  0.00    +0.000 HD
ATOM     17  H   UNL     1       8.715   8.614  17.690  0.00  0.00    +0.000 HD
BRANCH  11  18
ATOM     18  C   UNL     1       4.935   4.977  15.888  0.00  0.00    +0.000 C 
ATOM     19  F   UNL     1       5.746   5.186  14.811  0.00  0.00    +0.000 F 
ATOM     20  F   UNL     1       4.936   3.628  16.089  0.00  0.00    +0.000 F 
ENDBRANCH  11  18
ENDBRANCH   1  11
BRANCH   3  21
ATOM     21  N   UNL     1       1.718   8.926  18.064  0.00  0.00    +0.000 N 
ATOM     22  H   UNL     1       1.325   8.902  17.127  0.00  0.00    +0.000 HD
BRANCH  21  23
ATOM     23  C   UNL     1       0.914   9.768  18.887  0.00  0.00    +0.000 A 
ATOM     24  N   UNL     1       1.406  10.197  20.080  0.00  0.00    +0.000 NA
ATOM     25  C   UNL     1       0.659  11.027  20.825  0.00  0.00    +0.000 A 
ATOM     26  C   UNL     1      -0.582  11.476  20.437  0.00  0.00    +0.000 A 
ATOM     27  C   UNL     1      -1.101  11.028  19.217  0.00  0.00    +0.000 A 
ATOM     28  C   UNL     1      -2.372  11.436  18.794  0.00  0.00    +0.000 A 
ATOM     29  C   UNL     1      -2.887  10.955  17.600  0.00  0.00    +0.000 A 
ATOM     30 CL   UNL     1      -4.455  11.413  17.078  0.00  0.00    +0.000 Cl
ATOM     31  C   UNL     1      -2.109  10.085  16.859  0.00  0.00    +0.000 A 
ATOM     32  N   UNL     1      -0.868   9.676  17.227  0.00  0.00    +0.000 NA
ATOM     33  C   UNL     1      -0.357  10.146  18.401  0.00  0.00    +0.000 A 
ENDBRANCH  21  23
ENDBRANCH   3  21
TORSDOF 4
ENDMDL
MODEL 2
REMARK VINA RESULT:      -9.2      1.962      2.270
REMARK  Name = 
REMARK  4 active torsions:
REMARK  status: ('A' for Active; 'I' for Inactive)
REMARK    1  A    between atoms: C_4  and  C_5
REMARK    2  A    between atoms: C_4  and  C_24
REMARK    3  A    between atoms: C_7  and  N_8
REMARK    4  A    between atoms: N_8  and  C_9
REMARK                            x       y       z     vdW  Elec       q    Type
REMARK                         _______ _______ _______ _____ _____    ______ ____
ROOT
ATOM      1  C   UNL     1       4.397   6.199  17.967  0.00  0.00    +0.000 A 
ATOM      2  C   UNL     1       3.616   7.327  17.628  0.00  0.00    +0.000 A 
ATOM      3  C   UNL     1       2.459   7.679  18.345  0.00  0.00    +0.000 A 
ATOM      4  C   UNL     1       2.121   6.913  19.465  0.00  0.00    +0.000 A 
ATOM      5  C   UNL     1       2.876   5.804  19.832  0.00  0.00    +0.000 A 
ATOM      6  C   UNL     1       3.993   5.455  19.087  0.00  0.00    +0.000 A 
ATOM      7  F   UNL     1       4.677   4.365  19.461  0.00  0.00    +0.000 F 
ENDROOT
BRANCH   1  11
ATOM      8  N   UNL     1       7.882   8.526  17.251  0.00  0.00    +0.000 N 
ATOM      9  C   UNL     1       7.247   7.359  17.482  0.00  0.00    +0.000 C 
ATOM     10  N   UNL     1       6.368   6.877  16.682  0.00  0.00    +0.000 NA
ATOM     11  C   UNL     1       5.586   5.693  17.118  0.00  0.00    +0.000 C 
ATOM     12  C   UNL     1       6.457   4.730  17.901  0.00  0.00    +0.000 C 
ATOM     13  C   UNL     1       7.926   4.483  17.623  0.00  0.00    +0.000 C 
ATOM     14  C   UNL     1       7.496   5.348  18.777  0.00  0.00    +0.000 C 
ATOM     15  O   UNL     1       7.699   6.763  18.612  0.00  0.00    +0.000 OA
ATOM     16  H   UNL     1       7.845   8.823  16.284  0.00  0.00    +0.000 HD
ATOM     17  H   UNL     1       8.783   8.617  17.700  0.00  0.00    +0.000 HD
BRANCH  11  18
ATOM     18  C   UNL     1       5.052   4.952  15.853  0.00  0.00    +0.000 C 
ATOM     19  F   UNL     1       5.953   5.033  14.831  0.00  0.00    +0.000 F 
ATOM     20  F   UNL     1       4.908   3.620  16.108  0.00  0.00    +0.000 F 
ENDBRANCH  11  18
ENDBRANCH   1  11
BRANCH   3  21
ATOM     21  N   UNL     1       1.681   8.773  17.913  0.00  0.00    +0.000 N 
ATOM     22  H   UNL     1       0.719   8.554  17.671  0.00  0.00    +0.000 HD
BRANCH  21  23
ATOM     23  C   UNL     1       1.756  10.128  18.351  0.00  0.00    +0.000 A 
ATOM     24  N   UNL     1       2.525  11.009  17.657  0.00  0.00    +0.000 NA
ATOM     25  C   UNL     1       2.551  12.292  18.051  0.00  0.00    +0.000 A 
ATOM     26  C   UNL     1       1.829  12.766  19.121  0.00  0.00    +0.000 A 
ATOM     27  C   UNL     1       1.046  11.863  19.849  0.00  0.00    +0.000 A 
ATOM     28  C   UNL     1       0.315  12.294  20.963  0.00  0.00    +0.000 A 
ATOM     29  C   UNL     1      -0.426  11.380  21.696  0.00  0.00    +0.000 A 
ATOM     30 CL   UNL     1      -1.301  11.878  23.084  0.00  0.00    +0.000 Cl
ATOM     31  C   UNL     1      -0.423  10.060  21.284  0.00  0.00    +0.000 A 
ATOM     32  N   UNL     1       0.261   9.604  20.203  0.00  0.00    +0.000 NA
ATOM     33  C   UNL     1       0.993  10.500  19.480  0.00  0.00    +0.000 A 
ENDBRANCH  21  23
ENDBRANCH   3  21
TORSDOF 4
ENDMDL
MODEL 3
REMARK VINA RESULT:      -9.1      1.778      2.248
REMARK  Name = 
REMARK  4 active torsions:
REMARK  status: ('A' for Active; 'I' for Inactive)
REMARK    1  A    between atoms: C_4  and  C_5
REMARK    2  A    between atoms: C_4  and  C_24
REMARK    3  A    between atoms: C_7  and  N_8
REMARK    4  A    between atoms: N_8  and  C_9
REMARK                            x       y       z     vdW  Elec       q    Type
REMARK                         _______ _______ _______ _____ _____    ______ ____
ROOT
ATOM      1  C   UNL     1       2.621   6.526  18.940  0.00  0.00    +0.000 A 
ATOM      2  C   UNL     1       2.389   7.755  18.281  0.00  0.00    +0.000 A 
ATOM      3  C   UNL     1       1.677   8.806  18.887  0.00  0.00    +0.000 A 
ATOM      4  C   UNL     1       1.247   8.635  20.207  0.00  0.00    +0.000 A 
ATOM      5  C   UNL     1       1.470   7.442  20.886  0.00  0.00    +0.000 A 
ATOM      6  C   UNL     1       2.144   6.406  20.255  0.00  0.00    +0.000 A 
ATOM      7  F   UNL     1       2.316   5.266  20.938  0.00  0.00    +0.000 F 
ENDROOT
BRANCH   1  11
ATOM      8  N   UNL     1       5.747   6.845  16.076  0.00  0.00    +0.000 N 
ATOM      9  C   UNL     1       5.124   6.240  17.108  0.00  0.00    +0.000 C 
ATOM     10  N   UNL     1       3.936   5.765  17.020  0.00  0.00    +0.000 NA
ATOM     11  C   UNL     1       3.266   5.297  18.260  0.00  0.00    +0.000 C 
ATOM     12  C   UNL     1       4.254   4.608  19.180  0.00  0.00    +0.000 C 
ATOM     13  C   UNL     1       5.424   3.769  18.707  0.00  0.00    +0.000 C 
ATOM     14  C   UNL     1       5.635   5.174  19.203  0.00  0.00    +0.000 C 
ATOM     15  O   UNL     1       5.930   6.159  18.195  0.00  0.00    +0.000 OA
ATOM     16  H   UNL     1       5.344   6.623  15.174  0.00  0.00    +0.000 HD
ATOM     17  H   UNL     1       6.756   6.827  16.118  0.00  0.00    +0.000 HD
BRANCH  11  18
ATOM     18  C   UNL     1       2.159   4.268  17.872  0.00  0.00    +0.000 C 
ATOM     19  F   UNL     1       1.074   4.904  17.340  0.00  0.00    +0.000 F 
ATOM     20  F   UNL     1       2.609   3.433  16.892  0.00  0.00    +0.000 F 
ENDBRANCH  11  18
ENDBRANCH   1  11
BRANCH   3  21
ATOM     21  N   UNL     1       1.413   9.979  18.151  0.00  0.00    +0.000 N 
ATOM     22  H   UNL     1       1.349   9.858  17.145  0.00  0.00    +0.000 HD
BRANCH  21  23
ATOM     23  C   UNL     1       0.614  11.095  18.539  0.00  0.00    +0.000 A 
ATOM     24  N   UNL     1       1.216  12.192  19.071  0.00  0.00    +0.000 NA
ATOM     25  C   UNL     1       0.458  13.253  19.389  0.00  0.00    +0.000 A 
ATOM     26  C   UNL     1      -0.903  13.292  19.195  0.00  0.00    +0.000 A 
ATOM     27  C   UNL     1      -1.532  12.162  18.662  0.00  0.00    +0.000 A 
ATOM     28  C   UNL     1      -2.920  12.145  18.472  0.00  0.00    +0.000 A 
ATOM     29  C   UNL     1      -3.533  11.004  17.977  0.00  0.00    +0.000 A 
ATOM     30 CL   UNL     1      -5.234  10.947  17.769  0.00  0.00    +0.000 Cl
ATOM     31  C   UNL     1      -2.736   9.916  17.675  0.00  0.00    +0.000 A 
ATOM     32  N   UNL     1      -1.387   9.897  17.831  0.00  0.00    +0.000 NA
ATOM     33  C   UNL     1      -0.779  11.016  18.320  0.00  0.00    +0.000 A 
ENDBRANCH  21  23
ENDBRANCH   3  21
TORSDOF 4
ENDMDL
MODEL 4
REMARK VINA RESULT:      -8.9      2.923      3.661
REMARK  Name = 
REMARK  4 active torsions:
REMARK  status: ('A' for Active; 'I' for Inactive)
REMARK    1  A    between atoms: C_4  and  C_5
REMARK    2  A    between atoms: C_4  and  C_24
REMARK    3  A    between atoms: C_7  and  N_8
REMARK    4  A    between atoms: N_8  and  C_9
REMARK                            x       y       z     vdW  Elec       q    Type
REMARK                         _______ _______ _______ _____ _____    ______ ____
ROOT
ATOM      1  C   UNL     1       2.573   6.599  18.947  0.00  0.00    +0.000 A 
ATOM      2  C   UNL     1       2.422   7.822  18.254  0.00  0.00    +0.000 A 
ATOM      3  C   UNL     1       1.742   8.919  18.813  0.00  0.00    +0.000 A 
ATOM      4  C   UNL     1       1.262   8.799  20.121  0.00  0.00    +0.000 A 
ATOM      5  C   UNL     1       1.406   7.612  20.833  0.00  0.00    +0.000 A 
ATOM      6  C   UNL     1       2.048   6.532  20.247  0.00  0.00    +0.000 A 
ATOM      7  F   UNL     1       2.144   5.401  20.959  0.00  0.00    +0.000 F 
ENDROOT
BRANCH   1  11
ATOM      8  N   UNL     1       5.682   6.711  16.048  0.00  0.00    +0.000 N 
ATOM      9  C   UNL     1       5.052   6.168  17.110  0.00  0.00    +0.000 C 
ATOM     10  N   UNL     1       3.851   5.722  17.051  0.00  0.00    +0.000 NA
ATOM     11  C   UNL     1       3.180   5.325  18.314  0.00  0.00    +0.000 C 
ATOM     12  C   UNL     1       4.157   4.649  19.256  0.00  0.00    +0.000 C 
ATOM     13  C   UNL     1       5.300   3.760  18.810  0.00  0.00    +0.000 C 
ATOM     14  C   UNL     1       5.553   5.179  19.245  0.00  0.00    +0.000 C 
ATOM     15  O   UNL     1       5.864   6.111  18.193  0.00  0.00    +0.000 OA
ATOM     16  H   UNL     1       5.265   6.463  15.160  0.00  0.00    +0.000 HD
ATOM     17  H   UNL     1       6.691   6.669  16.084  0.00  0.00    +0.000 HD
BRANCH  11  18
ATOM     18  C   UNL     1       2.042   4.310  17.979  0.00  0.00    +0.000 C 
ATOM     19  F   UNL     1       1.014   4.934  17.333  0.00  0.00    +0.000 F 
ATOM     20  F   UNL     1       2.495   3.360  17.112  0.00  0.00    +0.000 F 
ENDBRANCH  11  18
ENDBRANCH   1  11
BRANCH   3  21
ATOM     21  N   UNL     1       1.559  10.086  18.044  0.00  0.00    +0.000 N 
ATOM     22  H   UNL     1       1.585   9.954  17.037  0.00  0.00    +0.000 HD
BRANCH  21  23
ATOM     23  C   UNL     1       0.740  11.214  18.345  0.00  0.00    +0.000 A 
ATOM     24  N   UNL     1      -0.594  11.034  18.541  0.00  0.00    +0.000 NA
ATOM     25  C   UNL     1      -1.347  12.095  18.870  0.00  0.00    +0.000 A 
ATOM     26  C   UNL     1      -0.834  13.361  19.030  0.00  0.00    +0.000 A 
ATOM     27  C   UNL     1       0.535  13.558  18.817  0.00  0.00    +0.000 A 
ATOM     28  C   UNL     1       1.097  14.835  18.941  0.00  0.00    +0.000 A 
ATOM     29  C   UNL     1       2.448  15.019  18.690  0.00  0.00    +0.000 A 
ATOM     30 CL   UNL     1       3.151  16.579  18.802  0.00  0.00    +0.000 Cl
ATOM     31  C   UNL     1       3.200  13.916  18.333  0.00  0.00    +0.000 A 
ATOM     32  N   UNL     1       2.697  12.660  18.215  0.00  0.00    +0.000 NA
ATOM     33  C   UNL     1       1.368  12.474  18.459  0.00  0.00    +0.000 A 
ENDBRANCH  21  23
ENDBRANCH   3  21
TORSDOF 4
ENDMDL
MODEL 5
REMARK VINA RESULT:      -8.8      2.293      2.861
REMARK  Name = 
REMARK  4 active torsions:
REMARK  status: ('A' for Active; 'I' for Inactive)
REMARK    1  A    between atoms: C_4  and  C_5
REMARK    2  A    between atoms: C_4  and  C_24
REMARK    3  A    between atoms: C_7  and  N_8
REMARK    4  A    between atoms: N_8  and  C_9
REMARK                            x       y       z     vdW  Elec       q    Type
REMARK                         _______ _______ _______ _____ _____    ______ ____
ROOT
ATOM      1  C   UNL     1       2.615   6.608  18.859  0.00  0.00    +0.000 A 
ATOM      2  C   UNL     1       2.386   7.805  18.142  0.00  0.00    +0.000 A 
ATOM      3  C   UNL     1       1.676   8.884  18.696  0.00  0.00    +0.000 A 
ATOM      4  C   UNL     1       1.244   8.777  20.022  0.00  0.00    +0.000 A 
ATOM      5  C   UNL     1       1.465   7.617  20.758  0.00  0.00    +0.000 A 
ATOM      6  C   UNL     1       2.136   6.551  20.177  0.00  0.00    +0.000 A 
ATOM      7  F   UNL     1       2.306   5.444  20.913  0.00  0.00    +0.000 F 
ENDROOT
BRANCH   1  11
ATOM      8  N   UNL     1       5.782   6.782  16.027  0.00  0.00    +0.000 N 
ATOM      9  C   UNL     1       5.139   6.226  17.074  0.00  0.00    +0.000 C 
ATOM     10  N   UNL     1       3.948   5.758  16.989  0.00  0.00    +0.000 NA
ATOM     11  C   UNL     1       3.258   5.346  18.237  0.00  0.00    +0.000 C 
ATOM     12  C   UNL     1       4.227   4.687  19.198  0.00  0.00    +0.000 C 
ATOM     13  C   UNL     1       5.395   3.819  18.776  0.00  0.00    +0.000 C 
ATOM     14  C   UNL     1       5.613   5.242  19.217  0.00  0.00    +0.000 C 
ATOM     15  O   UNL     1       5.930   6.181  18.174  0.00  0.00    +0.000 OA
ATOM     16  H   UNL     1       5.389   6.528  15.129  0.00  0.00    +0.000 HD
ATOM     17  H   UNL     1       6.790   6.758  16.084  0.00  0.00    +0.000 HD
BRANCH  11  18
ATOM     18  C   UNL     1       2.146   4.312  17.876  0.00  0.00    +0.000 C 
ATOM     19  F   UNL     1       1.069   4.937  17.319  0.00  0.00    +0.000 F 
ATOM     20  F   UNL     1       2.597   3.444  16.926  0.00  0.00    +0.000 F 
ENDBRANCH  11  18
ENDBRANCH   1  11
BRANCH   3  21
ATOM     21  N   UNL     1       1.415  10.022  17.906  0.00  0.00    +0.000 N 
ATOM     22  H   UNL     1       0.672   9.917  17.221  0.00  0.00    +0.000 HD
BRANCH  21  23
ATOM     23  C   UNL     1       1.508  11.393  18.288  0.00  0.00    +0.000 A 
ATOM     24  N   UNL     1       2.663  12.072  18.059  0.00  0.00    +0.000 NA
ATOM     25  C   UNL     1       2.722  13.373  18.380  0.00  0.00    +0.000 A 
ATOM     26  C   UNL     1       1.664  14.063  18.924  0.00  0.00    +0.000 A 
ATOM     27  C   UNL     1       0.475  13.370  19.176  0.00  0.00    +0.000 A 
ATOM     28  C   UNL     1      -0.619  14.023  19.755  0.00  0.00    +0.000 A 
ATOM     29  C   UNL     1      -1.777  13.313  20.033  0.00  0.00    +0.000 A 
ATOM     30 CL   UNL     1      -3.118  14.084  20.772  0.00  0.00    +0.000 Cl
ATOM     31  C   UNL     1      -1.809  11.968  19.712  0.00  0.00    +0.000 A 
ATOM     32  N   UNL     1      -0.775  11.301  19.138  0.00  0.00    +0.000 NA
ATOM     33  C   UNL     1       0.367  11.995  18.865  0.00  0.00    +0.000 A 
ENDBRANCH  21  23
ENDBRANCH   3  21
TORSDOF 4
ENDMDL
MODEL 6
REMARK VINA RESULT:      -8.8      2.755      3.715
REMARK  Name = 
REMARK  4 active torsions:
REMARK  status: ('A' for Active; 'I' for Inactive)
REMARK    1  A    between atoms: C_4  and  C_5
REMARK    2  A    between atoms: C_4  and  C_24
REMARK    3  A    between atoms: C_7  and  N_8
REMARK    4  A    between atoms: N_8  and  C_9
REMARK                            x       y       z     vdW  Elec       q    Type
REMARK                         _______ _______ _______ _____ _____    ______ ____
ROOT
ATOM      1  C   UNL     1       3.064   6.021  18.747  0.00  0.00    +0.000 A 
ATOM      2  C   UNL     1       2.217   6.732  19.627  0.00  0.00    +0.000 A 
ATOM      3  C   UNL     1       1.890   8.085  19.421  0.00  0.00    +0.000 A 
ATOM      4  C   UNL     1       2.378   8.711  18.269  0.00  0.00    +0.000 A 
ATOM      5  C   UNL     1       3.204   8.034  17.378  0.00  0.00    +0.000 A 
ATOM      6  C   UNL     1       3.542   6.711  17.622  0.00  0.00    +0.000 A 
ATOM      7  F   UNL     1       4.359   6.105  16.750  0.00  0.00    +0.000 F 
ENDROOT
BRANCH   1  11
ATOM      8  N   UNL     1       0.800   3.149  20.915  0.00  0.00    +0.000 N 
ATOM      9  C   UNL     1       1.647   3.512  19.931  0.00  0.00    +0.000 C 
ATOM     10  N   UNL     1       2.793   4.040  20.161  0.00  0.00    +0.000 NA
ATOM     11  C   UNL     1       3.566   4.583  19.015  0.00  0.00    +0.000 C 
ATOM     12  C   UNL     1       3.408   3.702  17.792  0.00  0.00    +0.000 C 
ATOM     13  C   UNL     1       3.266   2.195  17.834  0.00  0.00    +0.000 C 
ATOM     14  C   UNL     1       2.067   3.074  17.603  0.00  0.00    +0.000 C 
ATOM     15  O   UNL     1       1.154   3.194  18.709  0.00  0.00    +0.000 OA
ATOM     16  H   UNL     1       1.249   3.038  21.816  0.00  0.00    +0.000 HD
ATOM     17  H   UNL     1       0.142   2.424  20.665  0.00  0.00    +0.000 HD
BRANCH  11  18
ATOM     18  C   UNL     1       5.077   4.617  19.403  0.00  0.00    +0.000 C 
ATOM     19  F   UNL     1       5.853   4.224  18.351  0.00  0.00    +0.000 F 
ATOM     20  F   UNL     1       5.466   5.893  19.687  0.00  0.00    +0.000 F 
ENDBRANCH  11  18
ENDBRANCH   1  11
BRANCH   3  21
ATOM     21  N   UNL     1       1.101   8.760  20.373  0.00  0.00    +0.000 N 
ATOM     22  H   UNL     1       1.248   8.481  21.339  0.00  0.00    +0.000 HD
BRANCH  21  23
ATOM     23  C   UNL     1       0.660  10.116  20.341  0.00  0.00    +0.000 A 
ATOM     24  N   UNL     1       1.322  11.049  21.077  0.00  0.00    +0.000 NA
ATOM     25  C   UNL     1       0.927  12.329  21.003  0.00  0.00    +0.000 A 
ATOM     26  C   UNL     1      -0.114  12.751  20.208  0.00  0.00    +0.000 A 
ATOM     27  C   UNL     1      -0.809  11.796  19.458  0.00  0.00    +0.000 A 
ATOM     28  C   UNL     1      -1.893  12.174  18.656  0.00  0.00    +0.000 A 
ATOM     29  C   UNL     1      -2.595  11.211  17.948  0.00  0.00    +0.000 A 
ATOM     30 CL   UNL     1      -3.946  11.645  16.987  0.00  0.00    +0.000 Cl
ATOM     31  C   UNL     1      -2.183   9.895  18.055  0.00  0.00    +0.000 A 
ATOM     32  N   UNL     1      -1.130   9.489  18.810  0.00  0.00    +0.000 NA
ATOM     33  C   UNL     1      -0.437  10.433  19.510  0.00  0.00    +0.000 A 
ENDBRANCH  21  23
ENDBRANCH   3  21
TORSDOF 4
ENDMDL
MODEL 7
REMARK VINA RESULT:      -8.8      1.842      2.052
REMARK  Name = 
REMARK  4 active torsions:
REMARK  status: ('A' for Active; 'I' for Inactive)
REMARK    1  A    between atoms: C_4  and  C_5
REMARK    2  A    between atoms: C_4  and  C_24
REMARK    3  A    between atoms: C_7  and  N_8
REMARK    4  A    between atoms: N_8  and  C_9
REMARK                            x       y       z     vdW  Elec       q    Type
REMARK                         _______ _______ _______ _____ _____    ______ ____
ROOT
ATOM      1  C   UNL     1       4.291   5.611  17.293  0.00  0.00    +0.000 A 
ATOM      2  C   UNL     1       3.837   6.892  17.684  0.00  0.00    +0.000 A 
ATOM      3  C   UNL     1       2.525   7.113  18.139  0.00  0.00    +0.000 A 
ATOM      4  C   UNL     1       1.675   6.008  18.261  0.00  0.00    +0.000 A 
ATOM      5  C   UNL     1       2.097   4.734  17.895  0.00  0.00    +0.000 A 
ATOM      6  C   UNL     1       3.385   4.547  17.415  0.00  0.00    +0.000 A 
ATOM      7  F   UNL     1       3.742   3.307  17.052  0.00  0.00    +0.000 F 
ENDROOT
BRANCH   1  11
ATOM      8  N   UNL     1       7.464   8.440  17.409  0.00  0.00    +0.000 N 
ATOM      9  C   UNL     1       6.978   7.182  17.435  0.00  0.00    +0.000 C 
ATOM     10  N   UNL     1       6.335   6.666  16.452  0.00  0.00    +0.000 NA
ATOM     11  C   UNL     1       5.673   5.352  16.650  0.00  0.00    +0.000 C 
ATOM     12  C   UNL     1       6.525   4.443  17.512  0.00  0.00    +0.000 C 
ATOM     13  C   UNL     1       8.041   4.422  17.499  0.00  0.00    +0.000 C 
ATOM     14  C   UNL     1       7.291   5.107  18.610  0.00  0.00    +0.000 C 
ATOM     15  O   UNL     1       7.308   6.546  18.585  0.00  0.00    +0.000 OA
ATOM     16  H   UNL     1       7.554   8.820  16.476  0.00  0.00    +0.000 HD
ATOM     17  H   UNL     1       8.248   8.606  18.025  0.00  0.00    +0.000 HD
BRANCH  11  18
ATOM     18  C   UNL     1       5.487   4.671  15.258  0.00  0.00    +0.000 C 
ATOM     19  F   UNL     1       6.235   5.304  14.308  0.00  0.00    +0.000 F 
ATOM     20  F   UNL     1       5.948   3.388  15.291  0.00  0.00    +0.000 F 
ENDBRANCH  11  18
ENDBRANCH   1  11
BRANCH   3  21
ATOM     21  N   UNL     1       2.108   8.425  18.443  0.00  0.00    +0.000 N 
ATOM     22  H   UNL     1       1.735   8.956  17.663  0.00  0.00    +0.000 HD
BRANCH  21  23
ATOM     23  C   UNL     1       1.520   8.897  19.654  0.00  0.00    +0.000 A 
ATOM     24  N   UNL     1       1.557   8.111  20.763  0.00  0.00    +0.000 NA
ATOM     25  C   UNL     1       1.042   8.586  21.908  0.00  0.00    +0.000 A 
ATOM     26  C   UNL     1       0.484   9.838  22.020  0.00  0.00    +0.000 A 
ATOM     27  C   UNL     1       0.430  10.648  20.881  0.00  0.00    +0.000 A 
ATOM     28  C   UNL     1      -0.153  11.920  20.941  0.00  0.00    +0.000 A 
ATOM     29  C   UNL     1      -0.232  12.696  19.794  0.00  0.00    +0.000 A 
ATOM     30 CL   UNL     1      -0.973  14.241  19.835  0.00  0.00    +0.000 Cl
ATOM     31  C   UNL     1       0.286  12.179  18.621  0.00  0.00    +0.000 A 
ATOM     32  N   UNL     1       0.872  10.957  18.524  0.00  0.00    +0.000 NA
ATOM     33  C   UNL     1       0.950  10.190  19.649  0.00  0.00    +0.000 A 
ENDBRANCH  21  23
ENDBRANCH   3  21
TORSDOF 4
ENDMDL
MODEL 8
REMARK VINA RESULT:      -8.8      2.973      4.345
REMARK  Name = 
REMARK  4 active torsions:
REMARK  status: ('A' for Active; 'I' for Inactive)
REMARK    1  A    between atoms: C_4  and  C_5
REMARK    2  A    between atoms: C_4  and  C_24
REMARK    3  A    between atoms: C_7  and  N_8
REMARK    4  A    between atoms: N_8  and  C_9
REMARK                            x       y       z     vdW  Elec       q    Type
REMARK                         _______ _______ _______ _____ _____    ______ ____
ROOT
ATOM      1  C   UNL     1       3.255   5.813  18.602  0.00  0.00    +0.000 A 
ATOM      2  C   UNL     1       2.381   6.605  19.381  0.00  0.00    +0.000 A 
ATOM      3  C   UNL     1       2.116   7.951  19.073  0.00  0.00    +0.000 A 
ATOM      4  C   UNL     1       2.696   8.489  17.919  0.00  0.00    +0.000 A 
ATOM      5  C   UNL     1       3.552   7.732  17.125  0.00  0.00    +0.000 A 
ATOM      6  C   UNL     1       3.826   6.416  17.470  0.00  0.00    +0.000 A 
ATOM      7  F   UNL     1       4.674   5.731  16.691  0.00  0.00    +0.000 F 
ENDROOT
BRANCH   1  11
ATOM      8  N   UNL     1       0.790   3.183  20.856  0.00  0.00    +0.000 N 
ATOM      9  C   UNL     1       1.691   3.446  19.888  0.00  0.00    +0.000 C 
ATOM     10  N   UNL     1       2.846   3.946  20.132  0.00  0.00    +0.000 NA
ATOM     11  C   UNL     1       3.688   4.380  18.989  0.00  0.00    +0.000 C 
ATOM     12  C   UNL     1       3.547   3.424  17.821  0.00  0.00    +0.000 C 
ATOM     13  C   UNL     1       3.343   1.928  17.959  0.00  0.00    +0.000 C 
ATOM     14  C   UNL     1       2.190   2.834  17.616  0.00  0.00    +0.000 C 
ATOM     15  O   UNL     1       1.237   3.063  18.669  0.00  0.00    +0.000 OA
ATOM     16  H   UNL     1       1.196   3.118  21.781  0.00  0.00    +0.000 HD
ATOM     17  H   UNL     1       0.114   2.467  20.625  0.00  0.00    +0.000 HD
BRANCH  11  18
ATOM     18  C   UNL     1       5.182   4.385  19.440  0.00  0.00    +0.000 C 
ATOM     19  F   UNL     1       5.995   3.991  18.418  0.00  0.00    +0.000 F 
ATOM     20  F   UNL     1       5.578   5.651  19.755  0.00  0.00    +0.000 F 
ENDBRANCH  11  18
ENDBRANCH   1  11
BRANCH   3  21
ATOM     21  N   UNL     1       1.293   8.710  19.930  0.00  0.00    +0.000 N 
ATOM     22  H   UNL     1       1.702   8.948  20.829  0.00  0.00    +0.000 HD
BRANCH  21  23
ATOM     23  C   UNL     1       0.340   9.709  19.571  0.00  0.00    +0.000 A 
ATOM     24  N   UNL     1       0.081   9.939  18.256  0.00  0.00    +0.000 NA
ATOM     25  C   UNL     1      -0.852  10.848  17.932  0.00  0.00    +0.000 A 
ATOM     26  C   UNL     1      -1.568  11.558  18.867  0.00  0.00    +0.000 A 
ATOM     27  C   UNL     1      -1.298  11.338  20.222  0.00  0.00    +0.000 A 
ATOM     28  C   UNL     1      -1.982  12.057  21.209  0.00  0.00    +0.000 A 
ATOM     29  C   UNL     1      -1.676  11.854  22.546  0.00  0.00    +0.000 A 
ATOM     30 CL   UNL     1      -2.477  12.748  23.771  0.00  0.00    +0.000 Cl
ATOM     31  C   UNL     1      -0.698  10.927  22.856  0.00  0.00    +0.000 A 
ATOM     32  N   UNL     1      -0.021  10.200  21.931  0.00  0.00    +0.000 NA
ATOM     33  C   UNL     1      -0.318  10.397  20.614  0.00  0.00    +0.000 A 
ENDBRANCH  21  23
ENDBRANCH   3  21
TORSDOF 4
ENDMDL
MODEL 9
REMARK VINA RESULT:      -8.7      2.071      2.549
REMARK  Name = 
REMARK  4 active torsions:
REMARK  status: ('A' for Active; 'I' for Inactive)
REMARK    1  A    between atoms: C_4  and  C_5
REMARK    2  A    between atoms: C_4  and  C_24
REMARK    3  A    between atoms: C_7  and  N_8
REMARK    4  A    between atoms: N_8  and  C_9
REMARK                            x       y       z     vdW  Elec       q    Type
REMARK                         _______ _______ _______ _____ _____    ______ ____
ROOT
ATOM      1  C   UNL     1       4.318   6.299  17.971  0.00  0.00    +0.000 A 
ATOM      2  C   UNL     1       3.640   7.509  17.697  0.00  0.00    +0.000 A 
ATOM      3  C   UNL     1       2.493   7.901  18.409  0.00  0.00    +0.000 A 
ATOM      4  C   UNL     1       2.060   7.087  19.460  0.00  0.00    +0.000 A 
ATOM      5  C   UNL     1       2.712   5.896  19.762  0.00  0.00    +0.000 A 
ATOM      6  C   UNL     1       3.821   5.512  19.022  0.00  0.00    +0.000 A 
ATOM      7  F   UNL     1       4.405   4.346  19.331  0.00  0.00    +0.000 F 
ENDROOT
BRANCH   1  11
ATOM      8  N   UNL     1       7.865   8.528  17.244  0.00  0.00    +0.000 N 
ATOM      9  C   UNL     1       7.198   7.379  17.477  0.00  0.00    +0.000 C 
ATOM     10  N   UNL     1       6.302   6.922  16.680  0.00  0.00    +0.000 NA
ATOM     11  C   UNL     1       5.489   5.760  17.118  0.00  0.00    +0.000 C 
ATOM     12  C   UNL     1       6.335   4.773  17.897  0.00  0.00    +0.000 C 
ATOM     13  C   UNL     1       7.796   4.485  17.613  0.00  0.00    +0.000 C 
ATOM     14  C   UNL     1       7.395   5.361  18.770  0.00  0.00    +0.000 C 
ATOM     15  O   UNL     1       7.637   6.770  18.605  0.00  0.00    +0.000 OA
ATOM     16  H   UNL     1       7.832   8.826  16.277  0.00  0.00    +0.000 HD
ATOM     17  H   UNL     1       8.770   8.593  17.690  0.00  0.00    +0.000 HD
BRANCH  11  18
ATOM     18  C   UNL     1       4.930   5.036  15.854  0.00  0.00    +0.000 C 
ATOM     19  F   UNL     1       5.781   5.184  14.797  0.00  0.00    +0.000 F 
ATOM     20  F   UNL     1       4.851   3.692  16.074  0.00  0.00    +0.000 F 
ENDBRANCH  11  18
ENDBRANCH   1  11
BRANCH   3  21
ATOM     21  N   UNL     1       1.818   9.083  18.040  0.00  0.00    +0.000 N 
ATOM     22  H   UNL     1       1.351   9.054  17.138  0.00  0.00    +0.000 HD
BRANCH  21  23
ATOM     23  C   UNL     1       1.137  10.004  18.889  0.00  0.00    +0.000 A 
ATOM     24  N   UNL     1       0.152   9.550  19.709  0.00  0.00    +0.000 NA
ATOM     25  C   UNL     1      -0.450  10.418  20.538  0.00  0.00    +0.000 A 
ATOM     26  C   UNL     1      -0.112  11.750  20.607  0.00  0.00    +0.000 A 
ATOM     27  C   UNL     1       0.891  12.228  19.757  0.00  0.00    +0.000 A 
ATOM     28  C   UNL     1       1.248  13.582  19.772  0.00  0.00    +0.000 A 
ATOM     29  C   UNL     1       2.218  14.047  18.897  0.00  0.00    +0.000 A 
ATOM     30 CL   UNL     1       2.649  15.707  18.874  0.00  0.00    +0.000 Cl
ATOM     31  C   UNL     1       2.810  13.140  18.039  0.00  0.00    +0.000 A 
ATOM     32  N   UNL     1       2.502  11.818  18.002  0.00  0.00    +0.000 NA
ATOM     33  C   UNL     1       1.547  11.355  18.859  0.00  0.00    +0.000 A 
ENDBRANCH  21  23
ENDBRANCH   3  21
TORSDOF 4
ENDMDL
