MODEL 1
REMARK VINA RESULT:      -7.1      0.000      0.000
REMARK  Name = 
REMARK  7 active torsions:
REMARK  status: ('A' for Active; 'I' for Inactive)
REMARK    1  A    between atoms: C_1  and  O_2
REMARK    2  A    between atoms: O_2  and  C_3
REMARK    3  A    between atoms: C_6  and  C_7
REMARK    4  A    between atoms: C_7  and  O_8
REMARK    5  A    between atoms: C_7  and  C_10
REMARK    6  A    between atoms: O_8  and  C_9
REMARK    7  A    between atoms: C_19  and  C_20
REMARK                            x       y       z     vdW  Elec       q    Type
REMARK                         _______ _______ _______ _____ _____    ______ ____
ROOT
ATOM      1  C   UNL     1       0.458  11.593  20.147  0.00  0.00    +0.000 A 
ATOM      2  C   UNL     1       1.457  12.431  20.714  0.00  0.00    +0.000 A 
ATOM      3  C   UNL     1       1.749  13.711  20.266  0.00  0.00    +0.000 A 
ATOM      4  C   UNL     1       2.566  14.542  21.026  0.00  0.00    +0.000 A 
ATOM      5  C   UNL     1       2.703  15.862  20.644  0.00  0.00    +0.000 A 
ATOM      6  C   UNL     1       2.687  16.077  19.277  0.00  0.00    +0.000 A 
ATOM      7  C   UNL     1       1.818  15.314  18.508  0.00  0.00    +0.000 A 
ATOM      8  C   UNL     1       1.204  14.155  19.058  0.00  0.00    +0.000 A 
ATOM      9  C   UNL     1       0.145  13.382  18.515  0.00  0.00    +0.000 A 
ATOM     10  C   UNL     1      -0.299  12.144  19.097  0.00  0.00    +0.000 A 
ENDROOT
BRANCH  10  11
ATOM     11  C   UNL     1      -1.570  11.531  18.607  0.00  0.00    +0.000 A 
ATOM     12  C   UNL     1      -1.587  10.459  17.703  0.00  0.00    +0.000 A 
ATOM     13  C   UNL     1      -2.797   9.943  17.238  0.00  0.00    +0.000 A 
ATOM     14  C   UNL     1      -3.982  10.475  17.711  0.00  0.00    +0.000 A 
ATOM     15  N   UNL     1      -4.020  11.511  18.584  0.00  0.00    +0.000 NA
ATOM     16  C   UNL     1      -2.831  12.008  18.983  0.00  0.00    +0.000 A 
ENDBRANCH  10  11
BRANCH   1  17
ATOM     17  C   UNL     1       0.262  10.168  20.713  0.00  0.00    +0.000 C 
BRANCH  17  21
ATOM     18  C   UNL     1       2.557   7.034  18.783  0.00  0.00    +0.000 A 
ATOM     19  C   UNL     1       2.218   6.921  20.134  0.00  0.00    +0.000 A 
ATOM     20  C   UNL     1       1.441   7.901  20.756  0.00  0.00    +0.000 A 
ATOM     21  C   UNL     1       1.068   9.060  20.035  0.00  0.00    +0.000 A 
ATOM     22  C   UNL     1       1.562   9.213  18.732  0.00  0.00    +0.000 A 
ATOM     23  C   UNL     1       2.226   8.188  18.084  0.00  0.00    +0.000 A 
BRANCH  18  25
ATOM     24  C   UNL     1       4.031   5.268  19.213  0.00  0.00    +0.000 C 
ATOM     25  O   UNL     1       3.265   5.993  18.249  0.00  0.00    +0.000 OA
ENDBRANCH  18  25
ENDBRANCH  17  21
BRANCH  17  26
ATOM     26  O   UNL     1       0.591  10.165  22.115  0.00  0.00    +0.000 OA
ATOM     27  C   UNL     1      -0.565  10.175  22.953  0.00  0.00    +0.000 C 
ENDBRANCH  17  26
ENDBRANCH   1  17
TORSDOF 5
ENDMDL
MODEL 2
REMARK VINA RESULT:      -6.9      5.252     10.336
REMARK  Name = 
REMARK  7 active torsions:
REMARK  status: ('A' for Active; 'I' for Inactive)
REMARK    1  A    between atoms: C_1  and  O_2
REMARK    2  A    between atoms: O_2  and  C_3
REMARK    3  A    between atoms: C_6  and  C_7
REMARK    4  A    between atoms: C_7  and  O_8
REMARK    5  A    between atoms: C_7  and  C_10
REMARK    6  A    between atoms: O_8  and  C_9
REMARK    7  A    between atoms: C_19  and  C_20
REMARK                            x       y       z     vdW  Elec       q    Type
REMARK                         _______ _______ _______ _____ _____    ______ ____
ROOT
ATOM      1  C   UNL     1       5.488   4.348  16.040  0.00  0.00    +0.000 A 
ATOM      2  C   UNL     1       5.210   3.690  14.812  0.00  0.00    +0.000 A 
ATOM      3  C   UNL     1       5.985   3.811  13.668  0.00  0.00    +0.000 A 
ATOM      4  C   UNL     1       5.778   2.950  12.594  0.00  0.00    +0.000 A 
ATOM      5  C   UNL     1       6.670   2.982  11.540  0.00  0.00    +0.000 A 
ATOM      6  C   UNL     1       7.184   4.234  11.250  0.00  0.00    +0.000 A 
ATOM      7  C   UNL     1       7.476   5.079  12.313  0.00  0.00    +0.000 A 
ATOM      8  C   UNL     1       6.978   4.793  13.614  0.00  0.00    +0.000 A 
ATOM      9  C   UNL     1       7.335   5.405  14.844  0.00  0.00    +0.000 A 
ATOM     10  C   UNL     1       6.658   5.127  16.082  0.00  0.00    +0.000 A 
ENDROOT
BRANCH  10  11
ATOM     11  C   UNL     1       7.256   5.623  17.359  0.00  0.00    +0.000 A 
ATOM     12  C   UNL     1       7.592   6.970  17.557  0.00  0.00    +0.000 A 
ATOM     13  C   UNL     1       8.188   7.384  18.749  0.00  0.00    +0.000 A 
ATOM     14  C   UNL     1       8.406   6.457  19.749  0.00  0.00    +0.000 A 
ATOM     15  N   UNL     1       8.101   5.144  19.608  0.00  0.00    +0.000 NA
ATOM     16  C   UNL     1       7.561   4.774  18.428  0.00  0.00    +0.000 A 
ENDBRANCH  10  11
BRANCH   1  17
ATOM     17  C   UNL     1       4.519   4.161  17.230  0.00  0.00    +0.000 C 
BRANCH  17  21
ATOM     18  C   UNL     1       2.469   7.729  18.603  0.00  0.00    +0.000 A 
ATOM     19  C   UNL     1       3.253   7.775  17.447  0.00  0.00    +0.000 A 
ATOM     20  C   UNL     1       3.882   6.623  16.969  0.00  0.00    +0.000 A 
ATOM     21  C   UNL     1       3.795   5.420  17.709  0.00  0.00    +0.000 A 
ATOM     22  C   UNL     1       3.134   5.453  18.946  0.00  0.00    +0.000 A 
ATOM     23  C   UNL     1       2.413   6.561  19.352  0.00  0.00    +0.000 A 
BRANCH  18  25
ATOM     24  C   UNL     1       1.920   9.909  17.951  0.00  0.00    +0.000 C 
ATOM     25  O   UNL     1       1.843   8.894  18.953  0.00  0.00    +0.000 OA
ENDBRANCH  18  25
ENDBRANCH  17  21
BRANCH  17  26
ATOM     26  O   UNL     1       3.524   3.180  16.881  0.00  0.00    +0.000 OA
ATOM     27  C   UNL     1       3.430   2.124  17.839  0.00  0.00    +0.000 C 
ENDBRANCH  17  26
ENDBRANCH   1  17
TORSDOF 5
ENDMDL
MODEL 3
REMARK VINA RESULT:      -6.7      6.336     10.219
REMARK  Name = 
REMARK  7 active torsions:
REMARK  status: ('A' for Active; 'I' for Inactive)
REMARK    1  A    between atoms: C_1  and  O_2
REMARK    2  A    between atoms: O_2  and  C_3
REMARK    3  A    between atoms: C_6  and  C_7
REMARK    4  A    between atoms: C_7  and  O_8
REMARK    5  A    between atoms: C_7  and  C_10
REMARK    6  A    between atoms: O_8  and  C_9
REMARK    7  A    between atoms: C_19  and  C_20
REMARK                            x       y       z     vdW  Elec       q    Type
REMARK                         _______ _______ _______ _____ _____    ______ ____
ROOT
ATOM      1  C   UNL     1       5.115   5.228  15.781  0.00  0.00    +0.000 A 
ATOM      2  C   UNL     1       4.665   4.545  14.619  0.00  0.00    +0.000 A 
ATOM      3  C   UNL     1       5.500   4.081  13.613  0.00  0.00    +0.000 A 
ATOM      4  C   UNL     1       5.003   3.220  12.640  0.00  0.00    +0.000 A 
ATOM      5  C   UNL     1       5.890   2.642  11.754  0.00  0.00    +0.000 A 
ATOM      6  C   UNL     1       6.959   3.444  11.394  0.00  0.00    +0.000 A 
ATOM      7  C   UNL     1       7.524   4.252  12.372  0.00  0.00    +0.000 A 
ATOM      8  C   UNL     1       6.841   4.477  13.599  0.00  0.00    +0.000 A 
ATOM      9  C   UNL     1       7.337   5.084  14.781  0.00  0.00    +0.000 A 
ATOM     10  C   UNL     1       6.506   5.386  15.916  0.00  0.00    +0.000 A 
ENDROOT
BRANCH  10  11
ATOM     11  C   UNL     1       7.155   5.791  17.199  0.00  0.00    +0.000 A 
ATOM     12  C   UNL     1       7.576   7.107  17.444  0.00  0.00    +0.000 A 
ATOM     13  C   UNL     1       8.217   7.435  18.640  0.00  0.00    +0.000 A 
ATOM     14  C   UNL     1       8.395   6.455  19.598  0.00  0.00    +0.000 A 
ATOM     15  N   UNL     1       8.007   5.171  19.410  0.00  0.00    +0.000 NA
ATOM     16  C   UNL     1       7.425   4.883  18.228  0.00  0.00    +0.000 A 
ENDBRANCH  10  11
BRANCH   1  17
ATOM     17  C   UNL     1       4.074   5.732  16.808  0.00  0.00    +0.000 C 
BRANCH  17  21
ATOM     18  C   UNL     1       3.258   3.070  20.134  0.00  0.00    +0.000 A 
ATOM     19  C   UNL     1       3.058   4.446  20.274  0.00  0.00    +0.000 A 
ATOM     20  C   UNL     1       3.274   5.309  19.198  0.00  0.00    +0.000 A 
ATOM     21  C   UNL     1       3.782   4.796  17.981  0.00  0.00    +0.000 A 
ATOM     22  C   UNL     1       4.123   3.437  17.930  0.00  0.00    +0.000 A 
ATOM     23  C   UNL     1       3.794   2.569  18.954  0.00  0.00    +0.000 A 
BRANCH  18  25
ATOM     24  C   UNL     1       1.690   2.606  21.807  0.00  0.00    +0.000 C 
ATOM     25  O   UNL     1       2.958   2.302  21.225  0.00  0.00    +0.000 OA
ENDBRANCH  18  25
ENDBRANCH  17  21
BRANCH  17  26
ATOM     26  O   UNL     1       4.510   6.996  17.343  0.00  0.00    +0.000 OA
ATOM     27  C   UNL     1       3.462   7.964  17.398  0.00  0.00    +0.000 C 
ENDBRANCH  17  26
ENDBRANCH   1  17
TORSDOF 5
ENDMDL
MODEL 4
REMARK VINA RESULT:      -6.7      0.552      1.314
REMARK  Name = 
REMARK  7 active torsions:
REMARK  status: ('A' for Active; 'I' for Inactive)
REMARK    1  A    between atoms: C_1  and  O_2
REMARK    2  A    between atoms: O_2  and  C_3
REMARK    3  A    between atoms: C_6  and  C_7
REMARK    4  A    between atoms: C_7  and  O_8
REMARK    5  A    between atoms: C_7  and  C_10
REMARK    6  A    between atoms: O_8  and  C_9
REMARK    7  A    between atoms: C_19  and  C_20
REMARK                            x       y       z     vdW  Elec       q    Type
REMARK                         _______ _______ _______ _____ _____    ______ ____
ROOT
ATOM      1  C   UNL     1       0.481  11.648  20.167  0.00  0.00    +0.000 A 
ATOM      2  C   UNL     1       1.507  12.457  20.725  0.00  0.00    +0.000 A 
ATOM      3  C   UNL     1       1.851  13.716  20.256  0.00  0.00    +0.000 A 
ATOM      4  C   UNL     1       2.695  14.530  21.006  0.00  0.00    +0.000 A 
ATOM      5  C   UNL     1       2.885  15.837  20.601  0.00  0.00    +0.000 A 
ATOM      6  C   UNL     1       2.886  16.026  19.229  0.00  0.00    +0.000 A 
ATOM      7  C   UNL     1       1.994  15.282  18.469  0.00  0.00    +0.000 A 
ATOM      8  C   UNL     1       1.332  14.159  19.036  0.00  0.00    +0.000 A 
ATOM      9  C   UNL     1       0.248  13.417  18.500  0.00  0.00    +0.000 A 
ATOM     10  C   UNL     1      -0.248  12.207  19.102  0.00  0.00    +0.000 A 
ENDROOT
BRANCH  10  11
ATOM     11  C   UNL     1      -1.539  11.635  18.614  0.00  0.00    +0.000 A 
ATOM     12  C   UNL     1      -2.783  12.113  19.050  0.00  0.00    +0.000 A 
ATOM     13  C   UNL     1      -3.966  11.521  18.602  0.00  0.00    +0.000 A 
ATOM     14  C   UNL     1      -3.896  10.484  17.691  0.00  0.00    +0.000 A 
ATOM     15  N   UNL     1      -2.719   9.986  17.240  0.00  0.00    +0.000 NA
ATOM     16  C   UNL     1      -1.597  10.558  17.723  0.00  0.00    +0.000 A 
ENDBRANCH  10  11
BRANCH   1  17
ATOM     17  C   UNL     1       0.226  10.242  20.758  0.00  0.00    +0.000 C 
BRANCH  17  21
ATOM     18  C   UNL     1       2.551   6.999  19.058  0.00  0.00    +0.000 A 
ATOM     19  C   UNL     1       2.231   8.113  18.277  0.00  0.00    +0.000 A 
ATOM     20  C   UNL     1       1.521   9.184  18.825  0.00  0.00    +0.000 A 
ATOM     21  C   UNL     1       1.049   9.102  20.156  0.00  0.00    +0.000 A 
ATOM     22  C   UNL     1       1.250   7.903  20.855  0.00  0.00    +0.000 A 
ATOM     23  C   UNL     1       2.055   6.898  20.351  0.00  0.00    +0.000 A 
BRANCH  18  25
ATOM     24  C   UNL     1       4.214   5.375  19.332  0.00  0.00    +0.000 C 
ATOM     25  O   UNL     1       3.303   6.032  18.449  0.00  0.00    +0.000 OA
ENDBRANCH  18  25
ENDBRANCH  17  21
BRANCH  17  26
ATOM     26  O   UNL     1       0.475  10.272  22.176  0.00  0.00    +0.000 OA
ATOM     27  C   UNL     1      -0.723  10.379  22.945  0.00  0.00    +0.000 C 
ENDBRANCH  17  26
ENDBRANCH   1  17
TORSDOF 5
ENDMDL
MODEL 5
REMARK VINA RESULT:      -6.5      0.746      1.147
REMARK  Name = 
REMARK  7 active torsions:
REMARK  status: ('A' for Active; 'I' for Inactive)
REMARK    1  A    between atoms: C_1  and  O_2
REMARK    2  A    between atoms: O_2  and  C_3
REMARK    3  A    between atoms: C_6  and  C_7
REMARK    4  A    between atoms: C_7  and  O_8
REMARK    5  A    between atoms: C_7  and  C_10
REMARK    6  A    between atoms: O_8  and  C_9
REMARK    7  A    between atoms: C_19  and  C_20
REMARK                            x       y       z     vdW  Elec       q    Type
REMARK                         _______ _______ _______ _____ _____    ______ ____
ROOT
ATOM      1  C   UNL     1       0.357  12.012  20.204  0.00  0.00    +0.000 A 
ATOM      2  C   UNL     1       1.539  12.669  20.638  0.00  0.00    +0.000 A 
ATOM      3  C   UNL     1       1.909  13.949  20.250  0.00  0.00    +0.000 A 
ATOM      4  C   UNL     1       2.949  14.600  20.907  0.00  0.00    +0.000 A 
ATOM      5  C   UNL     1       3.184  15.929  20.616  0.00  0.00    +0.000 A 
ATOM      6  C   UNL     1       2.953  16.286  19.298  0.00  0.00    +0.000 A 
ATOM      7  C   UNL     1       1.870  15.709  18.648  0.00  0.00    +0.000 A 
ATOM      8  C   UNL     1       1.220  14.575  19.208  0.00  0.00    +0.000 A 
ATOM      9  C   UNL     1      -0.009  13.985  18.814  0.00  0.00    +0.000 A 
ATOM     10  C   UNL     1      -0.498  12.750  19.366  0.00  0.00    +0.000 A 
ENDROOT
BRANCH  10  11
ATOM     11  C   UNL     1      -1.905  12.337  19.077  0.00  0.00    +0.000 A 
ATOM     12  C   UNL     1      -2.974  12.676  19.919  0.00  0.00    +0.000 A 
ATOM     13  C   UNL     1      -4.267  12.234  19.636  0.00  0.00    +0.000 A 
ATOM     14  C   UNL     1      -4.489  11.492  18.491  0.00  0.00    +0.000 A 
ATOM     15  N   UNL     1      -3.490  11.138  17.646  0.00  0.00    +0.000 NA
ATOM     16  C   UNL     1      -2.248  11.551  17.972  0.00  0.00    +0.000 A 
ENDBRANCH  10  11
BRANCH   1  17
ATOM     17  C   UNL     1       0.082  10.566  20.678  0.00  0.00    +0.000 C 
BRANCH  17  21
ATOM     18  C   UNL     1       2.335   7.456  18.661  0.00  0.00    +0.000 A 
ATOM     19  C   UNL     1       2.141   7.394  20.044  0.00  0.00    +0.000 A 
ATOM     20  C   UNL     1       1.380   8.365  20.699  0.00  0.00    +0.000 A 
ATOM     21  C   UNL     1       0.874   9.466  19.970  0.00  0.00    +0.000 A 
ATOM     22  C   UNL     1       1.225   9.579  18.617  0.00  0.00    +0.000 A 
ATOM     23  C   UNL     1       1.873   8.556  17.950  0.00  0.00    +0.000 A 
BRANCH  18  25
ATOM     24  C   UNL     1       3.631   5.550  19.066  0.00  0.00    +0.000 C 
ATOM     25  O   UNL     1       3.040   6.425  18.104  0.00  0.00    +0.000 OA
ENDBRANCH  18  25
ENDBRANCH  17  21
BRANCH  17  26
ATOM     26  O   UNL     1       0.351  10.471  22.090  0.00  0.00    +0.000 OA
ATOM     27  C   UNL     1      -0.801  10.735  22.890  0.00  0.00    +0.000 C 
ENDBRANCH  17  26
ENDBRANCH   1  17
TORSDOF 5
ENDMDL
MODEL 6
REMARK VINA RESULT:      -6.5      2.121      5.127
REMARK  Name = 
REMARK  7 active torsions:
REMARK  status: ('A' for Active; 'I' for Inactive)
REMARK    1  A    between atoms: C_1  and  O_2
REMARK    2  A    between atoms: O_2  and  C_3
REMARK    3  A    between atoms: C_6  and  C_7
REMARK    4  A    between atoms: C_7  and  O_8
REMARK    5  A    between atoms: C_7  and  C_10
REMARK    6  A    between atoms: O_8  and  C_9
REMARK    7  A    between atoms: C_19  and  C_20
REMARK                            x       y       z     vdW  Elec       q    Type
REMARK                         _______ _______ _______ _____ _____    ______ ____
ROOT
ATOM      1  C   UNL     1      -0.098  11.184  18.737  0.00  0.00    +0.000 A 
ATOM      2  C   UNL     1      -0.817  10.456  17.751  0.00  0.00    +0.000 A 
ATOM      3  C   UNL     1      -2.146  10.685  17.427  0.00  0.00    +0.000 A 
ATOM      4  C   UNL     1      -2.696  10.095  16.292  0.00  0.00    +0.000 A 
ATOM      5  C   UNL     1      -3.965  10.472  15.900  0.00  0.00    +0.000 A 
ATOM      6  C   UNL     1      -4.833  10.763  16.939  0.00  0.00    +0.000 A 
ATOM      7  C   UNL     1      -4.322  11.426  18.047  0.00  0.00    +0.000 A 
ATOM      8  C   UNL     1      -2.917  11.522  18.240  0.00  0.00    +0.000 A 
ATOM      9  C   UNL     1      -2.212  12.324  19.175  0.00  0.00    +0.000 A 
ATOM     10  C   UNL     1      -0.791  12.230  19.373  0.00  0.00    +0.000 A 
ENDROOT
BRANCH  10  11
ATOM     11  C   UNL     1      -0.105  13.277  20.190  0.00  0.00    +0.000 A 
ATOM     12  C   UNL     1       0.374  14.471  19.631  0.00  0.00    +0.000 A 
ATOM     13  C   UNL     1       1.046  15.404  20.422  0.00  0.00    +0.000 A 
ATOM     14  C   UNL     1       1.199  15.155  21.773  0.00  0.00    +0.000 A 
ATOM     15  N   UNL     1       0.754  14.018  22.361  0.00  0.00    +0.000 NA
ATOM     16  C   UNL     1       0.143  13.123  21.558  0.00  0.00    +0.000 A 
ENDBRANCH  10  11
BRANCH   1  17
ATOM     17  C   UNL     1       1.370  10.800  19.034  0.00  0.00    +0.000 C 
BRANCH  17  21
ATOM     18  C   UNL     1       2.095   6.608  19.878  0.00  0.00    +0.000 A 
ATOM     19  C   UNL     1       2.399   7.130  18.618  0.00  0.00    +0.000 A 
ATOM     20  C   UNL     1       2.213   8.487  18.347  0.00  0.00    +0.000 A 
ATOM     21  C   UNL     1       1.630   9.322  19.329  0.00  0.00    +0.000 A 
ATOM     22  C   UNL     1       1.190   8.731  20.522  0.00  0.00    +0.000 A 
ATOM     23  C   UNL     1       1.487   7.416  20.830  0.00  0.00    +0.000 A 
BRANCH  18  25
ATOM     24  C   UNL     1       1.244   4.514  20.485  0.00  0.00    +0.000 C 
ATOM     25  O   UNL     1       2.373   5.281  20.065  0.00  0.00    +0.000 OA
ENDBRANCH  18  25
ENDBRANCH  17  21
BRANCH  17  26
ATOM     26  O   UNL     1       2.195  11.184  17.918  0.00  0.00    +0.000 OA
ATOM     27  C   UNL     1       2.732  12.500  18.055  0.00  0.00    +0.000 C 
ENDBRANCH  17  26
ENDBRANCH   1  17
TORSDOF 5
ENDMDL
MODEL 7
REMARK VINA RESULT:      -6.5      0.947      1.659
REMARK  Name = 
REMARK  7 active torsions:
REMARK  status: ('A' for Active; 'I' for Inactive)
REMARK    1  A    between atoms: C_1  and  O_2
REMARK    2  A    between atoms: O_2  and  C_3
REMARK    3  A    between atoms: C_6  and  C_7
REMARK    4  A    between atoms: C_7  and  O_8
REMARK    5  A    between atoms: C_7  and  C_10
REMARK    6  A    between atoms: O_8  and  C_9
REMARK    7  A    between atoms: C_19  and  C_20
REMARK                            x       y       z     vdW  Elec       q    Type
REMARK                         _______ _______ _______ _____ _____    ______ ____
ROOT
ATOM      1  C   UNL     1       0.404  12.150  20.234  0.00  0.00    +0.000 A 
ATOM      2  C   UNL     1       1.658  12.746  20.535  0.00  0.00    +0.000 A 
ATOM      3  C   UNL     1       2.031  14.022  20.140  0.00  0.00    +0.000 A 
ATOM      4  C   UNL     1       3.171  14.611  20.679  0.00  0.00    +0.000 A 
ATOM      5  C   UNL     1       3.424  15.939  20.397  0.00  0.00    +0.000 A 
ATOM      6  C   UNL     1       3.047  16.348  19.129  0.00  0.00    +0.000 A 
ATOM      7  C   UNL     1       1.868  15.834  18.604  0.00  0.00    +0.000 A 
ATOM      8  C   UNL     1       1.245  14.708  19.209  0.00  0.00    +0.000 A 
ATOM      9  C   UNL     1      -0.047  14.180  18.956  0.00  0.00    +0.000 A 
ATOM     10  C   UNL     1      -0.516  12.947  19.530  0.00  0.00    +0.000 A 
ENDROOT
BRANCH  10  11
ATOM     11  C   UNL     1      -1.964  12.598  19.409  0.00  0.00    +0.000 A 
ATOM     12  C   UNL     1      -2.922  13.038  20.334  0.00  0.00    +0.000 A 
ATOM     13  C   UNL     1      -4.258  12.655  20.207  0.00  0.00    +0.000 A 
ATOM     14  C   UNL     1      -4.633  11.869  19.134  0.00  0.00    +0.000 A 
ATOM     15  N   UNL     1      -3.747  11.418  18.214  0.00  0.00    +0.000 NA
ATOM     16  C   UNL     1      -2.459  11.777  18.390  0.00  0.00    +0.000 A 
ENDBRANCH  10  11
BRANCH   1  17
ATOM     17  C   UNL     1       0.129  10.701  20.699  0.00  0.00    +0.000 C 
BRANCH  17  21
ATOM     18  C   UNL     1       2.343   7.581  18.655  0.00  0.00    +0.000 A 
ATOM     19  C   UNL     1       1.865   8.683  17.939  0.00  0.00    +0.000 A 
ATOM     20  C   UNL     1       1.190   9.716  18.593  0.00  0.00    +0.000 A 
ATOM     21  C   UNL     1       0.912   9.604  19.976  0.00  0.00    +0.000 A 
ATOM     22  C   UNL     1       1.264   8.413  20.626  0.00  0.00    +0.000 A 
ATOM     23  C   UNL     1       2.037   7.450  20.003  0.00  0.00    +0.000 A 
BRANCH  18  25
ATOM     24  C   UNL     1       2.735   5.304  18.283  0.00  0.00    +0.000 C 
ATOM     25  O   UNL     1       3.047   6.654  17.936  0.00  0.00    +0.000 OA
ENDBRANCH  18  25
ENDBRANCH  17  21
BRANCH  17  26
ATOM     26  O   UNL     1       0.410  10.594  22.108  0.00  0.00    +0.000 OA
ATOM     27  C   UNL     1      -0.772  10.609  22.909  0.00  0.00    +0.000 C 
ENDBRANCH  17  26
ENDBRANCH   1  17
TORSDOF 5
ENDMDL
MODEL 8
REMARK VINA RESULT:      -6.5      4.687      8.433
REMARK  Name = 
REMARK  7 active torsions:
REMARK  status: ('A' for Active; 'I' for Inactive)
REMARK    1  A    between atoms: C_1  and  O_2
REMARK    2  A    between atoms: O_2  and  C_3
REMARK    3  A    between atoms: C_6  and  C_7
REMARK    4  A    between atoms: C_7  and  O_8
REMARK    5  A    between atoms: C_7  and  C_10
REMARK    6  A    between atoms: O_8  and  C_9
REMARK    7  A    between atoms: C_19  and  C_20
REMARK                            x       y       z     vdW  Elec       q    Type
REMARK                         _______ _______ _______ _____ _____    ______ ____
ROOT
ATOM      1  C   UNL     1       4.614   6.222  17.535  0.00  0.00    +0.000 A 
ATOM      2  C   UNL     1       4.340   7.612  17.427  0.00  0.00    +0.000 A 
ATOM      3  C   UNL     1       3.110   8.190  17.705  0.00  0.00    +0.000 A 
ATOM      4  C   UNL     1       2.999   9.573  17.805  0.00  0.00    +0.000 A 
ATOM      5  C   UNL     1       1.806  10.111  18.246  0.00  0.00    +0.000 A 
ATOM      6  C   UNL     1       0.674   9.417  17.852  0.00  0.00    +0.000 A 
ATOM      7  C   UNL     1       0.738   8.030  17.824  0.00  0.00    +0.000 A 
ATOM      8  C   UNL     1       1.995   7.369  17.895  0.00  0.00    +0.000 A 
ATOM      9  C   UNL     1       2.249   5.987  18.092  0.00  0.00    +0.000 A 
ATOM     10  C   UNL     1       3.564   5.411  18.003  0.00  0.00    +0.000 A 
ENDROOT
BRANCH  10  11
ATOM     11  C   UNL     1       3.771   4.006  18.467  0.00  0.00    +0.000 A 
ATOM     12  C   UNL     1       3.170   2.910  17.830  0.00  0.00    +0.000 A 
ATOM     13  C   UNL     1       3.355   1.617  18.321  0.00  0.00    +0.000 A 
ATOM     14  C   UNL     1       4.171   1.424  19.419  0.00  0.00    +0.000 A 
ATOM     15  N   UNL     1       4.774   2.449  20.070  0.00  0.00    +0.000 NA
ATOM     16  C   UNL     1       4.542   3.688  19.590  0.00  0.00    +0.000 A 
ENDBRANCH  10  11
BRANCH   1  17
ATOM     17  C   UNL     1       6.019   5.700  17.154  0.00  0.00    +0.000 C 
BRANCH  17  21
ATOM     18  C   UNL     1       6.373   3.941  13.205  0.00  0.00    +0.000 A 
ATOM     19  C   UNL     1       7.387   4.770  13.694  0.00  0.00    +0.000 A 
ATOM     20  C   UNL     1       7.306   5.306  14.982  0.00  0.00    +0.000 A 
ATOM     21  C   UNL     1       6.149   5.079  15.763  0.00  0.00    +0.000 A 
ATOM     22  C   UNL     1       5.085   4.378  15.177  0.00  0.00    +0.000 A 
ATOM     23  C   UNL     1       5.219   3.749  13.953  0.00  0.00    +0.000 A 
BRANCH  18  25
ATOM     24  C   UNL     1       5.583   2.459  11.575  0.00  0.00    +0.000 C 
ATOM     25  O   UNL     1       6.574   3.414  11.959  0.00  0.00    +0.000 OA
ENDBRANCH  18  25
ENDBRANCH  17  21
BRANCH  17  26
ATOM     26  O   UNL     1       6.968   6.779  17.251  0.00  0.00    +0.000 OA
ATOM     27  C   UNL     1       7.809   6.672  18.400  0.00  0.00    +0.000 C 
ENDBRANCH  17  26
ENDBRANCH   1  17
TORSDOF 5
ENDMDL
MODEL 9
REMARK VINA RESULT:      -6.4      2.143      4.949
REMARK  Name = 
REMARK  7 active torsions:
REMARK  status: ('A' for Active; 'I' for Inactive)
REMARK    1  A    between atoms: C_1  and  O_2
REMARK    2  A    between atoms: O_2  and  C_3
REMARK    3  A    between atoms: C_6  and  C_7
REMARK    4  A    between atoms: C_7  and  O_8
REMARK    5  A    between atoms: C_7  and  C_10
REMARK    6  A    between atoms: O_8  and  C_9
REMARK    7  A    between atoms: C_19  and  C_20
REMARK                            x       y       z     vdW  Elec       q    Type
REMARK                         _______ _______ _______ _____ _____    ______ ____
ROOT
ATOM      1  C   UNL     1      -0.716  11.406  19.400  0.00  0.00    +0.000 A 
ATOM      2  C   UNL     1      -1.038  10.817  18.147  0.00  0.00    +0.000 A 
ATOM      3  C   UNL     1      -2.263  10.957  17.511  0.00  0.00    +0.000 A 
ATOM      4  C   UNL     1      -2.408  10.551  16.187  0.00  0.00    +0.000 A 
ATOM      5  C   UNL     1      -3.583  10.855  15.528  0.00  0.00    +0.000 A 
ATOM      6  C   UNL     1      -4.718  10.828  16.320  0.00  0.00    +0.000 A 
ATOM      7  C   UNL     1      -4.615  11.305  17.620  0.00  0.00    +0.000 A 
ATOM      8  C   UNL     1      -3.338  11.518  18.207  0.00  0.00    +0.000 A 
ATOM      9  C   UNL     1      -3.029  12.187  19.420  0.00  0.00    +0.000 A 
ATOM     10  C   UNL     1      -1.707  12.216  19.984  0.00  0.00    +0.000 A 
ENDROOT
BRANCH  10  11
ATOM     11  C   UNL     1      -1.427  13.144  21.121  0.00  0.00    +0.000 A 
ATOM     12  C   UNL     1      -1.486  12.731  22.460  0.00  0.00    +0.000 A 
ATOM     13  C   UNL     1      -1.259  13.641  23.494  0.00  0.00    +0.000 A 
ATOM     14  C   UNL     1      -0.934  14.947  23.180  0.00  0.00    +0.000 A 
ATOM     15  N   UNL     1      -0.865  15.397  21.904  0.00  0.00    +0.000 NA
ATOM     16  C   UNL     1      -1.127  14.498  20.933  0.00  0.00    +0.000 A 
ENDBRANCH  10  11
BRANCH   1  17
ATOM     17  C   UNL     1       0.673  11.137  20.023  0.00  0.00    +0.000 C 
BRANCH  17  21
ATOM     18  C   UNL     1       2.237   7.123  19.510  0.00  0.00    +0.000 A 
ATOM     19  C   UNL     1       2.279   8.031  18.448  0.00  0.00    +0.000 A 
ATOM     20  C   UNL     1       1.820   9.340  18.613  0.00  0.00    +0.000 A 
ATOM     21  C   UNL     1       1.228   9.724  19.839  0.00  0.00    +0.000 A 
ATOM     22  C   UNL     1       1.057   8.742  20.825  0.00  0.00    +0.000 A 
ATOM     23  C   UNL     1       1.621   7.485  20.701  0.00  0.00    +0.000 A 
BRANCH  18  25
ATOM     24  C   UNL     1       2.259   5.267  18.086  0.00  0.00    +0.000 C 
ATOM     25  O   UNL     1       2.768   5.887  19.268  0.00  0.00    +0.000 OA
ENDBRANCH  18  25
ENDBRANCH  17  21
BRANCH  17  26
ATOM     26  O   UNL     1       1.627  12.066  19.472  0.00  0.00    +0.000 OA
ATOM     27  C   UNL     1       2.138  12.975  20.448  0.00  0.00    +0.000 C 
ENDBRANCH  17  26
ENDBRANCH   1  17
TORSDOF 5
ENDMDL
