MODEL 1
REMARK VINA RESULT:      -8.7      0.000      0.000
REMARK  Name = 
REMARK  2 active torsions:
REMARK  status: ('A' for Active; 'I' for Inactive)
REMARK    1  A    between atoms: C_1  and  N_2
REMARK    2  A    between atoms: C_4  and  C_5
REMARK                            x       y       z     vdW  Elec       q    Type
REMARK                         _______ _______ _______ _____ _____    ______ ____
ROOT
ATOM      1  C   UNL     1       4.420   3.954  16.359  0.00  0.00    +0.000 C 
ATOM      2  C   UNL     1       5.532   4.514  15.853  0.00  0.00    +0.000 C 
ATOM      3  C   UNL     1       6.547   5.454  16.466  0.00  0.00    +0.000 C 
ATOM      4  O   UNL     1       6.584   5.941  17.580  0.00  0.00    +0.000 OA
ATOM      5  N   UNL     1       7.483   5.697  15.467  0.00  0.00    +0.000 N 
ATOM      6  C   UNL     1       7.148   5.029  14.299  0.00  0.00    +0.000 A 
ATOM      7  C   UNL     1       7.801   5.025  13.089  0.00  0.00    +0.000 A 
ATOM      8  C   UNL     1       7.225   4.258  12.074  0.00  0.00    +0.000 A 
ATOM      9  C   UNL     1       6.043   3.551  12.334  0.00  0.00    +0.000 A 
ATOM     10  N   UNL     1       5.391   3.549  13.523  0.00  0.00    +0.000 NA
ATOM     11  C   UNL     1       5.979   4.300  14.469  0.00  0.00    +0.000 A 
ATOM     12  H   UNL     1       8.278   6.303  15.604  0.00  0.00    +0.000 HD
ENDROOT
BRANCH   1  16
ATOM     13  C   UNL     1       2.938   2.721  20.910  0.00  0.00    +0.000 C 
ATOM     14  N   UNL     1       3.166   3.499  19.715  0.00  0.00    +0.000 N 
ATOM     15  C   UNL     1       3.724   3.006  18.567  0.00  0.00    +0.000 A 
ATOM     16  C   UNL     1       3.865   4.042  17.673  0.00  0.00    +0.000 A 
ATOM     17  C   UNL     1       3.279   5.203  18.280  0.00  0.00    +0.000 A 
ATOM     18  C   UNL     1       3.073   6.539  17.871  0.00  0.00    +0.000 A 
ATOM     19  C   UNL     1       2.453   7.448  18.738  0.00  0.00    +0.000 A 
ATOM     20  C   UNL     1       2.042   7.050  20.006  0.00  0.00    +0.000 A 
ATOM     21  C   UNL     1       2.236   5.737  20.441  0.00  0.00    +0.000 A 
ATOM     22  C   UNL     1       2.853   4.832  19.561  0.00  0.00    +0.000 A 
ENDBRANCH   1  16
TORSDOF 1
ENDMDL
MODEL 2
REMARK VINA RESULT:      -7.9      0.907      2.323
REMARK  Name = 
REMARK  2 active torsions:
REMARK  status: ('A' for Active; 'I' for Inactive)
REMARK    1  A    between atoms: C_1  and  N_2
REMARK    2  A    between atoms: C_4  and  C_5
REMARK                            x       y       z     vdW  Elec       q    Type
REMARK                         _______ _______ _______ _____ _____    ______ ____
ROOT
ATOM      1  C   UNL     1       4.091   4.780  16.501  0.00  0.00    +0.000 C 
ATOM      2  C   UNL     1       5.302   5.088  16.005  0.00  0.00    +0.000 C 
ATOM      3  C   UNL     1       6.422   5.941  16.558  0.00  0.00    +0.000 C 
ATOM      4  O   UNL     1       6.482   6.572  17.596  0.00  0.00    +0.000 OA
ATOM      5  N   UNL     1       7.434   5.893  15.605  0.00  0.00    +0.000 N 
ATOM      6  C   UNL     1       7.054   5.124  14.516  0.00  0.00    +0.000 A 
ATOM      7  C   UNL     1       7.758   4.847  13.368  0.00  0.00    +0.000 A 
ATOM      8  C   UNL     1       7.118   4.039  12.425  0.00  0.00    +0.000 A 
ATOM      9  C   UNL     1       5.826   3.564  12.692  0.00  0.00    +0.000 A 
ATOM     10  N   UNL     1       5.124   3.831  13.821  0.00  0.00    +0.000 NA
ATOM     11  C   UNL     1       5.777   4.612  14.698  0.00  0.00    +0.000 A 
ATOM     12  H   UNL     1       8.307   6.385  15.716  0.00  0.00    +0.000 HD
ENDROOT
BRANCH   1  16
ATOM     13  C   UNL     1       2.013   7.453  20.101  0.00  0.00    +0.000 C 
ATOM     14  N   UNL     1       2.581   6.331  19.391  0.00  0.00    +0.000 N 
ATOM     15  C   UNL     1       3.131   6.408  18.142  0.00  0.00    +0.000 A 
ATOM     16  C   UNL     1       3.493   5.139  17.748  0.00  0.00    +0.000 A 
ATOM     17  C   UNL     1       3.228   4.265  18.855  0.00  0.00    +0.000 A 
ATOM     18  C   UNL     1       3.413   2.885  19.096  0.00  0.00    +0.000 A 
ATOM     19  C   UNL     1       3.029   2.333  20.324  0.00  0.00    +0.000 A 
ATOM     20  C   UNL     1       2.459   3.129  21.312  0.00  0.00    +0.000 A 
ATOM     21  C   UNL     1       2.259   4.495  21.103  0.00  0.00    +0.000 A 
ATOM     22  C   UNL     1       2.653   5.040  19.869  0.00  0.00    +0.000 A 
ENDBRANCH   1  16
TORSDOF 1
ENDMDL
MODEL 3
REMARK VINA RESULT:      -7.8      3.524      7.848
REMARK  Name = 
REMARK  2 active torsions:
REMARK  status: ('A' for Active; 'I' for Inactive)
REMARK    1  A    between atoms: C_1  and  N_2
REMARK    2  A    between atoms: C_4  and  C_5
REMARK                            x       y       z     vdW  Elec       q    Type
REMARK                         _______ _______ _______ _____ _____    ______ ____
ROOT
ATOM      1  C   UNL     1       2.055   7.301  19.929  0.00  0.00    +0.000 C 
ATOM      2  C   UNL     1       1.470   8.502  19.782  0.00  0.00    +0.000 C 
ATOM      3  C   UNL     1       1.345   9.413  18.580  0.00  0.00    +0.000 C 
ATOM      4  O   UNL     1       1.766   9.273  17.449  0.00  0.00    +0.000 OA
ATOM      5  N   UNL     1       0.633  10.523  19.026  0.00  0.00    +0.000 N 
ATOM      6  C   UNL     1       0.324  10.407  20.372  0.00  0.00    +0.000 A 
ATOM      7  C   UNL     1      -0.349  11.291  21.183  0.00  0.00    +0.000 A 
ATOM      8  C   UNL     1      -0.512  10.912  22.516  0.00  0.00    +0.000 A 
ATOM      9  C   UNL     1       0.005   9.682  22.949  0.00  0.00    +0.000 A 
ATOM     10  N   UNL     1       0.670   8.804  22.158  0.00  0.00    +0.000 NA
ATOM     11  C   UNL     1       0.804   9.209  20.885  0.00  0.00    +0.000 A 
ATOM     12  H   UNL     1       0.409  11.300  18.424  0.00  0.00    +0.000 HD
ENDROOT
BRANCH   1  16
ATOM     13  C   UNL     1       5.151   5.822  16.372  0.00  0.00    +0.000 C 
ATOM     14  N   UNL     1       4.084   5.803  17.344  0.00  0.00    +0.000 N 
ATOM     15  C   UNL     1       3.699   6.883  18.089  0.00  0.00    +0.000 A 
ATOM     16  C   UNL     1       2.717   6.479  18.964  0.00  0.00    +0.000 A 
ATOM     17  C   UNL     1       2.432   5.104  18.671  0.00  0.00    +0.000 A 
ATOM     18  C   UNL     1       1.519   4.150  19.173  0.00  0.00    +0.000 A 
ATOM     19  C   UNL     1       1.506   2.851  18.649  0.00  0.00    +0.000 A 
ATOM     20  C   UNL     1       2.390   2.486  17.638  0.00  0.00    +0.000 A 
ATOM     21  C   UNL     1       3.308   3.405  17.124  0.00  0.00    +0.000 A 
ATOM     22  C   UNL     1       3.308   4.706  17.653  0.00  0.00    +0.000 A 
ENDBRANCH   1  16
TORSDOF 1
ENDMDL
MODEL 4
REMARK VINA RESULT:      -7.8      3.236      7.261
REMARK  Name = 
REMARK  2 active torsions:
REMARK  status: ('A' for Active; 'I' for Inactive)
REMARK    1  A    between atoms: C_1  and  N_2
REMARK    2  A    between atoms: C_4  and  C_5
REMARK                            x       y       z     vdW  Elec       q    Type
REMARK                         _______ _______ _______ _____ _____    ______ ____
ROOT
ATOM      1  C   UNL     1       2.288   7.001  19.861  0.00  0.00    +0.000 C 
ATOM      2  C   UNL     1       1.842   8.167  19.360  0.00  0.00    +0.000 C 
ATOM      3  C   UNL     1       2.032   8.810  18.004  0.00  0.00    +0.000 C 
ATOM      4  O   UNL     1       2.658   8.420  17.037  0.00  0.00    +0.000 OA
ATOM      5  N   UNL     1       1.338  10.015  18.062  0.00  0.00    +0.000 N 
ATOM      6  C   UNL     1       0.759  10.195  19.309  0.00  0.00    +0.000 A 
ATOM      7  C   UNL     1       0.013  11.254  19.769  0.00  0.00    +0.000 A 
ATOM      8  C   UNL     1      -0.442  11.169  21.086  0.00  0.00    +0.000 A 
ATOM      9  C   UNL     1      -0.123  10.039  21.851  0.00  0.00    +0.000 A 
ATOM     10  N   UNL     1       0.613   8.990  21.407  0.00  0.00    +0.000 NA
ATOM     11  C   UNL     1       1.030   9.114  20.137  0.00  0.00    +0.000 A 
ATOM     12  H   UNL     1       1.302  10.657  17.285  0.00  0.00    +0.000 HD
ENDROOT
BRANCH   1  16
ATOM     13  C   UNL     1       6.075   4.581  17.806  0.00  0.00    +0.000 C 
ATOM     14  N   UNL     1       4.745   4.875  18.287  0.00  0.00    +0.000 N 
ATOM     15  C   UNL     1       4.363   6.079  18.812  0.00  0.00    +0.000 A 
ATOM     16  C   UNL     1       3.060   5.971  19.240  0.00  0.00    +0.000 A 
ATOM     17  C   UNL     1       2.603   4.661  18.873  0.00  0.00    +0.000 A 
ATOM     18  C   UNL     1       1.378   3.968  18.990  0.00  0.00    +0.000 A 
ATOM     19  C   UNL     1       1.270   2.654  18.516  0.00  0.00    +0.000 A 
ATOM     20  C   UNL     1       2.363   2.019  17.934  0.00  0.00    +0.000 A 
ATOM     21  C   UNL     1       3.588   2.676  17.807  0.00  0.00    +0.000 A 
ATOM     22  C   UNL     1       3.684   3.996  18.280  0.00  0.00    +0.000 A 
ENDBRANCH   1  16
TORSDOF 1
ENDMDL
MODEL 5
REMARK VINA RESULT:      -7.8      3.220      7.154
REMARK  Name = 
REMARK  2 active torsions:
REMARK  status: ('A' for Active; 'I' for Inactive)
REMARK    1  A    between atoms: C_1  and  N_2
REMARK    2  A    between atoms: C_4  and  C_5
REMARK                            x       y       z     vdW  Elec       q    Type
REMARK                         _______ _______ _______ _____ _____    ______ ____
ROOT
ATOM      1  C   UNL     1       2.608   7.666  18.129  0.00  0.00    +0.000 C 
ATOM      2  C   UNL     1       1.921   8.051  19.218  0.00  0.00    +0.000 C 
ATOM      3  C   UNL     1       1.687   7.366  20.547  0.00  0.00    +0.000 C 
ATOM      4  O   UNL     1       2.061   6.278  20.939  0.00  0.00    +0.000 OA
ATOM      5  N   UNL     1       0.901   8.245  21.286  0.00  0.00    +0.000 N 
ATOM      6  C   UNL     1       0.607   9.385  20.554  0.00  0.00    +0.000 A 
ATOM      7  C   UNL     1      -0.150  10.473  20.918  0.00  0.00    +0.000 A 
ATOM      8  C   UNL     1      -0.283  11.485  19.966  0.00  0.00    +0.000 A 
ATOM      9  C   UNL     1       0.345  11.343  18.720  0.00  0.00    +0.000 A 
ATOM     10  N   UNL     1       1.093  10.274  18.351  0.00  0.00    +0.000 NA
ATOM     11  C   UNL     1       1.194   9.326  19.297  0.00  0.00    +0.000 A 
ATOM     12  H   UNL     1       0.587   8.035  22.221  0.00  0.00    +0.000 HD
ENDROOT
BRANCH   1  16
ATOM     13  C   UNL     1       6.427   4.670  17.201  0.00  0.00    +0.000 C 
ATOM     14  N   UNL     1       5.079   5.120  17.457  0.00  0.00    +0.000 N 
ATOM     15  C   UNL     1       4.714   6.432  17.577  0.00  0.00    +0.000 A 
ATOM     16  C   UNL     1       3.377   6.483  17.900  0.00  0.00    +0.000 A 
ATOM     17  C   UNL     1       2.890   5.133  17.887  0.00  0.00    +0.000 A 
ATOM     18  C   UNL     1       1.629   4.531  18.090  0.00  0.00    +0.000 A 
ATOM     19  C   UNL     1       1.497   3.139  18.006  0.00  0.00    +0.000 A 
ATOM     20  C   UNL     1       2.601   2.338  17.730  0.00  0.00    +0.000 A 
ATOM     21  C   UNL     1       3.862   2.903  17.529  0.00  0.00    +0.000 A 
ATOM     22  C   UNL     1       3.982   4.300  17.609  0.00  0.00    +0.000 A 
ENDBRANCH   1  16
TORSDOF 1
ENDMDL
MODEL 6
REMARK VINA RESULT:      -7.3      4.684      7.191
REMARK  Name = 
REMARK  2 active torsions:
REMARK  status: ('A' for Active; 'I' for Inactive)
REMARK    1  A    between atoms: C_1  and  N_2
REMARK    2  A    between atoms: C_4  and  C_5
REMARK                            x       y       z     vdW  Elec       q    Type
REMARK                         _______ _______ _______ _____ _____    ______ ____
ROOT
ATOM      1  C   UNL     1       1.561   9.306  18.411  0.00  0.00    +0.000 C 
ATOM      2  C   UNL     1       1.971   8.194  19.045  0.00  0.00    +0.000 C 
ATOM      3  C   UNL     1       1.598   7.615  20.392  0.00  0.00    +0.000 C 
ATOM      4  O   UNL     1       0.834   8.039  21.238  0.00  0.00    +0.000 OA
ATOM      5  N   UNL     1       2.341   6.445  20.515  0.00  0.00    +0.000 N 
ATOM      6  C   UNL     1       3.147   6.250  19.404  0.00  0.00    +0.000 A 
ATOM      7  C   UNL     1       4.035   5.231  19.150  0.00  0.00    +0.000 A 
ATOM      8  C   UNL     1       4.724   5.294  17.938  0.00  0.00    +0.000 A 
ATOM      9  C   UNL     1       4.481   6.363  17.064  0.00  0.00    +0.000 A 
ATOM     10  N   UNL     1       3.608   7.373  17.305  0.00  0.00    +0.000 NA
ATOM     11  C   UNL     1       2.969   7.273  18.482  0.00  0.00    +0.000 A 
ATOM     12  H   UNL     1       2.291   5.854  21.331  0.00  0.00    +0.000 HD
ENDROOT
BRANCH   1  16
ATOM     13  C   UNL     1      -0.562  13.130  20.711  0.00  0.00    +0.000 C 
ATOM     14  N   UNL     1      -0.387  11.984  19.850  0.00  0.00    +0.000 N 
ATOM     15  C   UNL     1       0.755  11.234  19.787  0.00  0.00    +0.000 A 
ATOM     16  C   UNL     1       0.595  10.283  18.805  0.00  0.00    +0.000 A 
ATOM     17  C   UNL     1      -0.747  10.409  18.312  0.00  0.00    +0.000 A 
ATOM     18  C   UNL     1      -1.521   9.717  17.354  0.00  0.00    +0.000 A 
ATOM     19  C   UNL     1      -2.841  10.114  17.104  0.00  0.00    +0.000 A 
ATOM     20  C   UNL     1      -3.399  11.190  17.787  0.00  0.00    +0.000 A 
ATOM     21  C   UNL     1      -2.657  11.897  18.736  0.00  0.00    +0.000 A 
ATOM     22  C   UNL     1      -1.337  11.486  18.984  0.00  0.00    +0.000 A 
ENDBRANCH   1  16
TORSDOF 1
ENDMDL
MODEL 7
REMARK VINA RESULT:      -7.2      3.140      7.105
REMARK  Name = 
REMARK  2 active torsions:
REMARK  status: ('A' for Active; 'I' for Inactive)
REMARK    1  A    between atoms: C_1  and  N_2
REMARK    2  A    between atoms: C_4  and  C_5
REMARK                            x       y       z     vdW  Elec       q    Type
REMARK                         _______ _______ _______ _____ _____    ______ ____
ROOT
ATOM      1  C   UNL     1       2.591   7.561  18.091  0.00  0.00    +0.000 C 
ATOM      2  C   UNL     1       1.963   7.998  19.196  0.00  0.00    +0.000 C 
ATOM      3  C   UNL     1       1.655   7.312  20.509  0.00  0.00    +0.000 C 
ATOM      4  O   UNL     1       1.898   6.177  20.871  0.00  0.00    +0.000 OA
ATOM      5  N   UNL     1       0.986   8.260  21.277  0.00  0.00    +0.000 N 
ATOM      6  C   UNL     1       0.828   9.445  20.576  0.00  0.00    +0.000 A 
ATOM      7  C   UNL     1       0.210  10.607  20.974  0.00  0.00    +0.000 A 
ATOM      8  C   UNL     1       0.193  11.652  20.048  0.00  0.00    +0.000 A 
ATOM      9  C   UNL     1       0.793  11.468  18.794  0.00  0.00    +0.000 A 
ATOM     10  N   UNL     1       1.404  10.326  18.392  0.00  0.00    +0.000 NA
ATOM     11  C   UNL     1       1.395   9.348  19.313  0.00  0.00    +0.000 A 
ATOM     12  H   UNL     1       0.655   8.065  22.210  0.00  0.00    +0.000 HD
ENDROOT
BRANCH   1  16
ATOM     13  C   UNL     1       3.246   2.700  17.478  0.00  0.00    +0.000 C 
ATOM     14  N   UNL     1       3.532   4.113  17.574  0.00  0.00    +0.000 N 
ATOM     15  C   UNL     1       2.613   5.064  17.920  0.00  0.00    +0.000 A 
ATOM     16  C   UNL     1       3.211   6.300  17.827  0.00  0.00    +0.000 A 
ATOM     17  C   UNL     1       4.589   6.075  17.492  0.00  0.00    +0.000 A 
ATOM     18  C   UNL     1       5.712   6.910  17.298  0.00  0.00    +0.000 A 
ATOM     19  C   UNL     1       6.951   6.349  16.965  0.00  0.00    +0.000 A 
ATOM     20  C   UNL     1       7.088   4.972  16.816  0.00  0.00    +0.000 A 
ATOM     21  C   UNL     1       5.995   4.121  16.996  0.00  0.00    +0.000 A 
ATOM     22  C   UNL     1       4.759   4.694  17.336  0.00  0.00    +0.000 A 
ENDBRANCH   1  16
TORSDOF 1
ENDMDL
MODEL 8
REMARK VINA RESULT:      -7.0      3.402      5.614
REMARK  Name = 
REMARK  2 active torsions:
REMARK  status: ('A' for Active; 'I' for Inactive)
REMARK    1  A    between atoms: C_1  and  N_2
REMARK    2  A    between atoms: C_4  and  C_5
REMARK                            x       y       z     vdW  Elec       q    Type
REMARK                         _______ _______ _______ _____ _____    ______ ____
ROOT
ATOM      1  C   UNL     1       2.398   7.753  19.081  0.00  0.00    +0.000 C 
ATOM      2  C   UNL     1       2.580   6.426  18.974  0.00  0.00    +0.000 C 
ATOM      3  C   UNL     1       1.984   5.269  19.746  0.00  0.00    +0.000 C 
ATOM      4  O   UNL     1       1.196   5.274  20.673  0.00  0.00    +0.000 OA
ATOM      5  N   UNL     1       2.542   4.122  19.191  0.00  0.00    +0.000 N 
ATOM      6  C   UNL     1       3.432   4.444  18.177  0.00  0.00    +0.000 A 
ATOM      7  C   UNL     1       4.194   3.604  17.400  0.00  0.00    +0.000 A 
ATOM      8  C   UNL     1       5.015   4.212  16.449  0.00  0.00    +0.000 A 
ATOM      9  C   UNL     1       5.020   5.609  16.337  0.00  0.00    +0.000 A 
ATOM     10  N   UNL     1       4.272   6.446  17.099  0.00  0.00    +0.000 NA
ATOM     11  C   UNL     1       3.498   5.819  18.000  0.00  0.00    +0.000 A 
ATOM     12  H   UNL     1       2.321   3.196  19.524  0.00  0.00    +0.000 HD
ENDROOT
BRANCH   1  16
ATOM     13  C   UNL     1       0.182   9.425  23.170  0.00  0.00    +0.000 C 
ATOM     14  N   UNL     1       0.509   9.240  21.776  0.00  0.00    +0.000 N 
ATOM     15  C   UNL     1       1.425   8.336  21.311  0.00  0.00    +0.000 A 
ATOM     16  C   UNL     1       1.537   8.494  19.949  0.00  0.00    +0.000 A 
ATOM     17  C   UNL     1       0.574   9.484  19.559  0.00  0.00    +0.000 A 
ATOM     18  C   UNL     1       0.173  10.049  18.328  0.00  0.00    +0.000 A 
ATOM     19  C   UNL     1      -0.828  11.028  18.301  0.00  0.00    +0.000 A 
ATOM     20  C   UNL     1      -1.431  11.457  19.479  0.00  0.00    +0.000 A 
ATOM     21  C   UNL     1      -1.054  10.921  20.712  0.00  0.00    +0.000 A 
ATOM     22  C   UNL     1      -0.054   9.935  20.727  0.00  0.00    +0.000 A 
ENDBRANCH   1  16
TORSDOF 1
ENDMDL
MODEL 9
REMARK VINA RESULT:      -6.8      4.434      7.143
REMARK  Name = 
REMARK  2 active torsions:
REMARK  status: ('A' for Active; 'I' for Inactive)
REMARK    1  A    between atoms: C_1  and  N_2
REMARK    2  A    between atoms: C_4  and  C_5
REMARK                            x       y       z     vdW  Elec       q    Type
REMARK                         _______ _______ _______ _____ _____    ______ ____
ROOT
ATOM      1  C   UNL     1       1.105   8.511  20.220  0.00  0.00    +0.000 C 
ATOM      2  C   UNL     1       1.930   8.044  19.268  0.00  0.00    +0.000 C 
ATOM      3  C   UNL     1       2.419   8.662  17.976  0.00  0.00    +0.000 C 
ATOM      4  O   UNL     1       2.161   9.743  17.483  0.00  0.00    +0.000 OA
ATOM      5  N   UNL     1       3.256   7.711  17.401  0.00  0.00    +0.000 N 
ATOM      6  C   UNL     1       3.321   6.568  18.182  0.00  0.00    +0.000 A 
ATOM      7  C   UNL     1       4.018   5.406  17.955  0.00  0.00    +0.000 A 
ATOM      8  C   UNL     1       3.892   4.405  18.920  0.00  0.00    +0.000 A 
ATOM      9  C   UNL     1       3.083   4.632  20.043  0.00  0.00    +0.000 A 
ATOM     10  N   UNL     1       2.391   5.775  20.276  0.00  0.00    +0.000 NA
ATOM     11  C   UNL     1       2.540   6.708  19.322  0.00  0.00    +0.000 A 
ATOM     12  H   UNL     1       3.720   7.861  16.518  0.00  0.00    +0.000 HD
ENDROOT
BRANCH   1  16
ATOM     13  C   UNL     1      -0.133  13.020  21.823  0.00  0.00    +0.000 C 
ATOM     14  N   UNL     1      -0.137  11.799  21.051  0.00  0.00    +0.000 N 
ATOM     15  C   UNL     1       0.665  10.721  21.308  0.00  0.00    +0.000 A 
ATOM     16  C   UNL     1       0.453   9.779  20.328  0.00  0.00    +0.000 A 
ATOM     17  C   UNL     1      -0.596  10.278  19.486  0.00  0.00    +0.000 A 
ATOM     18  C   UNL     1      -1.285   9.779  18.358  0.00  0.00    +0.000 A 
ATOM     19  C   UNL     1      -2.287  10.550  17.754  0.00  0.00    +0.000 A 
ATOM     20  C   UNL     1      -2.608  11.809  18.250  0.00  0.00    +0.000 A 
ATOM     21  C   UNL     1      -1.942  12.332  19.360  0.00  0.00    +0.000 A 
ATOM     22  C   UNL     1      -0.944  11.548  19.962  0.00  0.00    +0.000 A 
ENDBRANCH   1  16
TORSDOF 1
ENDMDL
