MODEL 1
REMARK VINA RESULT:      -6.7      0.000      0.000
REMARK  Name = 
REMARK  6 active torsions:
REMARK  status: ('A' for Active; 'I' for Inactive)
REMARK    1  A    between atoms: C_1  and  C_2
REMARK    2  A    between atoms: C_2  and  C_3
REMARK    3  A    between atoms: C_2  and  N_10
REMARK    4  A    between atoms: C_3  and  C_4
REMARK    5  A    between atoms: C_11  and  C_13
REMARK    6  A    between atoms: C_18  and  O_19
REMARK                            x       y       z     vdW  Elec       q    Type
REMARK                         _______ _______ _______ _____ _____    ______ ____
ROOT
ATOM      1  N   UNL     1       3.183   6.067  18.600  0.00  0.00    +0.000 N 
ATOM      2  C   UNL     1       3.048   4.715  18.398  0.00  0.00    +0.000 C 
ATOM      3  O   UNL     1       3.127   4.195  17.290  0.00  0.00    +0.000 OA
ATOM      4  H   UNL     1       3.065   6.414  19.549  0.00  0.00    +0.000 HD
ENDROOT
BRANCH   2   5
ATOM      5  C   UNL     1       2.811   3.874  19.610  0.00  0.00    +0.000 A 
ATOM      6  C   UNL     1       1.591   4.044  20.276  0.00  0.00    +0.000 A 
ATOM      7  C   UNL     1       1.321   3.253  21.379  0.00  0.00    +0.000 A 
ATOM      8  N   UNL     1       2.173   2.325  21.860  0.00  0.00    +0.000 NA
ATOM      9  C   UNL     1       3.348   2.183  21.209  0.00  0.00    +0.000 A 
ATOM     10  C   UNL     1       3.716   2.924  20.094  0.00  0.00    +0.000 A 
BRANCH  10  11
ATOM     11  O   UNL     1       4.931   2.716  19.500  0.00  0.00    +0.000 OA
ATOM     12  H   UNL     1       4.806   2.651  18.536  0.00  0.00    +0.000 HD
ENDBRANCH  10  11
ENDBRANCH   2   5
BRANCH   1  14
ATOM     13  C   UNL     1       2.501   8.217  17.673  0.00  0.00    +0.000 C 
ATOM     14  C   UNL     1       3.429   7.012  17.522  0.00  0.00    +0.000 C 
BRANCH  14  15
ATOM     15  C   UNL     1       4.905   7.463  17.498  0.00  0.00    +0.000 C 
BRANCH  15  16
ATOM     16  C   UNL     1       5.883   6.354  17.179  0.00  0.00    +0.000 A 
ATOM     17  C   UNL     1       6.738   5.840  18.157  0.00  0.00    +0.000 A 
ATOM     18  C   UNL     1       7.621   4.830  17.807  0.00  0.00    +0.000 A 
ATOM     19  N   UNL     1       7.705   4.298  16.570  0.00  0.00    +0.000 NA
ATOM     20  C   UNL     1       6.868   4.802  15.641  0.00  0.00    +0.000 A 
ATOM     21  C   UNL     1       5.951   5.812  15.892  0.00  0.00    +0.000 A 
ENDBRANCH  15  16
ENDBRANCH  14  15
ENDBRANCH   1  14
TORSDOF 5
ENDMDL
MODEL 2
REMARK VINA RESULT:      -6.7      0.022      1.077
REMARK  Name = 
REMARK  6 active torsions:
REMARK  status: ('A' for Active; 'I' for Inactive)
REMARK    1  A    between atoms: C_1  and  C_2
REMARK    2  A    between atoms: C_2  and  C_3
REMARK    3  A    between atoms: C_2  and  N_10
REMARK    4  A    between atoms: C_3  and  C_4
REMARK    5  A    between atoms: C_11  and  C_13
REMARK    6  A    between atoms: C_18  and  O_19
REMARK                            x       y       z     vdW  Elec       q    Type
REMARK                         _______ _______ _______ _____ _____    ______ ____
ROOT
ATOM      1  N   UNL     1       3.178   6.075  18.615  0.00  0.00    +0.000 N 
ATOM      2  C   UNL     1       3.044   4.723  18.412  0.00  0.00    +0.000 C 
ATOM      3  O   UNL     1       3.120   4.204  17.303  0.00  0.00    +0.000 OA
ATOM      4  H   UNL     1       3.062   6.420  19.565  0.00  0.00    +0.000 HD
ENDROOT
BRANCH   2   5
ATOM      5  C   UNL     1       2.810   3.881  19.624  0.00  0.00    +0.000 A 
ATOM      6  C   UNL     1       1.592   4.047  20.292  0.00  0.00    +0.000 A 
ATOM      7  C   UNL     1       1.326   3.255  21.395  0.00  0.00    +0.000 A 
ATOM      8  N   UNL     1       2.181   2.329  21.875  0.00  0.00    +0.000 NA
ATOM      9  C   UNL     1       3.355   2.190  21.222  0.00  0.00    +0.000 A 
ATOM     10  C   UNL     1       3.719   2.933  20.106  0.00  0.00    +0.000 A 
BRANCH  10  11
ATOM     11  O   UNL     1       4.934   2.728  19.510  0.00  0.00    +0.000 OA
ATOM     12  H   UNL     1       5.184   3.530  19.015  0.00  0.00    +0.000 HD
ENDBRANCH  10  11
ENDBRANCH   2   5
BRANCH   1  14
ATOM     13  C   UNL     1       2.489   8.222  17.689  0.00  0.00    +0.000 C 
ATOM     14  C   UNL     1       3.420   7.020  17.537  0.00  0.00    +0.000 C 
BRANCH  14  15
ATOM     15  C   UNL     1       4.894   7.477  17.511  0.00  0.00    +0.000 C 
BRANCH  15  16
ATOM     16  C   UNL     1       5.875   6.372  17.188  0.00  0.00    +0.000 A 
ATOM     17  C   UNL     1       5.949   5.821  15.905  0.00  0.00    +0.000 A 
ATOM     18  C   UNL     1       6.860   4.803  15.667  0.00  0.00    +0.000 A 
ATOM     19  N   UNL     1       7.697   4.308  16.602  0.00  0.00    +0.000 NA
ATOM     20  C   UNL     1       7.617   4.856  17.831  0.00  0.00    +0.000 A 
ATOM     21  C   UNL     1       6.739   5.875  18.169  0.00  0.00    +0.000 A 
ENDBRANCH  15  16
ENDBRANCH  14  15
ENDBRANCH   1  14
TORSDOF 5
ENDMDL
MODEL 3
REMARK VINA RESULT:      -6.6      1.849      2.633
REMARK  Name = 
REMARK  6 active torsions:
REMARK  status: ('A' for Active; 'I' for Inactive)
REMARK    1  A    between atoms: C_1  and  C_2
REMARK    2  A    between atoms: C_2  and  C_3
REMARK    3  A    between atoms: C_2  and  N_10
REMARK    4  A    between atoms: C_3  and  C_4
REMARK    5  A    between atoms: C_11  and  C_13
REMARK    6  A    between atoms: C_18  and  O_19
REMARK                            x       y       z     vdW  Elec       q    Type
REMARK                         _______ _______ _______ _____ _____    ______ ____
ROOT
ATOM      1  N   UNL     1       4.346   4.772  17.724  0.00  0.00    +0.000 N 
ATOM      2  C   UNL     1       3.314   3.873  17.840  0.00  0.00    +0.000 C 
ATOM      3  O   UNL     1       2.735   3.394  16.871  0.00  0.00    +0.000 OA
ATOM      4  H   UNL     1       4.741   5.146  18.584  0.00  0.00    +0.000 HD
ENDROOT
BRANCH   2   5
ATOM      5  C   UNL     1       2.918   3.478  19.226  0.00  0.00    +0.000 A 
ATOM      6  C   UNL     1       1.664   3.902  19.678  0.00  0.00    +0.000 A 
ATOM      7  C   UNL     1       1.249   3.520  20.941  0.00  0.00    +0.000 A 
ATOM      8  N   UNL     1       1.990   2.762  21.774  0.00  0.00    +0.000 NA
ATOM      9  C   UNL     1       3.202   2.370  21.324  0.00  0.00    +0.000 A 
ATOM     10  C   UNL     1       3.711   2.698  20.074  0.00  0.00    +0.000 A 
BRANCH  10  11
ATOM     11  O   UNL     1       4.954   2.260  19.701  0.00  0.00    +0.000 OA
ATOM     12  H   UNL     1       5.368   1.802  20.455  0.00  0.00    +0.000 HD
ENDBRANCH  10  11
ENDBRANCH   2   5
BRANCH   1  14
ATOM     13  C   UNL     1       4.889   6.771  16.438  0.00  0.00    +0.000 C 
ATOM     14  C   UNL     1       4.850   5.243  16.445  0.00  0.00    +0.000 C 
BRANCH  14  15
ATOM     15  C   UNL     1       6.250   4.665  16.145  0.00  0.00    +0.000 C 
BRANCH  15  16
ATOM     16  C   UNL     1       6.546   4.501  14.671  0.00  0.00    +0.000 A 
ATOM     17  C   UNL     1       7.543   5.253  14.044  0.00  0.00    +0.000 A 
ATOM     18  C   UNL     1       7.765   5.068  12.688  0.00  0.00    +0.000 A 
ATOM     19  N   UNL     1       7.078   4.193  11.924  0.00  0.00    +0.000 NA
ATOM     20  C   UNL     1       6.124   3.472  12.548  0.00  0.00    +0.000 A 
ATOM     21  C   UNL     1       5.827   3.585  13.898  0.00  0.00    +0.000 A 
ENDBRANCH  15  16
ENDBRANCH  14  15
ENDBRANCH   1  14
TORSDOF 5
ENDMDL
MODEL 4
REMARK VINA RESULT:      -6.5      2.630      4.480
REMARK  Name = 
REMARK  6 active torsions:
REMARK  status: ('A' for Active; 'I' for Inactive)
REMARK    1  A    between atoms: C_1  and  C_2
REMARK    2  A    between atoms: C_2  and  C_3
REMARK    3  A    between atoms: C_2  and  N_10
REMARK    4  A    between atoms: C_3  and  C_4
REMARK    5  A    between atoms: C_11  and  C_13
REMARK    6  A    between atoms: C_18  and  O_19
REMARK                            x       y       z     vdW  Elec       q    Type
REMARK                         _______ _______ _______ _____ _____    ______ ____
ROOT
ATOM      1  N   UNL     1       2.966   5.566  17.842  0.00  0.00    +0.000 N 
ATOM      2  C   UNL     1       2.990   6.250  19.033  0.00  0.00    +0.000 C 
ATOM      3  O   UNL     1       3.566   5.831  20.032  0.00  0.00    +0.000 OA
ATOM      4  H   UNL     1       2.431   5.972  17.078  0.00  0.00    +0.000 HD
ENDROOT
BRANCH   2   5
ATOM      5  C   UNL     1       2.282   7.566  19.066  0.00  0.00    +0.000 A 
ATOM      6  C   UNL     1       2.223   8.290  17.870  0.00  0.00    +0.000 A 
ATOM      7  C   UNL     1       1.541   9.493  17.855  0.00  0.00    +0.000 A 
ATOM      8  N   UNL     1       0.930  10.020  18.936  0.00  0.00    +0.000 NA
ATOM      9  C   UNL     1       1.007   9.312  20.083  0.00  0.00    +0.000 A 
ATOM     10  C   UNL     1       1.665   8.095  20.205  0.00  0.00    +0.000 A 
BRANCH  10  11
ATOM     11  O   UNL     1       1.697   7.447  21.410  0.00  0.00    +0.000 OA
ATOM     12  H   UNL     1       2.605   7.478  21.764  0.00  0.00    +0.000 HD
ENDBRANCH  10  11
ENDBRANCH   2   5
BRANCH   1  14
ATOM     13  C   UNL     1       2.629   3.288  17.040  0.00  0.00    +0.000 C 
ATOM     14  C   UNL     1       3.618   4.280  17.651  0.00  0.00    +0.000 C 
BRANCH  14  15
ATOM     15  C   UNL     1       4.872   4.413  16.761  0.00  0.00    +0.000 C 
BRANCH  15  16
ATOM     16  C   UNL     1       5.953   5.293  17.348  0.00  0.00    +0.000 A 
ATOM     17  C   UNL     1       6.224   6.559  16.819  0.00  0.00    +0.000 A 
ATOM     18  C   UNL     1       7.232   7.319  17.390  0.00  0.00    +0.000 A 
ATOM     19  N   UNL     1       7.975   6.916  18.443  0.00  0.00    +0.000 NA
ATOM     20  C   UNL     1       7.695   5.696  18.944  0.00  0.00    +0.000 A 
ATOM     21  C   UNL     1       6.708   4.861  18.442  0.00  0.00    +0.000 A 
ENDBRANCH  15  16
ENDBRANCH  14  15
ENDBRANCH   1  14
TORSDOF 5
ENDMDL
MODEL 5
REMARK VINA RESULT:      -6.5      2.145      2.926
REMARK  Name = 
REMARK  6 active torsions:
REMARK  status: ('A' for Active; 'I' for Inactive)
REMARK    1  A    between atoms: C_1  and  C_2
REMARK    2  A    between atoms: C_2  and  C_3
REMARK    3  A    between atoms: C_2  and  N_10
REMARK    4  A    between atoms: C_3  and  C_4
REMARK    5  A    between atoms: C_11  and  C_13
REMARK    6  A    between atoms: C_18  and  O_19
REMARK                            x       y       z     vdW  Elec       q    Type
REMARK                         _______ _______ _______ _____ _____    ______ ____
ROOT
ATOM      1  N   UNL     1       4.164   4.702  17.595  0.00  0.00    +0.000 N 
ATOM      2  C   UNL     1       3.057   3.903  17.756  0.00  0.00    +0.000 C 
ATOM      3  O   UNL     1       2.443   3.415  16.813  0.00  0.00    +0.000 OA
ATOM      4  H   UNL     1       4.586   5.093  18.433  0.00  0.00    +0.000 HD
ENDROOT
BRANCH   2   5
ATOM      5  C   UNL     1       2.624   3.630  19.160  0.00  0.00    +0.000 A 
ATOM      6  C   UNL     1       2.802   4.657  20.094  0.00  0.00    +0.000 A 
ATOM      7  C   UNL     1       2.376   4.454  21.395  0.00  0.00    +0.000 A 
ATOM      8  N   UNL     1       1.799   3.312  21.823  0.00  0.00    +0.000 NA
ATOM      9  C   UNL     1       1.645   2.330  20.909  0.00  0.00    +0.000 A 
ATOM     10  C   UNL     1       2.037   2.432  19.580  0.00  0.00    +0.000 A 
BRANCH  10  11
ATOM     11  O   UNL     1       1.846   1.383  18.723  0.00  0.00    +0.000 OA
ATOM     12  H   UNL     1       2.714   1.023  18.462  0.00  0.00    +0.000 HD
ENDBRANCH  10  11
ENDBRANCH   2   5
BRANCH   1  14
ATOM     13  C   UNL     1       4.969   6.551  16.226  0.00  0.00    +0.000 C 
ATOM     14  C   UNL     1       4.711   5.047  16.293  0.00  0.00    +0.000 C 
BRANCH  14  15
ATOM     15  C   UNL     1       6.009   4.261  16.004  0.00  0.00    +0.000 C 
BRANCH  15  16
ATOM     16  C   UNL     1       6.437   4.292  14.553  0.00  0.00    +0.000 A 
ATOM     17  C   UNL     1       7.468   5.130  14.120  0.00  0.00    +0.000 A 
ATOM     18  C   UNL     1       7.812   5.125  12.777  0.00  0.00    +0.000 A 
ATOM     19  N   UNL     1       7.215   4.348  11.849  0.00  0.00    +0.000 NA
ATOM     20  C   UNL     1       6.228   3.541  12.287  0.00  0.00    +0.000 A 
ATOM     21  C   UNL     1       5.810   3.476  13.608  0.00  0.00    +0.000 A 
ENDBRANCH  15  16
ENDBRANCH  14  15
ENDBRANCH   1  14
TORSDOF 5
ENDMDL
MODEL 6
REMARK VINA RESULT:      -6.5      2.965      6.250
REMARK  Name = 
REMARK  6 active torsions:
REMARK  status: ('A' for Active; 'I' for Inactive)
REMARK    1  A    between atoms: C_1  and  C_2
REMARK    2  A    between atoms: C_2  and  C_3
REMARK    3  A    between atoms: C_2  and  N_10
REMARK    4  A    between atoms: C_3  and  C_4
REMARK    5  A    between atoms: C_11  and  C_13
REMARK    6  A    between atoms: C_18  and  O_19
REMARK                            x       y       z     vdW  Elec       q    Type
REMARK                         _______ _______ _______ _____ _____    ______ ____
ROOT
ATOM      1  N   UNL     1       6.769   6.244  16.151  0.00  0.00    +0.000 N 
ATOM      2  C   UNL     1       7.236   5.010  15.769  0.00  0.00    +0.000 C 
ATOM      3  O   UNL     1       7.780   4.232  16.547  0.00  0.00    +0.000 OA
ATOM      4  H   UNL     1       6.366   6.837  15.430  0.00  0.00    +0.000 HD
ENDROOT
BRANCH   2   5
ATOM      5  C   UNL     1       7.039   4.630  14.338  0.00  0.00    +0.000 A 
ATOM      6  C   UNL     1       5.997   3.741  14.050  0.00  0.00    +0.000 A 
ATOM      7  C   UNL     1       5.761   3.399  12.731  0.00  0.00    +0.000 A 
ATOM      8  N   UNL     1       6.486   3.869  11.695  0.00  0.00    +0.000 NA
ATOM      9  C   UNL     1       7.493   4.717  11.994  0.00  0.00    +0.000 A 
ATOM     10  C   UNL     1       7.813   5.124  13.283  0.00  0.00    +0.000 A 
BRANCH  10  11
ATOM     11  O   UNL     1       8.856   5.985  13.494  0.00  0.00    +0.000 OA
ATOM     12  H   UNL     1       9.658   5.621  13.075  0.00  0.00    +0.000 HD
ENDBRANCH  10  11
ENDBRANCH   2   5
BRANCH   1  14
ATOM     13  C   UNL     1       7.594   8.099  17.502  0.00  0.00    +0.000 C 
ATOM     14  C   UNL     1       6.878   6.749  17.510  0.00  0.00    +0.000 C 
BRANCH  14  15
ATOM     15  C   UNL     1       5.489   6.877  18.173  0.00  0.00    +0.000 C 
BRANCH  15  16
ATOM     16  C   UNL     1       4.747   5.566  18.306  0.00  0.00    +0.000 A 
ATOM     17  C   UNL     1       5.231   4.539  19.122  0.00  0.00    +0.000 A 
ATOM     18  C   UNL     1       4.515   3.354  19.199  0.00  0.00    +0.000 A 
ATOM     19  N   UNL     1       3.362   3.126  18.535  0.00  0.00    +0.000 NA
ATOM     20  C   UNL     1       2.908   4.130  17.758  0.00  0.00    +0.000 A 
ATOM     21  C   UNL     1       3.551   5.351  17.614  0.00  0.00    +0.000 A 
ENDBRANCH  15  16
ENDBRANCH  14  15
ENDBRANCH   1  14
TORSDOF 5
ENDMDL
MODEL 7
REMARK VINA RESULT:      -6.5      1.954      5.642
REMARK  Name = 
REMARK  6 active torsions:
REMARK  status: ('A' for Active; 'I' for Inactive)
REMARK    1  A    between atoms: C_1  and  C_2
REMARK    2  A    between atoms: C_2  and  C_3
REMARK    3  A    between atoms: C_2  and  N_10
REMARK    4  A    between atoms: C_3  and  C_4
REMARK    5  A    between atoms: C_11  and  C_13
REMARK    6  A    between atoms: C_18  and  O_19
REMARK                            x       y       z     vdW  Elec       q    Type
REMARK                         _______ _______ _______ _____ _____    ______ ____
ROOT
ATOM      1  N   UNL     1       3.541   5.173  18.934  0.00  0.00    +0.000 N 
ATOM      2  C   UNL     1       3.783   4.482  17.771  0.00  0.00    +0.000 C 
ATOM      3  O   UNL     1       2.904   3.896  17.148  0.00  0.00    +0.000 OA
ATOM      4  H   UNL     1       4.338   5.597  19.403  0.00  0.00    +0.000 HD
ENDROOT
BRANCH   2   5
ATOM      5  C   UNL     1       5.191   4.482  17.270  0.00  0.00    +0.000 A 
ATOM      6  C   UNL     1       5.376   4.448  15.883  0.00  0.00    +0.000 A 
ATOM      7  C   UNL     1       6.666   4.487  15.384  0.00  0.00    +0.000 A 
ATOM      8  N   UNL     1       7.767   4.550  16.161  0.00  0.00    +0.000 NA
ATOM      9  C   UNL     1       7.568   4.572  17.496  0.00  0.00    +0.000 A 
ATOM     10  C   UNL     1       6.317   4.538  18.099  0.00  0.00    +0.000 A 
BRANCH  10  11
ATOM     11  O   UNL     1       6.209   4.560  19.463  0.00  0.00    +0.000 OA
ATOM     12  H   UNL     1       7.101   4.502  19.853  0.00  0.00    +0.000 HD
ENDBRANCH  10  11
ENDBRANCH   2   5
BRANCH   1  14
ATOM     13  C   UNL     1       1.909   3.990  20.305  0.00  0.00    +0.000 C 
ATOM     14  C   UNL     1       2.222   5.274  19.538  0.00  0.00    +0.000 C 
BRANCH  14  15
ATOM     15  C   UNL     1       2.124   6.500  20.470  0.00  0.00    +0.000 C 
BRANCH  15  16
ATOM     16  C   UNL     1       1.809   7.795  19.754  0.00  0.00    +0.000 A 
ATOM     17  C   UNL     1       2.181   7.994  18.421  0.00  0.00    +0.000 A 
ATOM     18  C   UNL     1       1.875   9.203  17.817  0.00  0.00    +0.000 A 
ATOM     19  N   UNL     1       1.226  10.212  18.435  0.00  0.00    +0.000 NA
ATOM     20  C   UNL     1       0.870   9.999  19.718  0.00  0.00    +0.000 A 
ATOM     21  C   UNL     1       1.131   8.826  20.410  0.00  0.00    +0.000 A 
ENDBRANCH  15  16
ENDBRANCH  14  15
ENDBRANCH   1  14
TORSDOF 5
ENDMDL
MODEL 8
REMARK VINA RESULT:      -6.4      1.118      1.944
REMARK  Name = 
REMARK  6 active torsions:
REMARK  status: ('A' for Active; 'I' for Inactive)
REMARK    1  A    between atoms: C_1  and  C_2
REMARK    2  A    between atoms: C_2  and  C_3
REMARK    3  A    between atoms: C_2  and  N_10
REMARK    4  A    between atoms: C_3  and  C_4
REMARK    5  A    between atoms: C_11  and  C_13
REMARK    6  A    between atoms: C_18  and  O_19
REMARK                            x       y       z     vdW  Elec       q    Type
REMARK                         _______ _______ _______ _____ _____    ______ ____
ROOT
ATOM      1  N   UNL     1       3.332   5.935  18.514  0.00  0.00    +0.000 N 
ATOM      2  C   UNL     1       2.497   4.844  18.499  0.00  0.00    +0.000 C 
ATOM      3  O   UNL     1       1.682   4.640  17.606  0.00  0.00    +0.000 OA
ATOM      4  H   UNL     1       3.950   6.043  19.314  0.00  0.00    +0.000 HD
ENDROOT
BRANCH   2   5
ATOM      5  C   UNL     1       2.631   3.881  19.634  0.00  0.00    +0.000 A 
ATOM      6  C   UNL     1       3.864   3.236  19.782  0.00  0.00    +0.000 A 
ATOM      7  C   UNL     1       4.035   2.367  20.846  0.00  0.00    +0.000 A 
ATOM      8  N   UNL     1       3.074   2.097  21.753  0.00  0.00    +0.000 NA
ATOM      9  C   UNL     1       1.889   2.721  21.587  0.00  0.00    +0.000 A 
ATOM     10  C   UNL     1       1.614   3.611  20.556  0.00  0.00    +0.000 A 
BRANCH  10  11
ATOM     11  O   UNL     1       0.380   4.195  20.462  0.00  0.00    +0.000 OA
ATOM     12  H   UNL     1      -0.209   3.613  19.948  0.00  0.00    +0.000 HD
ENDBRANCH  10  11
ENDBRANCH   2   5
BRANCH   1  14
ATOM     13  C   UNL     1       2.419   8.108  17.890  0.00  0.00    +0.000 C 
ATOM     14  C   UNL     1       3.328   6.952  17.475  0.00  0.00    +0.000 C 
BRANCH  14  15
ATOM     15  C   UNL     1       4.756   7.464  17.185  0.00  0.00    +0.000 C 
BRANCH  15  16
ATOM     16  C   UNL     1       5.780   6.364  17.012  0.00  0.00    +0.000 A 
ATOM     17  C   UNL     1       5.849   5.617  15.833  0.00  0.00    +0.000 A 
ATOM     18  C   UNL     1       6.802   4.615  15.733  0.00  0.00    +0.000 A 
ATOM     19  N   UNL     1       7.684   4.313  16.709  0.00  0.00    +0.000 NA
ATOM     20  C   UNL     1       7.607   5.049  17.836  0.00  0.00    +0.000 A 
ATOM     21  C   UNL     1       6.689   6.071  18.033  0.00  0.00    +0.000 A 
ENDBRANCH  15  16
ENDBRANCH  14  15
ENDBRANCH   1  14
TORSDOF 5
ENDMDL
MODEL 9
REMARK VINA RESULT:      -6.4      1.111      1.623
REMARK  Name = 
REMARK  6 active torsions:
REMARK  status: ('A' for Active; 'I' for Inactive)
REMARK    1  A    between atoms: C_1  and  C_2
REMARK    2  A    between atoms: C_2  and  C_3
REMARK    3  A    between atoms: C_2  and  N_10
REMARK    4  A    between atoms: C_3  and  C_4
REMARK    5  A    between atoms: C_11  and  C_13
REMARK    6  A    between atoms: C_18  and  O_19
REMARK                            x       y       z     vdW  Elec       q    Type
REMARK                         _______ _______ _______ _____ _____    ______ ____
ROOT
ATOM      1  N   UNL     1       3.319   5.937  18.527  0.00  0.00    +0.000 N 
ATOM      2  C   UNL     1       2.496   4.836  18.502  0.00  0.00    +0.000 C 
ATOM      3  O   UNL     1       1.696   4.621  17.598  0.00  0.00    +0.000 OA
ATOM      4  H   UNL     1       3.924   6.052  19.336  0.00  0.00    +0.000 HD
ENDROOT
BRANCH   2   5
ATOM      5  C   UNL     1       2.625   3.875  19.640  0.00  0.00    +0.000 A 
ATOM      6  C   UNL     1       3.856   3.226  19.791  0.00  0.00    +0.000 A 
ATOM      7  C   UNL     1       4.024   2.360  20.857  0.00  0.00    +0.000 A 
ATOM      8  N   UNL     1       3.061   2.095  21.764  0.00  0.00    +0.000 NA
ATOM      9  C   UNL     1       1.878   2.724  21.595  0.00  0.00    +0.000 A 
ATOM     10  C   UNL     1       1.607   3.611  20.562  0.00  0.00    +0.000 A 
BRANCH  10  11
ATOM     11  O   UNL     1       0.375   4.200  20.465  0.00  0.00    +0.000 OA
ATOM     12  H   UNL     1       0.443   5.128  20.755  0.00  0.00    +0.000 HD
ENDBRANCH  10  11
ENDBRANCH   2   5
BRANCH   1  14
ATOM     13  C   UNL     1       2.408   8.109  17.899  0.00  0.00    +0.000 C 
ATOM     14  C   UNL     1       3.317   6.953  17.487  0.00  0.00    +0.000 C 
BRANCH  14  15
ATOM     15  C   UNL     1       4.745   7.463  17.198  0.00  0.00    +0.000 C 
BRANCH  15  16
ATOM     16  C   UNL     1       5.770   6.362  17.032  0.00  0.00    +0.000 A 
ATOM     17  C   UNL     1       6.671   6.051  18.055  0.00  0.00    +0.000 A 
ATOM     18  C   UNL     1       7.595   5.039  17.845  0.00  0.00    +0.000 A 
ATOM     19  N   UNL     1       7.678   4.319  16.706  0.00  0.00    +0.000 NA
ATOM     20  C   UNL     1       6.797   4.629  15.734  0.00  0.00    +0.000 A 
ATOM     21  C   UNL     1       5.837   5.624  15.847  0.00  0.00    +0.000 A 
ENDBRANCH  15  16
ENDBRANCH  14  15
ENDBRANCH   1  14
TORSDOF 5
ENDMDL
