MODEL 1
REMARK VINA RESULT:      -7.7      0.000      0.000
REMARK  Name = 
REMARK  7 active torsions:
REMARK  status: ('A' for Active; 'I' for Inactive)
REMARK    1  A    between atoms: C_1  and  C_2
REMARK    2  A    between atoms: C_5  and  C_6
REMARK    3  A    between atoms: C_7  and  C_8
REMARK    4  A    between atoms: C_8  and  O_9
REMARK    5  A    between atoms: N_11  and  C_12
REMARK    6  A    between atoms: C_13  and  C_14
REMARK    7  A    between atoms: C_22  and  C_23
REMARK                            x       y       z     vdW  Elec       q    Type
REMARK                         _______ _______ _______ _____ _____    ______ ____
ROOT
ATOM      1  C   UNL     1       3.492   3.377  18.511  0.00  0.00    +0.000 A 
ATOM      2  C   UNL     1       3.337   2.058  19.018  0.00  0.00    +0.000 A 
ATOM      3  N   UNL     1       2.409   2.015  19.985  0.00  0.00    +0.000 NA
ATOM      4  N   UNL     1       1.967   3.284  20.084  0.00  0.00    +0.000 N 
ATOM      5  C   UNL     1       0.965   3.551  21.093  0.00  0.00    +0.000 C 
ATOM      6  C   UNL     1       2.586   4.175  19.223  0.00  0.00    +0.000 A 
ENDROOT
BRANCH   1  11
ATOM      7  C   UNL     1       8.169   5.983  19.724  0.00  0.00    +0.000 C 
ATOM      8  C   UNL     1       7.359   5.533  18.540  0.00  0.00    +0.000 A 
ATOM      9  N   UNL     1       6.229   4.920  18.715  0.00  0.00    +0.000 NA
ATOM     10  N   UNL     1       5.616   4.521  17.565  0.00  0.00    +0.000 N 
ATOM     11  C   UNL     1       4.408   3.856  17.417  0.00  0.00    +0.000 A 
ATOM     12  N   UNL     1       4.128   3.709  16.131  0.00  0.00    +0.000 NA
ATOM     13  C   UNL     1       5.165   4.269  15.436  0.00  0.00    +0.000 A 
ATOM     14  C   UNL     1       5.170   4.274  13.953  0.00  0.00    +0.000 C 
ATOM     15  C   UNL     1       6.093   4.784  16.310  0.00  0.00    +0.000 A 
ATOM     16  C   UNL     1       7.323   5.472  16.136  0.00  0.00    +0.000 A 
ATOM     17  O   UNL     1       7.825   5.762  15.065  0.00  0.00    +0.000 OA
ATOM     18  N   UNL     1       7.920   5.807  17.319  0.00  0.00    +0.000 N 
ATOM     19  H   UNL     1       8.795   6.302  17.243  0.00  0.00    +0.000 HD
ENDBRANCH   1  11
BRANCH   6  20
ATOM     20  C   UNL     1       2.345   5.640  19.202  0.00  0.00    +0.000 A 
ATOM     21  C   UNL     1       2.463   6.369  18.006  0.00  0.00    +0.000 A 
ATOM     22  C   UNL     1       2.181   7.740  17.948  0.00  0.00    +0.000 A 
ATOM     23  C   UNL     1       1.839   8.422  19.106  0.00  0.00    +0.000 A 
ATOM     24 CL   UNL     1       1.503  10.107  19.048  0.00  0.00    +0.000 Cl
ATOM     25  C   UNL     1       1.753   7.738  20.313  0.00  0.00    +0.000 A 
ATOM     26  C   UNL     1       1.975   6.354  20.352  0.00  0.00    +0.000 A 
ENDBRANCH   6  20
BRANCH   2  27
ATOM     27  C   UNL     1       3.993   0.774  18.609  0.00  0.00    +0.000 C 
BRANCH  27  28
ATOM     28  O   UNL     1       5.028   0.371  19.516  0.00  0.00    +0.000 OA
ATOM     29  H   UNL     1       5.783   0.942  19.276  0.00  0.00    +0.000 HD
ENDBRANCH  27  28
ENDBRANCH   2  27
TORSDOF 4
ENDMDL
MODEL 2
REMARK VINA RESULT:      -7.6      0.980      2.506
REMARK  Name = 
REMARK  7 active torsions:
REMARK  status: ('A' for Active; 'I' for Inactive)
REMARK    1  A    between atoms: C_1  and  C_2
REMARK    2  A    between atoms: C_5  and  C_6
REMARK    3  A    between atoms: C_7  and  C_8
REMARK    4  A    between atoms: C_8  and  O_9
REMARK    5  A    between atoms: N_11  and  C_12
REMARK    6  A    between atoms: C_13  and  C_14
REMARK    7  A    between atoms: C_22  and  C_23
REMARK                            x       y       z     vdW  Elec       q    Type
REMARK                         _______ _______ _______ _____ _____    ______ ____
ROOT
ATOM      1  C   UNL     1       3.846   4.094  18.944  0.00  0.00    +0.000 A 
ATOM      2  C   UNL     1       3.649   2.713  19.220  0.00  0.00    +0.000 A 
ATOM      3  N   UNL     1       2.430   2.489  19.731  0.00  0.00    +0.000 NA
ATOM      4  N   UNL     1       1.851   3.705  19.767  0.00  0.00    +0.000 N 
ATOM      5  C   UNL     1       0.514   3.778  20.317  0.00  0.00    +0.000 C 
ATOM      6  C   UNL     1       2.656   4.737  19.311  0.00  0.00    +0.000 A 
ENDROOT
BRANCH   1  11
ATOM      7  C   UNL     1       4.897   3.736  13.569  0.00  0.00    +0.000 C 
ATOM      8  C   UNL     1       5.466   4.322  14.830  0.00  0.00    +0.000 A 
ATOM      9  N   UNL     1       4.862   4.145  15.964  0.00  0.00    +0.000 NA
ATOM     10  N   UNL     1       5.451   4.767  17.024  0.00  0.00    +0.000 N 
ATOM     11  C   UNL     1       5.057   4.765  18.354  0.00  0.00    +0.000 A 
ATOM     12  N   UNL     1       5.934   5.435  19.086  0.00  0.00    +0.000 NA
ATOM     13  C   UNL     1       6.898   5.889  18.228  0.00  0.00    +0.000 A 
ATOM     14  C   UNL     1       8.043   6.688  18.726  0.00  0.00    +0.000 C 
ATOM     15  C   UNL     1       6.618   5.477  16.947  0.00  0.00    +0.000 A 
ATOM     16  C   UNL     1       7.276   5.647  15.699  0.00  0.00    +0.000 A 
ATOM     17  O   UNL     1       8.320   6.250  15.527  0.00  0.00    +0.000 OA
ATOM     18  N   UNL     1       6.619   5.045  14.662  0.00  0.00    +0.000 N 
ATOM     19  H   UNL     1       7.055   5.136  13.757  0.00  0.00    +0.000 HD
ENDBRANCH   1  11
BRANCH   6  20
ATOM     20  C   UNL     1       2.286   6.175  19.336  0.00  0.00    +0.000 A 
ATOM     21  C   UNL     1       2.359   6.953  18.168  0.00  0.00    +0.000 A 
ATOM     22  C   UNL     1       1.957   8.296  18.152  0.00  0.00    +0.000 A 
ATOM     23  C   UNL     1       1.538   8.903  19.327  0.00  0.00    +0.000 A 
ATOM     24 CL   UNL     1       1.055  10.553  19.320  0.00  0.00    +0.000 Cl
ATOM     25  C   UNL     1       1.493   8.171  20.508  0.00  0.00    +0.000 A 
ATOM     26  C   UNL     1       1.836   6.812  20.503  0.00  0.00    +0.000 A 
ENDBRANCH   6  20
BRANCH   2  27
ATOM     27  C   UNL     1       4.545   1.536  18.985  0.00  0.00    +0.000 C 
BRANCH  27  28
ATOM     28  O   UNL     1       5.343   1.212  20.131  0.00  0.00    +0.000 OA
ATOM     29  H   UNL     1       6.082   0.691  19.761  0.00  0.00    +0.000 HD
ENDBRANCH  27  28
ENDBRANCH   2  27
TORSDOF 4
ENDMDL
MODEL 3
REMARK VINA RESULT:      -7.5      0.852      1.253
REMARK  Name = 
REMARK  7 active torsions:
REMARK  status: ('A' for Active; 'I' for Inactive)
REMARK    1  A    between atoms: C_1  and  C_2
REMARK    2  A    between atoms: C_5  and  C_6
REMARK    3  A    between atoms: C_7  and  C_8
REMARK    4  A    between atoms: C_8  and  O_9
REMARK    5  A    between atoms: N_11  and  C_12
REMARK    6  A    between atoms: C_13  and  C_14
REMARK    7  A    between atoms: C_22  and  C_23
REMARK                            x       y       z     vdW  Elec       q    Type
REMARK                         _______ _______ _______ _____ _____    ______ ____
ROOT
ATOM      1  C   UNL     1       3.959   3.722  18.769  0.00  0.00    +0.000 A 
ATOM      2  C   UNL     1       3.964   2.544  19.565  0.00  0.00    +0.000 A 
ATOM      3  N   UNL     1       3.138   2.663  20.614  0.00  0.00    +0.000 NA
ATOM      4  N   UNL     1       2.601   3.892  20.483  0.00  0.00    +0.000 N 
ATOM      5  C   UNL     1       1.678   4.317  21.513  0.00  0.00    +0.000 C 
ATOM      6  C   UNL     1       3.059   4.603  19.386  0.00  0.00    +0.000 A 
ENDROOT
BRANCH   1  11
ATOM      7  C   UNL     1       8.149   7.268  18.757  0.00  0.00    +0.000 C 
ATOM      8  C   UNL     1       7.379   6.371  17.829  0.00  0.00    +0.000 A 
ATOM      9  N   UNL     1       6.386   5.666  18.275  0.00  0.00    +0.000 NA
ATOM     10  N   UNL     1       5.802   4.858  17.346  0.00  0.00    +0.000 N 
ATOM     11  C   UNL     1       4.726   3.998  17.504  0.00  0.00    +0.000 A 
ATOM     12  N   UNL     1       4.418   3.440  16.344  0.00  0.00    +0.000 NA
ATOM     13  C   UNL     1       5.308   3.927  15.424  0.00  0.00    +0.000 A 
ATOM     14  C   UNL     1       5.245   3.500  14.006  0.00  0.00    +0.000 C 
ATOM     15  C   UNL     1       6.167   4.814  16.028  0.00  0.00    +0.000 A 
ATOM     16  C   UNL     1       7.247   5.606  15.553  0.00  0.00    +0.000 A 
ATOM     17  O   UNL     1       7.641   5.645  14.401  0.00  0.00    +0.000 OA
ATOM     18  N   UNL     1       7.828   6.360  16.533  0.00  0.00    +0.000 N 
ATOM     19  H   UNL     1       8.597   6.942  16.239  0.00  0.00    +0.000 HD
ENDBRANCH   1  11
BRANCH   6  20
ATOM     20  C   UNL     1       2.694   6.008  19.073  0.00  0.00    +0.000 A 
ATOM     21  C   UNL     1       2.190   6.856  20.074  0.00  0.00    +0.000 A 
ATOM     22  C   UNL     1       1.896   8.202  19.819  0.00  0.00    +0.000 A 
ATOM     23  C   UNL     1       2.038   8.706  18.534  0.00  0.00    +0.000 A 
ATOM     24 CL   UNL     1       1.668  10.353  18.208  0.00  0.00    +0.000 Cl
ATOM     25  C   UNL     1       2.495   7.882  17.513  0.00  0.00    +0.000 A 
ATOM     26  C   UNL     1       2.847   6.553  17.790  0.00  0.00    +0.000 A 
ENDBRANCH   6  20
BRANCH   2  27
ATOM     27  C   UNL     1       4.685   1.244  19.377  0.00  0.00    +0.000 C 
BRANCH  27  28
ATOM     28  O   UNL     1       4.332   0.590  18.151  0.00  0.00    +0.000 OA
ATOM     29  H   UNL     1       3.461   0.191  18.342  0.00  0.00    +0.000 HD
ENDBRANCH  27  28
ENDBRANCH   2  27
TORSDOF 4
ENDMDL
MODEL 4
REMARK VINA RESULT:      -7.4      8.056     10.737
REMARK  Name = 
REMARK  7 active torsions:
REMARK  status: ('A' for Active; 'I' for Inactive)
REMARK    1  A    between atoms: C_1  and  C_2
REMARK    2  A    between atoms: C_5  and  C_6
REMARK    3  A    between atoms: C_7  and  C_8
REMARK    4  A    between atoms: C_8  and  O_9
REMARK    5  A    between atoms: N_11  and  C_12
REMARK    6  A    between atoms: C_13  and  C_14
REMARK    7  A    between atoms: C_22  and  C_23
REMARK                            x       y       z     vdW  Elec       q    Type
REMARK                         _______ _______ _______ _____ _____    ______ ____
ROOT
ATOM      1  C   UNL     1      -1.379  12.980  21.264  0.00  0.00    +0.000 A 
ATOM      2  C   UNL     1      -1.112  12.458  22.560  0.00  0.00    +0.000 A 
ATOM      3  N   UNL     1      -0.582  13.393  23.360  0.00  0.00    +0.000 NA
ATOM      4  N   UNL     1      -0.525  14.500  22.594  0.00  0.00    +0.000 N 
ATOM      5  C   UNL     1       0.049  15.685  23.196  0.00  0.00    +0.000 C 
ATOM      6  C   UNL     1      -0.985  14.325  21.299  0.00  0.00    +0.000 A 
ENDROOT
BRANCH   1  11
ATOM      7  C   UNL     1       1.638   9.562  18.206  0.00  0.00    +0.000 C 
ATOM      8  C   UNL     1       0.252  10.138  18.287  0.00  0.00    +0.000 A 
ATOM      9  N   UNL     1      -0.054  10.977  19.227  0.00  0.00    +0.000 NA
ATOM     10  N   UNL     1      -1.354  11.387  19.220  0.00  0.00    +0.000 N 
ATOM     11  C   UNL     1      -1.984  12.276  20.079  0.00  0.00    +0.000 A 
ATOM     12  N   UNL     1      -3.237  12.462  19.698  0.00  0.00    +0.000 NA
ATOM     13  C   UNL     1      -3.433  11.681  18.591  0.00  0.00    +0.000 A 
ATOM     14  C   UNL     1      -4.746  11.652  17.904  0.00  0.00    +0.000 C 
ATOM     15  C   UNL     1      -2.273  11.014  18.277  0.00  0.00    +0.000 A 
ATOM     16  C   UNL     1      -1.915  10.106  17.244  0.00  0.00    +0.000 A 
ATOM     17  O   UNL     1      -2.654   9.722  16.355  0.00  0.00    +0.000 OA
ATOM     18  N   UNL     1      -0.616   9.689  17.324  0.00  0.00    +0.000 N 
ATOM     19  H   UNL     1      -0.318   9.047  16.607  0.00  0.00    +0.000 HD
ENDBRANCH   1  11
BRANCH   6  20
ATOM     20  C   UNL     1      -0.941  15.361  20.236  0.00  0.00    +0.000 A 
ATOM     21  C   UNL     1      -1.917  16.370  20.179  0.00  0.00    +0.000 A 
ATOM     22  C   UNL     1      -1.863  17.394  19.223  0.00  0.00    +0.000 A 
ATOM     23  C   UNL     1      -0.862  17.386  18.263  0.00  0.00    +0.000 A 
ATOM     24 CL   UNL     1      -0.795  18.631  17.078  0.00  0.00    +0.000 Cl
ATOM     25  C   UNL     1       0.095  16.379  18.267  0.00  0.00    +0.000 A 
ATOM     26  C   UNL     1       0.070  15.394  19.264  0.00  0.00    +0.000 A 
ENDBRANCH   6  20
BRANCH   2  27
ATOM     27  C   UNL     1      -1.373  11.100  23.135  0.00  0.00    +0.000 C 
BRANCH  27  28
ATOM     28  O   UNL     1      -0.167  10.377  23.412  0.00  0.00    +0.000 OA
ATOM     29  H   UNL     1      -0.321   9.501  23.009  0.00  0.00    +0.000 HD
ENDBRANCH  27  28
ENDBRANCH   2  27
TORSDOF 4
ENDMDL
MODEL 5
REMARK VINA RESULT:      -7.2      7.852     10.680
REMARK  Name = 
REMARK  7 active torsions:
REMARK  status: ('A' for Active; 'I' for Inactive)
REMARK    1  A    between atoms: C_1  and  C_2
REMARK    2  A    between atoms: C_5  and  C_6
REMARK    3  A    between atoms: C_7  and  C_8
REMARK    4  A    between atoms: C_8  and  O_9
REMARK    5  A    between atoms: N_11  and  C_12
REMARK    6  A    between atoms: C_13  and  C_14
REMARK    7  A    between atoms: C_22  and  C_23
REMARK                            x       y       z     vdW  Elec       q    Type
REMARK                         _______ _______ _______ _____ _____    ______ ____
ROOT
ATOM      1  C   UNL     1      -0.663  12.689  21.310  0.00  0.00    +0.000 A 
ATOM      2  C   UNL     1      -0.928  12.313  22.656  0.00  0.00    +0.000 A 
ATOM      3  N   UNL     1      -0.852  13.368  23.479  0.00  0.00    +0.000 NA
ATOM      4  N   UNL     1      -0.559  14.406  22.671  0.00  0.00    +0.000 N 
ATOM      5  C   UNL     1      -0.378  15.696  23.301  0.00  0.00    +0.000 C 
ATOM      6  C   UNL     1      -0.419  14.069  21.334  0.00  0.00    +0.000 A 
ENDROOT
BRANCH   1  11
ATOM      7  C   UNL     1      -5.210  12.121  18.289  0.00  0.00    +0.000 C 
ATOM      8  C   UNL     1      -3.786  11.647  18.351  0.00  0.00    +0.000 A 
ATOM      9  N   UNL     1      -3.004  12.046  19.305  0.00  0.00    +0.000 NA
ATOM     10  N   UNL     1      -1.724  11.584  19.221  0.00  0.00    +0.000 N 
ATOM     11  C   UNL     1      -0.662  11.821  20.080  0.00  0.00    +0.000 A 
ATOM     12  N   UNL     1       0.400  11.136  19.687  0.00  0.00    +0.000 NA
ATOM     13  C   UNL     1       0.034  10.458  18.556  0.00  0.00    +0.000 A 
ATOM     14  C   UNL     1       1.001   9.584  17.849  0.00  0.00    +0.000 C 
ATOM     15  C   UNL     1      -1.282  10.719  18.257  0.00  0.00    +0.000 A 
ATOM     16  C   UNL     1      -2.157  10.278  17.229  0.00  0.00    +0.000 A 
ATOM     17  O   UNL     1      -1.864   9.503  16.336  0.00  0.00    +0.000 OA
ATOM     18  N   UNL     1      -3.413  10.807  17.332  0.00  0.00    +0.000 N 
ATOM     19  H   UNL     1      -4.069  10.517  16.624  0.00  0.00    +0.000 HD
ENDBRANCH   1  11
BRANCH   6  20
ATOM     20  C   UNL     1      -0.008  15.010  20.262  0.00  0.00    +0.000 A 
ATOM     21  C   UNL     1      -0.947  15.864  19.658  0.00  0.00    +0.000 A 
ATOM     22  C   UNL     1      -0.573  16.803  18.688  0.00  0.00    +0.000 A 
ATOM     23  C   UNL     1       0.744  16.857  18.255  0.00  0.00    +0.000 A 
ATOM     24 CL   UNL     1       1.210  17.997  17.055  0.00  0.00    +0.000 Cl
ATOM     25  C   UNL     1       1.689  15.998  18.802  0.00  0.00    +0.000 A 
ATOM     26  C   UNL     1       1.320  15.105  19.817  0.00  0.00    +0.000 A 
ENDBRANCH   6  20
BRANCH   2  27
ATOM     27  C   UNL     1      -1.307  10.986  23.239  0.00  0.00    +0.000 C 
BRANCH  27  28
ATOM     28  O   UNL     1      -0.167  10.191  23.589  0.00  0.00    +0.000 OA
ATOM     29  H   UNL     1       0.572  10.830  23.589  0.00  0.00    +0.000 HD
ENDBRANCH  27  28
ENDBRANCH   2  27
TORSDOF 4
ENDMDL
MODEL 6
REMARK VINA RESULT:      -6.9      8.601     11.290
REMARK  Name = 
REMARK  7 active torsions:
REMARK  status: ('A' for Active; 'I' for Inactive)
REMARK    1  A    between atoms: C_1  and  C_2
REMARK    2  A    between atoms: C_5  and  C_6
REMARK    3  A    between atoms: C_7  and  C_8
REMARK    4  A    between atoms: C_8  and  O_9
REMARK    5  A    between atoms: N_11  and  C_12
REMARK    6  A    between atoms: C_13  and  C_14
REMARK    7  A    between atoms: C_22  and  C_23
REMARK                            x       y       z     vdW  Elec       q    Type
REMARK                         _______ _______ _______ _____ _____    ______ ____
ROOT
ATOM      1  C   UNL     1      -1.998  13.384  21.445  0.00  0.00    +0.000 A 
ATOM      2  C   UNL     1      -1.975  12.972  22.806  0.00  0.00    +0.000 A 
ATOM      3  N   UNL     1      -1.457  13.925  23.594  0.00  0.00    +0.000 NA
ATOM      4  N   UNL     1      -1.168  14.937  22.753  0.00  0.00    +0.000 N 
ATOM      5  C   UNL     1      -0.553  16.113  23.330  0.00  0.00    +0.000 C 
ATOM      6  C   UNL     1      -1.462  14.679  21.423  0.00  0.00    +0.000 A 
ENDROOT
BRANCH   1  11
ATOM      7  C   UNL     1       1.374  10.213  18.494  0.00  0.00    +0.000 C 
ATOM      8  C   UNL     1      -0.056  10.674  18.532  0.00  0.00    +0.000 A 
ATOM      9  N   UNL     1      -0.457  11.489  19.458  0.00  0.00    +0.000 NA
ATOM     10  N   UNL     1      -1.785  11.791  19.412  0.00  0.00    +0.000 N 
ATOM     11  C   UNL     1      -2.509  12.628  20.248  0.00  0.00    +0.000 A 
ATOM     12  N   UNL     1      -3.762  12.710  19.830  0.00  0.00    +0.000 NA
ATOM     13  C   UNL     1      -3.862  11.911  18.723  0.00  0.00    +0.000 A 
ATOM     14  C   UNL     1      -5.148  11.773  18.000  0.00  0.00    +0.000 C 
ATOM     15  C   UNL     1      -2.642  11.340  18.446  0.00  0.00    +0.000 A 
ATOM     16  C   UNL     1      -2.183  10.462  17.429  0.00  0.00    +0.000 A 
ATOM     17  O   UNL     1      -2.862  10.015  16.522  0.00  0.00    +0.000 OA
ATOM     18  N   UNL     1      -0.857  10.152  17.548  0.00  0.00    +0.000 N 
ATOM     19  H   UNL     1      -0.487   9.534  16.843  0.00  0.00    +0.000 HD
ENDBRANCH   1  11
BRANCH   6  20
ATOM     20  C   UNL     1      -1.153  15.593  20.294  0.00  0.00    +0.000 A 
ATOM     21  C   UNL     1      -0.044  15.356  19.464  0.00  0.00    +0.000 A 
ATOM     22  C   UNL     1       0.234  16.167  18.356  0.00  0.00    +0.000 A 
ATOM     23  C   UNL     1      -0.560  17.276  18.099  0.00  0.00    +0.000 A 
ATOM     24 CL   UNL     1      -0.220  18.285  16.749  0.00  0.00    +0.000 Cl
ATOM     25  C   UNL     1      -1.640  17.562  18.926  0.00  0.00    +0.000 A 
ATOM     26  C   UNL     1      -1.949  16.709  19.995  0.00  0.00    +0.000 A 
ENDBRANCH   6  20
BRANCH   2  27
ATOM     27  C   UNL     1      -2.466  11.711  23.450  0.00  0.00    +0.000 C 
BRANCH  27  28
ATOM     28  O   UNL     1      -3.748  11.873  24.070  0.00  0.00    +0.000 OA
ATOM     29  H   UNL     1      -4.380  11.764  23.334  0.00  0.00    +0.000 HD
ENDBRANCH  27  28
ENDBRANCH   2  27
TORSDOF 4
ENDMDL
MODEL 7
REMARK VINA RESULT:      -6.9      7.773     11.140
REMARK  Name = 
REMARK  7 active torsions:
REMARK  status: ('A' for Active; 'I' for Inactive)
REMARK    1  A    between atoms: C_1  and  C_2
REMARK    2  A    between atoms: C_5  and  C_6
REMARK    3  A    between atoms: C_7  and  C_8
REMARK    4  A    between atoms: C_8  and  O_9
REMARK    5  A    between atoms: N_11  and  C_12
REMARK    6  A    between atoms: C_13  and  C_14
REMARK    7  A    between atoms: C_22  and  C_23
REMARK                            x       y       z     vdW  Elec       q    Type
REMARK                         _______ _______ _______ _____ _____    ______ ____
ROOT
ATOM      1  C   UNL     1      -0.348  13.485  19.160  0.00  0.00    +0.000 A 
ATOM      2  C   UNL     1       0.078  14.818  18.906  0.00  0.00    +0.000 A 
ATOM      3  N   UNL     1       1.408  14.882  18.755  0.00  0.00    +0.000 NA
ATOM      4  N   UNL     1       1.825  13.608  18.894  0.00  0.00    +0.000 N 
ATOM      5  C   UNL     1       3.251  13.373  18.812  0.00  0.00    +0.000 C 
ATOM      6  C   UNL     1       0.812  12.699  19.151  0.00  0.00    +0.000 A 
ENDROOT
BRANCH   1  11
ATOM      7  C   UNL     1      -2.786  10.357  15.365  0.00  0.00    +0.000 C 
ATOM      8  C   UNL     1      -3.054  10.986  16.703  0.00  0.00    +0.000 A 
ATOM      9  N   UNL     1      -2.143  11.707  17.281  0.00  0.00    +0.000 NA
ATOM     10  N   UNL     1      -2.490  12.180  18.511  0.00  0.00    +0.000 N 
ATOM     11  C   UNL     1      -1.749  12.977  19.371  0.00  0.00    +0.000 A 
ATOM     12  N   UNL     1      -2.466  13.276  20.442  0.00  0.00    +0.000 NA
ATOM     13  C   UNL     1      -3.679  12.659  20.289  0.00  0.00    +0.000 A 
ATOM     14  C   UNL     1      -4.733  12.789  21.323  0.00  0.00    +0.000 C 
ATOM     15  C   UNL     1      -3.713  11.982  19.093  0.00  0.00    +0.000 A 
ATOM     16  C   UNL     1      -4.705  11.204  18.438  0.00  0.00    +0.000 A 
ATOM     17  O   UNL     1      -5.823  10.979  18.866  0.00  0.00    +0.000 OA
ATOM     18  N   UNL     1      -4.290  10.714  17.232  0.00  0.00    +0.000 N 
ATOM     19  H   UNL     1      -4.965  10.160  16.729  0.00  0.00    +0.000 HD
ENDBRANCH   1  11
BRANCH   6  20
ATOM     20  C   UNL     1       1.020  11.256  19.435  0.00  0.00    +0.000 A 
ATOM     21  C   UNL     1       1.400  10.372  18.410  0.00  0.00    +0.000 A 
ATOM     22  C   UNL     1       1.662   9.019  18.664  0.00  0.00    +0.000 A 
ATOM     23  C   UNL     1       1.482   8.512  19.943  0.00  0.00    +0.000 A 
ATOM     24 CL   UNL     1       1.788   6.850  20.262  0.00  0.00    +0.000 Cl
ATOM     25  C   UNL     1       1.067   9.351  20.970  0.00  0.00    +0.000 A 
ATOM     26  C   UNL     1       0.868  10.717  20.721  0.00  0.00    +0.000 A 
ENDBRANCH   6  20
BRANCH   2  27
ATOM     27  C   UNL     1      -0.714  16.079  18.744  0.00  0.00    +0.000 C 
BRANCH  27  28
ATOM     28  O   UNL     1      -1.788  16.181  19.688  0.00  0.00    +0.000 OA
ATOM     29  H   UNL     1      -1.343  16.417  20.525  0.00  0.00    +0.000 HD
ENDBRANCH  27  28
ENDBRANCH   2  27
TORSDOF 4
ENDMDL
MODEL 8
REMARK VINA RESULT:      -6.8      8.998     12.094
REMARK  Name = 
REMARK  7 active torsions:
REMARK  status: ('A' for Active; 'I' for Inactive)
REMARK    1  A    between atoms: C_1  and  C_2
REMARK    2  A    between atoms: C_5  and  C_6
REMARK    3  A    between atoms: C_7  and  C_8
REMARK    4  A    between atoms: C_8  and  O_9
REMARK    5  A    between atoms: N_11  and  C_12
REMARK    6  A    between atoms: C_13  and  C_14
REMARK    7  A    between atoms: C_22  and  C_23
REMARK                            x       y       z     vdW  Elec       q    Type
REMARK                         _______ _______ _______ _____ _____    ______ ____
ROOT
ATOM      1  C   UNL     1       9.058  15.318  19.558  0.00  0.00    +0.000 A 
ATOM      2  C   UNL     1       9.882  16.471  19.451  0.00  0.00    +0.000 A 
ATOM      3  N   UNL     1      11.027  16.193  18.812  0.00  0.00    +0.000 NA
ATOM      4  N   UNL     1      10.930  14.885  18.501  0.00  0.00    +0.000 N 
ATOM      5  C   UNL     1      12.060  14.288  17.822  0.00  0.00    +0.000 C 
ATOM      6  C   UNL     1       9.760  14.279  18.930  0.00  0.00    +0.000 A 
ENDROOT
BRANCH   1  11
ATOM      7  C   UNL     1       8.253  12.073  23.912  0.00  0.00    +0.000 C 
ATOM      8  C   UNL     1       7.502  12.989  22.987  0.00  0.00    +0.000 A 
ATOM      9  N   UNL     1       8.119  13.587  22.015  0.00  0.00    +0.000 NA
ATOM     10  N   UNL     1       7.338  14.428  21.280  0.00  0.00    +0.000 N 
ATOM     11  C   UNL     1       7.694  15.199  20.183  0.00  0.00    +0.000 A 
ATOM     12  N   UNL     1       6.630  15.829  19.709  0.00  0.00    +0.000 NA
ATOM     13  C   UNL     1       5.576  15.479  20.509  0.00  0.00    +0.000 A 
ATOM     14  C   UNL     1       4.218  16.016  20.254  0.00  0.00    +0.000 C 
ATOM     15  C   UNL     1       5.997  14.605  21.483  0.00  0.00    +0.000 A 
ATOM     16  C   UNL     1       5.333  13.929  22.542  0.00  0.00    +0.000 A 
ATOM     17  O   UNL     1       4.146  14.010  22.798  0.00  0.00    +0.000 OA
ATOM     18  N   UNL     1       6.170  13.136  23.278  0.00  0.00    +0.000 N 
ATOM     19  H   UNL     1       5.739  12.633  24.038  0.00  0.00    +0.000 HD
ENDBRANCH   1  11
BRANCH   6  20
ATOM     20  C   UNL     1       9.456  12.832  18.795  0.00  0.00    +0.000 A 
ATOM     21  C   UNL     1       9.960  11.904  19.722  0.00  0.00    +0.000 A 
ATOM     22  C   UNL     1       9.637  10.543  19.651  0.00  0.00    +0.000 A 
ATOM     23  C   UNL     1       8.854  10.075  18.606  0.00  0.00    +0.000 A 
ATOM     24 CL   UNL     1       8.462   8.404  18.503  0.00  0.00    +0.000 Cl
ATOM     25  C   UNL     1       8.373  10.961  17.649  0.00  0.00    +0.000 A 
ATOM     26  C   UNL     1       8.648  12.331  17.763  0.00  0.00    +0.000 A 
ENDBRANCH   6  20
BRANCH   2  27
ATOM     27  C   UNL     1       9.640  17.885  19.884  0.00  0.00    +0.000 C 
BRANCH  27  28
ATOM     28  O   UNL     1       8.474  18.456  19.276  0.00  0.00    +0.000 OA
ATOM     29  H   UNL     1       7.769  17.810  19.471  0.00  0.00    +0.000 HD
ENDBRANCH  27  28
ENDBRANCH   2  27
TORSDOF 4
ENDMDL
MODEL 9
REMARK VINA RESULT:      -6.8     10.306     12.382
REMARK  Name = 
REMARK  7 active torsions:
REMARK  status: ('A' for Active; 'I' for Inactive)
REMARK    1  A    between atoms: C_1  and  C_2
REMARK    2  A    between atoms: C_5  and  C_6
REMARK    3  A    between atoms: C_7  and  C_8
REMARK    4  A    between atoms: C_8  and  O_9
REMARK    5  A    between atoms: N_11  and  C_12
REMARK    6  A    between atoms: C_13  and  C_14
REMARK    7  A    between atoms: C_22  and  C_23
REMARK                            x       y       z     vdW  Elec       q    Type
REMARK                         _______ _______ _______ _____ _____    ______ ____
ROOT
ATOM      1  C   UNL     1      -1.666  13.520  21.380  0.00  0.00    +0.000 A 
ATOM      2  C   UNL     1      -1.468  13.039  22.704  0.00  0.00    +0.000 A 
ATOM      3  N   UNL     1      -0.802  13.931  23.451  0.00  0.00    +0.000 NA
ATOM      4  N   UNL     1      -0.592  14.974  22.623  0.00  0.00    +0.000 N 
ATOM      5  C   UNL     1       0.150  16.095  23.158  0.00  0.00    +0.000 C 
ATOM      6  C   UNL     1      -1.083  14.794  21.340  0.00  0.00    +0.000 A 
ENDROOT
BRANCH   1  11
ATOM      7  C   UNL     1      -7.056  12.518  21.636  0.00  0.00    +0.000 C 
ATOM      8  C   UNL     1      -5.876  12.319  20.727  0.00  0.00    +0.000 A 
ATOM      9  N   UNL     1      -4.698  12.725  21.086  0.00  0.00    +0.000 NA
ATOM     10  N   UNL     1      -3.722  12.530  20.155  0.00  0.00    +0.000 N 
ATOM     11  C   UNL     1      -2.374  12.845  20.237  0.00  0.00    +0.000 A 
ATOM     12  N   UNL     1      -1.746  12.435  19.146  0.00  0.00    +0.000 NA
ATOM     13  C   UNL     1      -2.692  11.861  18.340  0.00  0.00    +0.000 A 
ATOM     14  C   UNL     1      -2.322  11.292  17.022  0.00  0.00    +0.000 C 
ATOM     15  C   UNL     1      -3.921  11.905  18.953  0.00  0.00    +0.000 A 
ATOM     16  C   UNL     1      -5.216  11.451  18.584  0.00  0.00    +0.000 A 
ATOM     17  O   UNL     1      -5.493  10.876  17.546  0.00  0.00    +0.000 OA
ATOM     18  N   UNL     1      -6.165  11.713  19.531  0.00  0.00    +0.000 N 
ATOM     19  H   UNL     1      -7.099  11.403  19.311  0.00  0.00    +0.000 HD
ENDBRANCH   1  11
BRANCH   6  20
ATOM     20  C   UNL     1      -0.898  15.752  20.220  0.00  0.00    +0.000 A 
ATOM     21  C   UNL     1       0.232  15.671  19.388  0.00  0.00    +0.000 A 
ATOM     22  C   UNL     1       0.400  16.524  18.289  0.00  0.00    +0.000 A 
ATOM     23  C   UNL     1      -0.534  17.520  18.042  0.00  0.00    +0.000 A 
ATOM     24 CL   UNL     1      -0.331  18.579  16.703  0.00  0.00    +0.000 Cl
ATOM     25  C   UNL     1      -1.642  17.653  18.871  0.00  0.00    +0.000 A 
ATOM     26  C   UNL     1      -1.834  16.756  19.931  0.00  0.00    +0.000 A 
ENDBRANCH   6  20
BRANCH   2  27
ATOM     27  C   UNL     1      -1.917  11.766  23.355  0.00  0.00    +0.000 C 
BRANCH  27  28
ATOM     28  O   UNL     1      -3.316  11.771  23.667  0.00  0.00    +0.000 OA
ATOM     29  H   UNL     1      -3.722  12.240  22.913  0.00  0.00    +0.000 HD
ENDBRANCH  27  28
ENDBRANCH   2  27
TORSDOF 4
ENDMDL
