MODEL 1
REMARK VINA RESULT:      -8.2      0.000      0.000
REMARK  Name = 
REMARK  5 active torsions:
REMARK  status: ('A' for Active; 'I' for Inactive)
REMARK    1  A    between atoms: C_2  and  C_3
REMARK    2  A    between atoms: C_3  and  O_4
REMARK    3  A    between atoms: O_4  and  C_5
REMARK    4  A    between atoms: C_5  and  C_6
REMARK    5  A    between atoms: N_15  and  C_16
REMARK                            x       y       z     vdW  Elec       q    Type
REMARK                         _______ _______ _______ _____ _____    ______ ____
ROOT
ATOM      1  O   UNL     1       7.576   6.369  16.135  0.00  0.00    +0.000 OA
ATOM      2  C   UNL     1       6.750   5.520  15.787  0.00  0.00    +0.000 C 
ATOM      3  N   UNL     1       5.668   5.182  16.575  0.00  0.00    +0.000 N 
ATOM      4  C   UNL     1       4.678   4.144  16.259  0.00  0.00    +0.000 C 
ATOM      5  C   UNL     1       4.541   3.123  17.400  0.00  0.00    +0.000 C 
ATOM      6  N   UNL     1       4.319   3.810  18.684  0.00  0.00    +0.000 N 
ATOM      7  C   UNL     1       5.324   4.845  19.010  0.00  0.00    +0.000 C 
ATOM      8  C   UNL     1       5.441   5.859  17.855  0.00  0.00    +0.000 C 
ENDROOT
BRANCH   6   9
ATOM      9  C   UNL     1       3.319   3.442  19.567  0.00  0.00    +0.000 A 
ATOM     10  C   UNL     1       3.682   2.739  20.740  0.00  0.00    +0.000 A 
ATOM     11  C   UNL     1       2.749   2.369  21.712  0.00  0.00    +0.000 A 
ATOM     12  C   UNL     1       1.421   2.714  21.545  0.00  0.00    +0.000 A 
ATOM     13  F   UNL     1       0.524   2.372  22.479  0.00  0.00    +0.000 F 
ATOM     14  C   UNL     1       1.006   3.399  20.416  0.00  0.00    +0.000 A 
ATOM     15  C   UNL     1       1.939   3.745  19.429  0.00  0.00    +0.000 A 
ATOM     16 CL   UNL     1       1.251   4.457  18.001  0.00  0.00    +0.000 Cl
ENDBRANCH   6   9
BRANCH   2  17
ATOM     17  C   UNL     1       6.906   4.809  14.434  0.00  0.00    +0.000 C 
BRANCH  17  18
ATOM     18  O   UNL     1       7.954   5.278  13.600  0.00  0.00    +0.000 OA
BRANCH  18  19
ATOM     19  C   UNL     1       7.588   5.292  12.224  0.00  0.00    +0.000 C 
BRANCH  19  20
ATOM     20  C   UNL     1       6.978   3.957  11.892  0.00  0.00    +0.000 A 
ATOM     21  C   UNL     1       7.783   2.891  11.468  0.00  0.00    +0.000 A 
ATOM     22  C   UNL     1       7.213   1.656  11.152  0.00  0.00    +0.000 A 
ATOM     23  C   UNL     1       5.834   1.480  11.248  0.00  0.00    +0.000 A 
ATOM     24  C   UNL     1       5.024   2.539  11.654  0.00  0.00    +0.000 A 
ATOM     25  C   UNL     1       5.592   3.774  11.968  0.00  0.00    +0.000 A 
ENDBRANCH  19  20
ENDBRANCH  18  19
ENDBRANCH  17  18
ENDBRANCH   2  17
TORSDOF 5
ENDMDL
MODEL 2
REMARK VINA RESULT:      -8.0      0.298      1.008
REMARK  Name = 
REMARK  5 active torsions:
REMARK  status: ('A' for Active; 'I' for Inactive)
REMARK    1  A    between atoms: C_2  and  C_3
REMARK    2  A    between atoms: C_3  and  O_4
REMARK    3  A    between atoms: O_4  and  C_5
REMARK    4  A    between atoms: C_5  and  C_6
REMARK    5  A    between atoms: N_15  and  C_16
REMARK                            x       y       z     vdW  Elec       q    Type
REMARK                         _______ _______ _______ _____ _____    ______ ____
ROOT
ATOM      1  O   UNL     1       7.769   6.064  16.313  0.00  0.00    +0.000 OA
ATOM      2  C   UNL     1       6.876   5.301  15.931  0.00  0.00    +0.000 C 
ATOM      3  N   UNL     1       5.774   5.012  16.711  0.00  0.00    +0.000 N 
ATOM      4  C   UNL     1       4.702   4.073  16.353  0.00  0.00    +0.000 C 
ATOM      5  C   UNL     1       4.490   3.011  17.445  0.00  0.00    +0.000 C 
ATOM      6  N   UNL     1       4.330   3.650  18.762  0.00  0.00    +0.000 N 
ATOM      7  C   UNL     1       5.415   4.585  19.130  0.00  0.00    +0.000 C 
ATOM      8  C   UNL     1       5.607   5.641  18.024  0.00  0.00    +0.000 C 
ENDROOT
BRANCH   6   9
ATOM      9  C   UNL     1       3.307   3.320  19.635  0.00  0.00    +0.000 A 
ATOM     10  C   UNL     1       3.640   2.665  20.844  0.00  0.00    +0.000 A 
ATOM     11  C   UNL     1       2.683   2.337  21.807  0.00  0.00    +0.000 A 
ATOM     12  C   UNL     1       1.360   2.676  21.594  0.00  0.00    +0.000 A 
ATOM     13  F   UNL     1       0.439   2.374  22.518  0.00  0.00    +0.000 F 
ATOM     14  C   UNL     1       0.974   3.314  20.428  0.00  0.00    +0.000 A 
ATOM     15  C   UNL     1       1.932   3.619  19.451  0.00  0.00    +0.000 A 
ATOM     16 CL   UNL     1       1.280   4.271  17.978  0.00  0.00    +0.000 Cl
ENDBRANCH   6   9
BRANCH   2  17
ATOM     17  C   UNL     1       6.968   4.647  14.544  0.00  0.00    +0.000 C 
BRANCH  17  18
ATOM     18  O   UNL     1       7.008   5.536  13.437  0.00  0.00    +0.000 OA
BRANCH  18  19
ATOM     19  C   UNL     1       7.702   4.983  12.323  0.00  0.00    +0.000 C 
BRANCH  19  20
ATOM     20  C   UNL     1       6.964   3.748  11.883  0.00  0.00    +0.000 A 
ATOM     21  C   UNL     1       5.562   3.715  11.884  0.00  0.00    +0.000 A 
ATOM     22  C   UNL     1       4.881   2.564  11.484  0.00  0.00    +0.000 A 
ATOM     23  C   UNL     1       5.594   1.434  11.088  0.00  0.00    +0.000 A 
ATOM     24  C   UNL     1       6.988   1.452  11.098  0.00  0.00    +0.000 A 
ATOM     25  C   UNL     1       7.670   2.601  11.500  0.00  0.00    +0.000 A 
ENDBRANCH  19  20
ENDBRANCH  18  19
ENDBRANCH  17  18
ENDBRANCH   2  17
TORSDOF 5
ENDMDL
MODEL 3
REMARK VINA RESULT:      -7.7      1.180      1.780
REMARK  Name = 
REMARK  5 active torsions:
REMARK  status: ('A' for Active; 'I' for Inactive)
REMARK    1  A    between atoms: C_2  and  C_3
REMARK    2  A    between atoms: C_3  and  O_4
REMARK    3  A    between atoms: O_4  and  C_5
REMARK    4  A    between atoms: C_5  and  C_6
REMARK    5  A    between atoms: N_15  and  C_16
REMARK                            x       y       z     vdW  Elec       q    Type
REMARK                         _______ _______ _______ _____ _____    ______ ____
ROOT
ATOM      1  O   UNL     1       7.681   6.353  16.174  0.00  0.00    +0.000 OA
ATOM      2  C   UNL     1       6.708   5.667  15.849  0.00  0.00    +0.000 C 
ATOM      3  N   UNL     1       5.700   5.352  16.740  0.00  0.00    +0.000 N 
ATOM      4  C   UNL     1       4.544   4.495  16.446  0.00  0.00    +0.000 C 
ATOM      5  C   UNL     1       4.417   3.346  17.460  0.00  0.00    +0.000 C 
ATOM      6  N   UNL     1       4.459   3.867  18.837  0.00  0.00    +0.000 N 
ATOM      7  C   UNL     1       5.631   4.718  19.138  0.00  0.00    +0.000 C 
ATOM      8  C   UNL     1       5.736   5.863  18.112  0.00  0.00    +0.000 C 
ENDROOT
BRANCH   6   9
ATOM      9  C   UNL     1       3.541   3.500  19.805  0.00  0.00    +0.000 A 
ATOM     10  C   UNL     1       2.326   4.219  19.888  0.00  0.00    +0.000 A 
ATOM     11  C   UNL     1       1.320   3.891  20.800  0.00  0.00    +0.000 A 
ATOM     12  C   UNL     1       1.496   2.811  21.646  0.00  0.00    +0.000 A 
ATOM     13  F   UNL     1       0.530   2.485  22.514  0.00  0.00    +0.000 F 
ATOM     14  C   UNL     1       2.665   2.072  21.613  0.00  0.00    +0.000 A 
ATOM     15  C   UNL     1       3.684   2.420  20.716  0.00  0.00    +0.000 A 
ATOM     16 CL   UNL     1       5.151   1.506  20.898  0.00  0.00    +0.000 Cl
ENDBRANCH   6   9
BRANCH   2  17
ATOM     17  C   UNL     1       6.587   5.141  14.410  0.00  0.00    +0.000 C 
BRANCH  17  18
ATOM     18  O   UNL     1       7.782   5.142  13.644  0.00  0.00    +0.000 OA
BRANCH  18  19
ATOM     19  C   UNL     1       7.528   5.154  12.242  0.00  0.00    +0.000 C 
BRANCH  19  20
ATOM     20  C   UNL     1       6.930   3.825  11.867  0.00  0.00    +0.000 A 
ATOM     21  C   UNL     1       5.545   3.621  11.933  0.00  0.00    +0.000 A 
ATOM     22  C   UNL     1       4.995   2.383  11.592  0.00  0.00    +0.000 A 
ATOM     23  C   UNL     1       5.825   1.338  11.193  0.00  0.00    +0.000 A 
ATOM     24  C   UNL     1       7.205   1.526  11.139  0.00  0.00    +0.000 A 
ATOM     25  C   UNL     1       7.757   2.762  11.481  0.00  0.00    +0.000 A 
ENDBRANCH  19  20
ENDBRANCH  18  19
ENDBRANCH  17  18
ENDBRANCH   2  17
TORSDOF 5
ENDMDL
MODEL 4
REMARK VINA RESULT:      -7.7      5.279      9.501
REMARK  Name = 
REMARK  5 active torsions:
REMARK  status: ('A' for Active; 'I' for Inactive)
REMARK    1  A    between atoms: C_2  and  C_3
REMARK    2  A    between atoms: C_3  and  O_4
REMARK    3  A    between atoms: O_4  and  C_5
REMARK    4  A    between atoms: C_5  and  C_6
REMARK    5  A    between atoms: N_15  and  C_16
REMARK                            x       y       z     vdW  Elec       q    Type
REMARK                         _______ _______ _______ _____ _____    ______ ____
ROOT
ATOM      1  O   UNL     1       2.320   4.126  21.601  0.00  0.00    +0.000 OA
ATOM      2  C   UNL     1       2.097   4.894  20.661  0.00  0.00    +0.000 C 
ATOM      3  N   UNL     1       2.714   4.754  19.434  0.00  0.00    +0.000 N 
ATOM      4  C   UNL     1       2.546   5.658  18.289  0.00  0.00    +0.000 C 
ATOM      5  C   UNL     1       3.897   6.181  17.775  0.00  0.00    +0.000 C 
ATOM      6  N   UNL     1       4.827   5.064  17.540  0.00  0.00    +0.000 N 
ATOM      7  C   UNL     1       5.009   4.160  18.697  0.00  0.00    +0.000 C 
ATOM      8  C   UNL     1       3.643   3.646  19.193  0.00  0.00    +0.000 C 
ENDROOT
BRANCH   6   9
ATOM      9  C   UNL     1       5.559   4.931  16.373  0.00  0.00    +0.000 A 
ATOM     10  C   UNL     1       5.076   4.058  15.370  0.00  0.00    +0.000 A 
ATOM     11  C   UNL     1       5.721   3.896  14.142  0.00  0.00    +0.000 A 
ATOM     12  C   UNL     1       6.863   4.626  13.873  0.00  0.00    +0.000 A 
ATOM     13  F   UNL     1       7.479   4.484  12.692  0.00  0.00    +0.000 F 
ATOM     14  C   UNL     1       7.385   5.493  14.816  0.00  0.00    +0.000 A 
ATOM     15  C   UNL     1       6.752   5.634  16.059  0.00  0.00    +0.000 A 
ATOM     16 CL   UNL     1       7.606   6.632  17.197  0.00  0.00    +0.000 Cl
ENDBRANCH   6   9
BRANCH   2  17
ATOM     17  C   UNL     1       1.095   6.047  20.835  0.00  0.00    +0.000 C 
BRANCH  17  18
ATOM     18  O   UNL     1       1.632   7.272  21.312  0.00  0.00    +0.000 OA
BRANCH  18  19
ATOM     19  C   UNL     1       1.356   8.362  20.438  0.00  0.00    +0.000 C 
BRANCH  19  20
ATOM     20  C   UNL     1       0.598   9.402  21.218  0.00  0.00    +0.000 A 
ATOM     21  C   UNL     1       0.597  10.742  20.806  0.00  0.00    +0.000 A 
ATOM     22  C   UNL     1      -0.100  11.707  21.538  0.00  0.00    +0.000 A 
ATOM     23  C   UNL     1      -0.794  11.341  22.690  0.00  0.00    +0.000 A 
ATOM     24  C   UNL     1      -0.786  10.014  23.115  0.00  0.00    +0.000 A 
ATOM     25  C   UNL     1      -0.088   9.049  22.387  0.00  0.00    +0.000 A 
ENDBRANCH  19  20
ENDBRANCH  18  19
ENDBRANCH  17  18
ENDBRANCH   2  17
TORSDOF 5
ENDMDL
MODEL 5
REMARK VINA RESULT:      -7.6      6.278      8.210
REMARK  Name = 
REMARK  5 active torsions:
REMARK  status: ('A' for Active; 'I' for Inactive)
REMARK    1  A    between atoms: C_2  and  C_3
REMARK    2  A    between atoms: C_3  and  O_4
REMARK    3  A    between atoms: O_4  and  C_5
REMARK    4  A    between atoms: C_5  and  C_6
REMARK    5  A    between atoms: N_15  and  C_16
REMARK                            x       y       z     vdW  Elec       q    Type
REMARK                         _______ _______ _______ _____ _____    ______ ____
ROOT
ATOM      1  O   UNL     1       1.799   5.571  20.742  0.00  0.00    +0.000 OA
ATOM      2  C   UNL     1       2.077   6.131  19.678  0.00  0.00    +0.000 C 
ATOM      3  N   UNL     1       2.060   7.506  19.544  0.00  0.00    +0.000 N 
ATOM      4  C   UNL     1       2.321   8.242  18.300  0.00  0.00    +0.000 C 
ATOM      5  C   UNL     1       1.174   9.207  17.960  0.00  0.00    +0.000 C 
ATOM      6  N   UNL     1       0.855  10.058  19.120  0.00  0.00    +0.000 N 
ATOM      7  C   UNL     1       0.578   9.317  20.370  0.00  0.00    +0.000 C 
ATOM      8  C   UNL     1       1.741   8.359  20.692  0.00  0.00    +0.000 C 
ENDROOT
BRANCH   6   9
ATOM      9  C   UNL     1       0.715  11.432  19.025  0.00  0.00    +0.000 A 
ATOM     10  C   UNL     1       1.832  12.246  19.329  0.00  0.00    +0.000 A 
ATOM     11  C   UNL     1       1.798  13.638  19.215  0.00  0.00    +0.000 A 
ATOM     12  C   UNL     1       0.645  14.256  18.769  0.00  0.00    +0.000 A 
ATOM     13  F   UNL     1       0.612  15.589  18.647  0.00  0.00    +0.000 F 
ATOM     14  C   UNL     1      -0.480  13.512  18.460  0.00  0.00    +0.000 A 
ATOM     15  C   UNL     1      -0.454  12.118  18.601  0.00  0.00    +0.000 A 
ATOM     16 CL   UNL     1      -1.982  11.334  18.331  0.00  0.00    +0.000 Cl
ENDBRANCH   6   9
BRANCH   2  17
ATOM     17  C   UNL     1       2.467   5.293  18.450  0.00  0.00    +0.000 C 
BRANCH  17  18
ATOM     18  O   UNL     1       3.795   4.793  18.433  0.00  0.00    +0.000 OA
BRANCH  18  19
ATOM     19  C   UNL     1       4.514   5.202  17.274  0.00  0.00    +0.000 C 
BRANCH  19  20
ATOM     20  C   UNL     1       5.795   5.850  17.727  0.00  0.00    +0.000 A 
ATOM     21  C   UNL     1       6.259   7.021  17.111  0.00  0.00    +0.000 A 
ATOM     22  C   UNL     1       7.453   7.614  17.527  0.00  0.00    +0.000 A 
ATOM     23  C   UNL     1       8.196   7.037  18.556  0.00  0.00    +0.000 A 
ATOM     24  C   UNL     1       7.751   5.865  19.163  0.00  0.00    +0.000 A 
ATOM     25  C   UNL     1       6.559   5.269  18.747  0.00  0.00    +0.000 A 
ENDBRANCH  19  20
ENDBRANCH  18  19
ENDBRANCH  17  18
ENDBRANCH   2  17
TORSDOF 5
ENDMDL
MODEL 6
REMARK VINA RESULT:      -7.5      4.687      7.145
REMARK  Name = 
REMARK  5 active torsions:
REMARK  status: ('A' for Active; 'I' for Inactive)
REMARK    1  A    between atoms: C_2  and  C_3
REMARK    2  A    between atoms: C_3  and  O_4
REMARK    3  A    between atoms: O_4  and  C_5
REMARK    4  A    between atoms: C_5  and  C_6
REMARK    5  A    between atoms: N_15  and  C_16
REMARK                            x       y       z     vdW  Elec       q    Type
REMARK                         _______ _______ _______ _____ _____    ______ ____
ROOT
ATOM      1  O   UNL     1       7.158   8.772  16.820  0.00  0.00    +0.000 OA
ATOM      2  C   UNL     1       7.310   7.829  17.602  0.00  0.00    +0.000 C 
ATOM      3  N   UNL     1       6.419   6.775  17.664  0.00  0.00    +0.000 N 
ATOM      4  C   UNL     1       6.499   5.649  18.604  0.00  0.00    +0.000 C 
ATOM      5  C   UNL     1       5.193   5.479  19.398  0.00  0.00    +0.000 C 
ATOM      6  N   UNL     1       4.038   5.434  18.486  0.00  0.00    +0.000 N 
ATOM      7  C   UNL     1       3.948   6.574  17.548  0.00  0.00    +0.000 C 
ATOM      8  C   UNL     1       5.265   6.724  16.762  0.00  0.00    +0.000 C 
ENDROOT
BRANCH   6   9
ATOM      9  C   UNL     1       3.053   4.465  18.572  0.00  0.00    +0.000 A 
ATOM     10  C   UNL     1       3.105   3.370  17.678  0.00  0.00    +0.000 A 
ATOM     11  C   UNL     1       2.183   2.321  17.721  0.00  0.00    +0.000 A 
ATOM     12  C   UNL     1       1.190   2.329  18.683  0.00  0.00    +0.000 A 
ATOM     13  F   UNL     1       0.311   1.321  18.737  0.00  0.00    +0.000 F 
ATOM     14  C   UNL     1       1.087   3.375  19.583  0.00  0.00    +0.000 A 
ATOM     15  C   UNL     1       1.996   4.440  19.520  0.00  0.00    +0.000 A 
ATOM     16 CL   UNL     1       1.648   5.754  20.604  0.00  0.00    +0.000 Cl
ENDBRANCH   6   9
BRANCH   2  17
ATOM     17  C   UNL     1       8.527   7.800  18.540  0.00  0.00    +0.000 C 
BRANCH  17  18
ATOM     18  O   UNL     1       8.854   9.027  19.174  0.00  0.00    +0.000 OA
BRANCH  18  19
ATOM     19  C   UNL     1       8.964  10.103  18.248  0.00  0.00    +0.000 C 
BRANCH  19  20
ATOM     20  C   UNL     1      10.034  11.037  18.745  0.00  0.00    +0.000 A 
ATOM     21  C   UNL     1      10.142  11.337  20.110  0.00  0.00    +0.000 A 
ATOM     22  C   UNL     1      11.131  12.210  20.567  0.00  0.00    +0.000 A 
ATOM     23  C   UNL     1      12.014  12.797  19.662  0.00  0.00    +0.000 A 
ATOM     24  C   UNL     1      11.905  12.517  18.301  0.00  0.00    +0.000 A 
ATOM     25  C   UNL     1      10.916  11.646  17.843  0.00  0.00    +0.000 A 
ENDBRANCH  19  20
ENDBRANCH  18  19
ENDBRANCH  17  18
ENDBRANCH   2  17
TORSDOF 5
ENDMDL
MODEL 7
REMARK VINA RESULT:      -7.5      6.682      9.174
REMARK  Name = 
REMARK  5 active torsions:
REMARK  status: ('A' for Active; 'I' for Inactive)
REMARK    1  A    between atoms: C_2  and  C_3
REMARK    2  A    between atoms: C_3  and  O_4
REMARK    3  A    between atoms: O_4  and  C_5
REMARK    4  A    between atoms: C_5  and  C_6
REMARK    5  A    between atoms: N_15  and  C_16
REMARK                            x       y       z     vdW  Elec       q    Type
REMARK                         _______ _______ _______ _____ _____    ______ ____
ROOT
ATOM      1  O   UNL     1       0.826  10.976  21.493  0.00  0.00    +0.000 OA
ATOM      2  C   UNL     1       0.882  10.754  20.280  0.00  0.00    +0.000 C 
ATOM      3  N   UNL     1       0.975   9.473  19.771  0.00  0.00    +0.000 N 
ATOM      4  C   UNL     1       1.104   9.132  18.348  0.00  0.00    +0.000 C 
ATOM      5  C   UNL     1       2.327   8.237  18.088  0.00  0.00    +0.000 C 
ATOM      6  N   UNL     1       2.321   7.078  18.998  0.00  0.00    +0.000 N 
ATOM      7  C   UNL     1       2.206   7.422  20.432  0.00  0.00    +0.000 C 
ATOM      8  C   UNL     1       0.973   8.315  20.669  0.00  0.00    +0.000 C 
ENDROOT
BRANCH   6   9
ATOM      9  C   UNL     1       2.521   5.781  18.560  0.00  0.00    +0.000 A 
ATOM     10  C   UNL     1       1.573   4.795  18.920  0.00  0.00    +0.000 A 
ATOM     11  C   UNL     1       1.666   3.470  18.485  0.00  0.00    +0.000 A 
ATOM     12  C   UNL     1       2.706   3.099  17.653  0.00  0.00    +0.000 A 
ATOM     13  F   UNL     1       2.793   1.834  17.224  0.00  0.00    +0.000 F 
ATOM     14  C   UNL     1       3.665   4.020  17.270  0.00  0.00    +0.000 A 
ATOM     15  C   UNL     1       3.586   5.342  17.729  0.00  0.00    +0.000 A 
ATOM     16 CL   UNL     1       4.941   6.340  17.298  0.00  0.00    +0.000 Cl
ENDBRANCH   6   9
BRANCH   2  17
ATOM     17  C   UNL     1       0.840  11.923  19.283  0.00  0.00    +0.000 C 
BRANCH  17  18
ATOM     18  O   UNL     1      -0.447  12.445  18.989  0.00  0.00    +0.000 OA
BRANCH  18  19
ATOM     19  C   UNL     1      -1.494  11.571  19.399  0.00  0.00    +0.000 C 
BRANCH  19  20
ATOM     20  C   UNL     1      -2.362  11.293  18.202  0.00  0.00    +0.000 A 
ATOM     21  C   UNL     1      -3.701  11.707  18.180  0.00  0.00    +0.000 A 
ATOM     22  C   UNL     1      -4.507  11.440  17.072  0.00  0.00    +0.000 A 
ATOM     23  C   UNL     1      -3.984  10.748  15.980  0.00  0.00    +0.000 A 
ATOM     24  C   UNL     1      -2.658  10.318  16.000  0.00  0.00    +0.000 A 
ATOM     25  C   UNL     1      -1.852  10.583  17.108  0.00  0.00    +0.000 A 
ENDBRANCH  19  20
ENDBRANCH  18  19
ENDBRANCH  17  18
ENDBRANCH   2  17
TORSDOF 5
ENDMDL
MODEL 8
REMARK VINA RESULT:      -7.4      4.671      7.208
REMARK  Name = 
REMARK  5 active torsions:
REMARK  status: ('A' for Active; 'I' for Inactive)
REMARK    1  A    between atoms: C_2  and  C_3
REMARK    2  A    between atoms: C_3  and  O_4
REMARK    3  A    between atoms: O_4  and  C_5
REMARK    4  A    between atoms: C_5  and  C_6
REMARK    5  A    between atoms: N_15  and  C_16
REMARK                            x       y       z     vdW  Elec       q    Type
REMARK                         _______ _______ _______ _____ _____    ______ ____
ROOT
ATOM      1  O   UNL     1       4.500   6.858  16.398  0.00  0.00    +0.000 OA
ATOM      2  C   UNL     1       3.929   6.278  17.326  0.00  0.00    +0.000 C 
ATOM      3  N   UNL     1       2.895   6.860  18.033  0.00  0.00    +0.000 N 
ATOM      4  C   UNL     1       2.208   6.259  19.183  0.00  0.00    +0.000 C 
ATOM      5  C   UNL     1       2.222   7.193  20.405  0.00  0.00    +0.000 C 
ATOM      6  N   UNL     1       1.739   8.534  20.035  0.00  0.00    +0.000 N 
ATOM      7  C   UNL     1       2.441   9.146  18.886  0.00  0.00    +0.000 C 
ATOM      8  C   UNL     1       2.410   8.196  17.673  0.00  0.00    +0.000 C 
ENDROOT
BRANCH   6   9
ATOM      9  C   UNL     1       0.784   9.215  20.770  0.00  0.00    +0.000 A 
ATOM     10  C   UNL     1       0.792   9.074  22.178  0.00  0.00    +0.000 A 
ATOM     11  C   UNL     1      -0.101   9.760  23.005  0.00  0.00    +0.000 A 
ATOM     12  C   UNL     1      -1.018  10.628  22.443  0.00  0.00    +0.000 A 
ATOM     13  F   UNL     1      -1.869  11.297  23.232  0.00  0.00    +0.000 F 
ATOM     14  C   UNL     1      -1.074  10.805  21.072  0.00  0.00    +0.000 A 
ATOM     15  C   UNL     1      -0.196  10.095  20.241  0.00  0.00    +0.000 A 
ATOM     16 CL   UNL     1      -0.488  10.295  18.540  0.00  0.00    +0.000 Cl
ENDBRANCH   6   9
BRANCH   2  17
ATOM     17  C   UNL     1       4.359   4.856  17.720  0.00  0.00    +0.000 C 
BRANCH  17  18
ATOM     18  O   UNL     1       3.668   3.795  17.077  0.00  0.00    +0.000 OA
BRANCH  18  19
ATOM     19  C   UNL     1       3.764   2.570  17.798  0.00  0.00    +0.000 C 
BRANCH  19  20
ATOM     20  C   UNL     1       2.876   2.673  19.008  0.00  0.00    +0.000 A 
ATOM     21  C   UNL     1       1.491   2.838  18.866  0.00  0.00    +0.000 A 
ATOM     22  C   UNL     1       0.672   2.942  19.992  0.00  0.00    +0.000 A 
ATOM     23  C   UNL     1       1.230   2.891  21.268  0.00  0.00    +0.000 A 
ATOM     24  C   UNL     1       2.608   2.743  21.419  0.00  0.00    +0.000 A 
ATOM     25  C   UNL     1       3.429   2.641  20.295  0.00  0.00    +0.000 A 
ENDBRANCH  19  20
ENDBRANCH  18  19
ENDBRANCH  17  18
ENDBRANCH   2  17
TORSDOF 5
ENDMDL
MODEL 9
REMARK VINA RESULT:      -7.4      7.684      9.626
REMARK  Name = 
REMARK  5 active torsions:
REMARK  status: ('A' for Active; 'I' for Inactive)
REMARK    1  A    between atoms: C_2  and  C_3
REMARK    2  A    between atoms: C_3  and  O_4
REMARK    3  A    between atoms: O_4  and  C_5
REMARK    4  A    between atoms: C_5  and  C_6
REMARK    5  A    between atoms: N_15  and  C_16
REMARK                            x       y       z     vdW  Elec       q    Type
REMARK                         _______ _______ _______ _____ _____    ______ ____
ROOT
ATOM      1  O   UNL     1       1.871   9.700  17.547  0.00  0.00    +0.000 OA
ATOM      2  C   UNL     1       1.512   9.232  18.632  0.00  0.00    +0.000 C 
ATOM      3  N   UNL     1       0.609   9.882  19.451  0.00  0.00    +0.000 N 
ATOM      4  C   UNL     1       0.180   9.419  20.777  0.00  0.00    +0.000 C 
ATOM      5  C   UNL     1       0.389  10.500  21.851  0.00  0.00    +0.000 C 
ATOM      6  N   UNL     1      -0.212  11.775  21.423  0.00  0.00    +0.000 N 
ATOM      7  C   UNL     1       0.231  12.249  20.093  0.00  0.00    +0.000 C 
ATOM      8  C   UNL     1       0.009  11.152  19.034  0.00  0.00    +0.000 C 
ENDROOT
BRANCH   6   9
ATOM      9  C   UNL     1      -1.036  12.527  22.242  0.00  0.00    +0.000 A 
ATOM     10  C   UNL     1      -2.270  11.969  22.651  0.00  0.00    +0.000 A 
ATOM     11  C   UNL     1      -3.144  12.633  23.515  0.00  0.00    +0.000 A 
ATOM     12  C   UNL     1      -2.794  13.874  24.014  0.00  0.00    +0.000 A 
ATOM     13  F   UNL     1      -3.622  14.510  24.852  0.00  0.00    +0.000 F 
ATOM     14  C   UNL     1      -1.601  14.471  23.646  0.00  0.00    +0.000 A 
ATOM     15  C   UNL     1      -0.738  13.816  22.758  0.00  0.00    +0.000 A 
ATOM     16 CL   UNL     1       0.640  14.752  22.264  0.00  0.00    +0.000 Cl
ENDBRANCH   6   9
BRANCH   2  17
ATOM     17  C   UNL     1       2.068   7.879  19.104  0.00  0.00    +0.000 C 
BRANCH  17  18
ATOM     18  O   UNL     1       2.818   7.146  18.147  0.00  0.00    +0.000 OA
BRANCH  18  19
ATOM     19  C   UNL     1       3.568   6.090  18.740  0.00  0.00    +0.000 C 
BRANCH  19  20
ATOM     20  C   UNL     1       2.609   4.994  19.118  0.00  0.00    +0.000 A 
ATOM     21  C   UNL     1       2.369   4.690  20.466  0.00  0.00    +0.000 A 
ATOM     22  C   UNL     1       1.486   3.666  20.813  0.00  0.00    +0.000 A 
ATOM     23  C   UNL     1       0.842   2.933  19.818  0.00  0.00    +0.000 A 
ATOM     24  C   UNL     1       1.086   3.218  18.476  0.00  0.00    +0.000 A 
ATOM     25  C   UNL     1       1.970   4.239  18.126  0.00  0.00    +0.000 A 
ENDBRANCH  19  20
ENDBRANCH  18  19
ENDBRANCH  17  18
ENDBRANCH   2  17
TORSDOF 5
ENDMDL
