MODEL 1
REMARK VINA RESULT:      -7.7      0.000      0.000
REMARK  Name = 
REMARK  7 active torsions:
REMARK  status: ('A' for Active; 'I' for Inactive)
REMARK    1  A    between atoms: C_1  and  C_2
REMARK    2  A    between atoms: C_2  and  O_3
REMARK    3  A    between atoms: O_3  and  C_4
REMARK    4  A    between atoms: C_4  and  C_6
REMARK    5  A    between atoms: N_9  and  C_10
REMARK    6  A    between atoms: C_16  and  N_17
REMARK    7  A    between atoms: C_18  and  C_20
REMARK                            x       y       z     vdW  Elec       q    Type
REMARK                         _______ _______ _______ _____ _____    ______ ____
ROOT
ATOM      1  C   UNL     1       3.302   3.592  20.450  0.00  0.00    +0.000 A 
ATOM      2  C   UNL     1       4.203   2.643  19.925  0.00  0.00    +0.000 A 
ATOM      3  N   UNL     1       5.140   3.183  19.148  0.00  0.00    +0.000 NA
ATOM      4  N   UNL     1       4.946   4.519  19.266  0.00  0.00    +0.000 N 
ATOM      5  C   UNL     1       3.802   4.811  20.009  0.00  0.00    +0.000 A 
ENDROOT
BRANCH   4   6
ATOM      6  C   UNL     1       5.882   5.425  18.688  0.00  0.00    +0.000 A 
ATOM      7  C   UNL     1       7.091   5.671  19.351  0.00  0.00    +0.000 A 
ATOM      8  C   UNL     1       8.020   6.557  18.799  0.00  0.00    +0.000 A 
ATOM      9  C   UNL     1       7.734   7.218  17.604  0.00  0.00    +0.000 A 
ATOM     10  C   UNL     1       6.521   6.996  16.955  0.00  0.00    +0.000 A 
ATOM     11  C   UNL     1       5.594   6.104  17.494  0.00  0.00    +0.000 A 
ENDBRANCH   4   6
BRANCH   5  12
ATOM     12  N   UNL     1       3.262   6.089  20.086  0.00  0.00    +0.000 N 
ATOM     13  C   UNL     1       2.471   6.603  19.064  0.00  0.00    +0.000 C 
ATOM     14  O   UNL     1       2.218   5.986  18.032  0.00  0.00    +0.000 OA
ATOM     15  H   UNL     1       3.082   6.483  21.004  0.00  0.00    +0.000 HD
BRANCH  13  16
ATOM     16  C   UNL     1       1.868   7.901  19.367  0.00  0.00    +0.000 A 
ATOM     17  C   UNL     1       1.361   8.322  20.584  0.00  0.00    +0.000 A 
ATOM     18  C   UNL     1       0.841   9.647  20.532  0.00  0.00    +0.000 A 
ATOM     19  C   UNL     1       0.967  10.204  19.281  0.00  0.00    +0.000 A 
ATOM     20  S   UNL     1       1.715   9.135  18.180  0.00  0.00    +0.000 S 
ENDBRANCH  13  16
ENDBRANCH   5  12
BRANCH   1  21
ATOM     21  C   UNL     1       2.044   3.272  21.102  0.00  0.00    +0.000 C 
ATOM     22  O   UNL     1       1.988   2.635  22.148  0.00  0.00    +0.000 OA
BRANCH  21  23
ATOM     23  O   UNL     1       0.967   3.590  20.336  0.00  0.00    +0.000 OA
BRANCH  23  25
ATOM     24  C   UNL     1       1.096   2.998  18.044  0.00  0.00    +0.000 C 
ATOM     25  C   UNL     1       0.530   2.605  19.396  0.00  0.00    +0.000 C 
ENDBRANCH  23  25
ENDBRANCH  21  23
ENDBRANCH   1  21
TORSDOF 6
ENDMDL
MODEL 2
REMARK VINA RESULT:      -7.7      0.660      1.300
REMARK  Name = 
REMARK  7 active torsions:
REMARK  status: ('A' for Active; 'I' for Inactive)
REMARK    1  A    between atoms: C_1  and  C_2
REMARK    2  A    between atoms: C_2  and  O_3
REMARK    3  A    between atoms: O_3  and  C_4
REMARK    4  A    between atoms: C_4  and  C_6
REMARK    5  A    between atoms: N_9  and  C_10
REMARK    6  A    between atoms: C_16  and  N_17
REMARK    7  A    between atoms: C_18  and  C_20
REMARK                            x       y       z     vdW  Elec       q    Type
REMARK                         _______ _______ _______ _____ _____    ______ ____
ROOT
ATOM      1  C   UNL     1       3.254   3.647  20.475  0.00  0.00    +0.000 A 
ATOM      2  C   UNL     1       4.160   2.689  19.974  0.00  0.00    +0.000 A 
ATOM      3  N   UNL     1       5.112   3.217  19.207  0.00  0.00    +0.000 NA
ATOM      4  N   UNL     1       4.921   4.555  19.308  0.00  0.00    +0.000 N 
ATOM      5  C   UNL     1       3.767   4.859  20.029  0.00  0.00    +0.000 A 
ENDROOT
BRANCH   4   6
ATOM      6  C   UNL     1       5.870   5.451  18.737  0.00  0.00    +0.000 A 
ATOM      7  C   UNL     1       5.573   6.073  17.518  0.00  0.00    +0.000 A 
ATOM      8  C   UNL     1       6.494   6.954  16.943  0.00  0.00    +0.000 A 
ATOM      9  C   UNL     1       7.718   7.194  17.567  0.00  0.00    +0.000 A 
ATOM     10  C   UNL     1       8.029   6.557  18.767  0.00  0.00    +0.000 A 
ATOM     11  C   UNL     1       7.110   5.686  19.352  0.00  0.00    +0.000 A 
ENDBRANCH   4   6
BRANCH   5  12
ATOM     12  N   UNL     1       3.230   6.140  20.084  0.00  0.00    +0.000 N 
ATOM     13  C   UNL     1       2.462   6.647  19.042  0.00  0.00    +0.000 C 
ATOM     14  O   UNL     1       2.226   6.023  18.010  0.00  0.00    +0.000 OA
ATOM     15  H   UNL     1       3.034   6.543  20.995  0.00  0.00    +0.000 HD
BRANCH  13  16
ATOM     16  C   UNL     1       1.859   7.951  19.322  0.00  0.00    +0.000 A 
ATOM     17  C   UNL     1       1.673   8.994  18.431  0.00  0.00    +0.000 A 
ATOM     18  C   UNL     1       1.059  10.128  19.035  0.00  0.00    +0.000 A 
ATOM     19  C   UNL     1       0.787   9.922  20.367  0.00  0.00    +0.000 A 
ATOM     20  S   UNL     1       1.267   8.366  20.881  0.00  0.00    +0.000 S 
ENDBRANCH  13  16
ENDBRANCH   5  12
BRANCH   1  21
ATOM     21  C   UNL     1       1.984   3.339  21.108  0.00  0.00    +0.000 C 
ATOM     22  O   UNL     1       1.908   2.716  22.162  0.00  0.00    +0.000 OA
BRANCH  21  23
ATOM     23  O   UNL     1       0.921   3.648  20.320  0.00  0.00    +0.000 OA
BRANCH  23  25
ATOM     24  C   UNL     1       1.154   3.019  18.046  0.00  0.00    +0.000 C 
ATOM     25  C   UNL     1       0.510   2.660  19.372  0.00  0.00    +0.000 C 
ENDBRANCH  23  25
ENDBRANCH  21  23
ENDBRANCH   1  21
TORSDOF 6
ENDMDL
MODEL 3
REMARK VINA RESULT:      -7.5      1.471      2.058
REMARK  Name = 
REMARK  7 active torsions:
REMARK  status: ('A' for Active; 'I' for Inactive)
REMARK    1  A    between atoms: C_1  and  C_2
REMARK    2  A    between atoms: C_2  and  O_3
REMARK    3  A    between atoms: O_3  and  C_4
REMARK    4  A    between atoms: C_4  and  C_6
REMARK    5  A    between atoms: N_9  and  C_10
REMARK    6  A    between atoms: C_16  and  N_17
REMARK    7  A    between atoms: C_18  and  C_20
REMARK                            x       y       z     vdW  Elec       q    Type
REMARK                         _______ _______ _______ _____ _____    ______ ____
ROOT
ATOM      1  C   UNL     1       2.862   3.847  18.184  0.00  0.00    +0.000 A 
ATOM      2  C   UNL     1       3.919   2.922  18.055  0.00  0.00    +0.000 A 
ATOM      3  N   UNL     1       5.104   3.502  17.870  0.00  0.00    +0.000 NA
ATOM      4  N   UNL     1       4.855   4.827  18.013  0.00  0.00    +0.000 N 
ATOM      5  C   UNL     1       3.492   5.084  18.153  0.00  0.00    +0.000 A 
ENDROOT
BRANCH   4   6
ATOM      6  C   UNL     1       5.939   5.752  18.038  0.00  0.00    +0.000 A 
ATOM      7  C   UNL     1       6.980   5.558  18.955  0.00  0.00    +0.000 A 
ATOM      8  C   UNL     1       8.050   6.456  18.994  0.00  0.00    +0.000 A 
ATOM      9  C   UNL     1       8.070   7.560  18.140  0.00  0.00    +0.000 A 
ATOM     10  C   UNL     1       7.024   7.771  17.245  0.00  0.00    +0.000 A 
ATOM     11  C   UNL     1       5.958   6.872  17.192  0.00  0.00    +0.000 A 
ENDBRANCH   4   6
BRANCH   5  12
ATOM     12  N   UNL     1       2.959   6.367  18.091  0.00  0.00    +0.000 N 
ATOM     13  C   UNL     1       2.328   6.943  19.188  0.00  0.00    +0.000 C 
ATOM     14  O   UNL     1       2.178   6.363  20.261  0.00  0.00    +0.000 OA
ATOM     15  H   UNL     1       3.369   7.028  17.437  0.00  0.00    +0.000 HD
BRANCH  13  16
ATOM     16  C   UNL     1       1.955   8.344  18.997  0.00  0.00    +0.000 A 
ATOM     17  C   UNL     1       2.247   9.146  17.907  0.00  0.00    +0.000 A 
ATOM     18  C   UNL     1       1.736  10.468  18.046  0.00  0.00    +0.000 A 
ATOM     19  C   UNL     1       1.065  10.641  19.233  0.00  0.00    +0.000 A 
ATOM     20  S   UNL     1       1.048   9.214  20.170  0.00  0.00    +0.000 S 
ENDBRANCH  13  16
ENDBRANCH   5  12
BRANCH   1  21
ATOM     21  C   UNL     1       1.450   3.509  18.129  0.00  0.00    +0.000 C 
ATOM     22  O   UNL     1       0.676   4.042  17.340  0.00  0.00    +0.000 OA
BRANCH  21  23
ATOM     23  O   UNL     1       1.070   2.697  19.150  0.00  0.00    +0.000 OA
BRANCH  23  25
ATOM     24  C   UNL     1       1.703   2.643  21.434  0.00  0.00    +0.000 C 
ATOM     25  C   UNL     1       0.812   3.322  20.410  0.00  0.00    +0.000 C 
ENDBRANCH  23  25
ENDBRANCH  21  23
ENDBRANCH   1  21
TORSDOF 6
ENDMDL
MODEL 4
REMARK VINA RESULT:      -7.3      1.147      1.932
REMARK  Name = 
REMARK  7 active torsions:
REMARK  status: ('A' for Active; 'I' for Inactive)
REMARK    1  A    between atoms: C_1  and  C_2
REMARK    2  A    between atoms: C_2  and  O_3
REMARK    3  A    between atoms: O_3  and  C_4
REMARK    4  A    between atoms: C_4  and  C_6
REMARK    5  A    between atoms: N_9  and  C_10
REMARK    6  A    between atoms: C_16  and  N_17
REMARK    7  A    between atoms: C_18  and  C_20
REMARK                            x       y       z     vdW  Elec       q    Type
REMARK                         _______ _______ _______ _____ _____    ______ ____
ROOT
ATOM      1  C   UNL     1       2.756   3.517  18.574  0.00  0.00    +0.000 A 
ATOM      2  C   UNL     1       3.617   2.821  17.699  0.00  0.00    +0.000 A 
ATOM      3  N   UNL     1       4.701   3.519  17.365  0.00  0.00    +0.000 NA
ATOM      4  N   UNL     1       4.632   4.636  18.131  0.00  0.00    +0.000 N 
ATOM      5  C   UNL     1       3.435   4.698  18.844  0.00  0.00    +0.000 A 
ENDROOT
BRANCH   4   6
ATOM      6  C   UNL     1       5.725   5.548  18.153  0.00  0.00    +0.000 A 
ATOM      7  C   UNL     1       5.726   6.635  17.269  0.00  0.00    +0.000 A 
ATOM      8  C   UNL     1       6.791   7.539  17.277  0.00  0.00    +0.000 A 
ATOM      9  C   UNL     1       7.867   7.346  18.144  0.00  0.00    +0.000 A 
ATOM     10  C   UNL     1       7.884   6.252  19.007  0.00  0.00    +0.000 A 
ATOM     11  C   UNL     1       6.818   5.352  19.013  0.00  0.00    +0.000 A 
ENDBRANCH   4   6
BRANCH   5  12
ATOM     12  N   UNL     1       3.024   5.840  19.522  0.00  0.00    +0.000 N 
ATOM     13  C   UNL     1       2.335   6.859  18.874  0.00  0.00    +0.000 C 
ATOM     14  O   UNL     1       2.066   6.835  17.675  0.00  0.00    +0.000 OA
ATOM     15  H   UNL     1       2.846   5.771  20.520  0.00  0.00    +0.000 HD
BRANCH  13  16
ATOM     16  C   UNL     1       1.855   7.917  19.762  0.00  0.00    +0.000 A 
ATOM     17  C   UNL     1       1.715   7.854  21.137  0.00  0.00    +0.000 A 
ATOM     18  C   UNL     1       1.214   9.066  21.694  0.00  0.00    +0.000 A 
ATOM     19  C   UNL     1       0.988  10.022  20.733  0.00  0.00    +0.000 A 
ATOM     20  S   UNL     1       1.384   9.461  19.170  0.00  0.00    +0.000 S 
ENDBRANCH  13  16
ENDBRANCH   5  12
BRANCH   1  21
ATOM     21  C   UNL     1       1.396   3.120  18.891  0.00  0.00    +0.000 C 
ATOM     22  O   UNL     1       0.683   2.519  18.094  0.00  0.00    +0.000 OA
BRANCH  21  23
ATOM     23  O   UNL     1       0.961   3.645  20.067  0.00  0.00    +0.000 OA
BRANCH  23  25
ATOM     24  C   UNL     1       2.389   2.949  21.827  0.00  0.00    +0.000 C 
ATOM     25  C   UNL     1       1.010   2.791  21.212  0.00  0.00    +0.000 C 
ENDBRANCH  23  25
ENDBRANCH  21  23
ENDBRANCH   1  21
TORSDOF 6
ENDMDL
MODEL 5
REMARK VINA RESULT:      -7.3      1.730      2.337
REMARK  Name = 
REMARK  7 active torsions:
REMARK  status: ('A' for Active; 'I' for Inactive)
REMARK    1  A    between atoms: C_1  and  C_2
REMARK    2  A    between atoms: C_2  and  O_3
REMARK    3  A    between atoms: O_3  and  C_4
REMARK    4  A    between atoms: C_4  and  C_6
REMARK    5  A    between atoms: N_9  and  C_10
REMARK    6  A    between atoms: C_16  and  N_17
REMARK    7  A    between atoms: C_18  and  C_20
REMARK                            x       y       z     vdW  Elec       q    Type
REMARK                         _______ _______ _______ _____ _____    ______ ____
ROOT
ATOM      1  C   UNL     1       2.276   2.759  18.524  0.00  0.00    +0.000 A 
ATOM      2  C   UNL     1       3.168   1.739  18.133  0.00  0.00    +0.000 A 
ATOM      3  N   UNL     1       4.225   2.195  17.463  0.00  0.00    +0.000 NA
ATOM      4  N   UNL     1       4.107   3.544  17.526  0.00  0.00    +0.000 N 
ATOM      5  C   UNL     1       2.905   3.930  18.118  0.00  0.00    +0.000 A 
ENDROOT
BRANCH   4   6
ATOM      6  C   UNL     1       5.163   4.371  17.045  0.00  0.00    +0.000 A 
ATOM      7  C   UNL     1       6.064   4.929  17.961  0.00  0.00    +0.000 A 
ATOM      8  C   UNL     1       7.105   5.743  17.506  0.00  0.00    +0.000 A 
ATOM      9  C   UNL     1       7.232   6.022  16.145  0.00  0.00    +0.000 A 
ATOM     10  C   UNL     1       6.324   5.490  15.233  0.00  0.00    +0.000 A 
ATOM     11  C   UNL     1       5.289   4.668  15.678  0.00  0.00    +0.000 A 
ENDBRANCH   4   6
BRANCH   5  12
ATOM     12  N   UNL     1       2.445   5.242  18.100  0.00  0.00    +0.000 N 
ATOM     13  C   UNL     1       2.765   6.135  19.116  0.00  0.00    +0.000 C 
ATOM     14  O   UNL     1       3.442   5.830  20.095  0.00  0.00    +0.000 OA
ATOM     15  H   UNL     1       2.245   5.670  17.201  0.00  0.00    +0.000 HD
BRANCH  13  16
ATOM     16  C   UNL     1       2.321   7.507  18.869  0.00  0.00    +0.000 A 
ATOM     17  C   UNL     1       2.501   8.249  17.715  0.00  0.00    +0.000 A 
ATOM     18  C   UNL     1       1.948   9.557  17.811  0.00  0.00    +0.000 A 
ATOM     19  C   UNL     1       1.356   9.780  19.032  0.00  0.00    +0.000 A 
ATOM     20  S   UNL     1       1.465   8.415  20.051  0.00  0.00    +0.000 S 
ENDBRANCH  13  16
ENDBRANCH   5  12
BRANCH   1  21
ATOM     21  C   UNL     1       0.931   2.540  19.026  0.00  0.00    +0.000 C 
ATOM     22  O   UNL     1       0.071   1.960  18.370  0.00  0.00    +0.000 OA
BRANCH  21  23
ATOM     23  O   UNL     1       0.696   3.199  20.191  0.00  0.00    +0.000 OA
BRANCH  23  25
ATOM     24  C   UNL     1       2.312   3.490  21.901  0.00  0.00    +0.000 C 
ATOM     25  C   UNL     1       1.198   2.597  21.386  0.00  0.00    +0.000 C 
ENDBRANCH  23  25
ENDBRANCH  21  23
ENDBRANCH   1  21
TORSDOF 6
ENDMDL
MODEL 6
REMARK VINA RESULT:      -7.3      2.091      5.199
REMARK  Name = 
REMARK  7 active torsions:
REMARK  status: ('A' for Active; 'I' for Inactive)
REMARK    1  A    between atoms: C_1  and  C_2
REMARK    2  A    between atoms: C_2  and  O_3
REMARK    3  A    between atoms: O_3  and  C_4
REMARK    4  A    between atoms: C_4  and  C_6
REMARK    5  A    between atoms: N_9  and  C_10
REMARK    6  A    between atoms: C_16  and  N_17
REMARK    7  A    between atoms: C_18  and  C_20
REMARK                            x       y       z     vdW  Elec       q    Type
REMARK                         _______ _______ _______ _____ _____    ______ ____
ROOT
ATOM      1  C   UNL     1       4.660   5.575  17.052  0.00  0.00    +0.000 A 
ATOM      2  C   UNL     1       4.978   4.219  16.831  0.00  0.00    +0.000 A 
ATOM      3  N   UNL     1       4.470   3.404  17.753  0.00  0.00    +0.000 NA
ATOM      4  N   UNL     1       3.692   4.207  18.520  0.00  0.00    +0.000 N 
ATOM      5  C   UNL     1       3.821   5.548  18.158  0.00  0.00    +0.000 A 
ENDROOT
BRANCH   4   6
ATOM      6  C   UNL     1       2.856   3.636  19.522  0.00  0.00    +0.000 A 
ATOM      7  C   UNL     1       1.464   3.730  19.385  0.00  0.00    +0.000 A 
ATOM      8  C   UNL     1       0.630   3.175  20.359  0.00  0.00    +0.000 A 
ATOM      9  C   UNL     1       1.179   2.554  21.481  0.00  0.00    +0.000 A 
ATOM     10  C   UNL     1       2.561   2.481  21.635  0.00  0.00    +0.000 A 
ATOM     11  C   UNL     1       3.401   3.022  20.660  0.00  0.00    +0.000 A 
ENDBRANCH   4   6
BRANCH   5  12
ATOM     12  N   UNL     1       3.307   6.586  18.928  0.00  0.00    +0.000 N 
ATOM     13  C   UNL     1       2.261   7.378  18.467  0.00  0.00    +0.000 C 
ATOM     14  O   UNL     1       1.744   7.237  17.362  0.00  0.00    +0.000 OA
ATOM     15  H   UNL     1       3.380   6.519  19.938  0.00  0.00    +0.000 HD
BRANCH  13  16
ATOM     16  C   UNL     1       1.749   8.328  19.455  0.00  0.00    +0.000 A 
ATOM     17  C   UNL     1       1.623   8.128  20.819  0.00  0.00    +0.000 A 
ATOM     18  C   UNL     1       1.081   9.260  21.491  0.00  0.00    +0.000 A 
ATOM     19  C   UNL     1       0.813  10.296  20.628  0.00  0.00    +0.000 A 
ATOM     20  S   UNL     1       1.217   9.902  19.017  0.00  0.00    +0.000 S 
ENDBRANCH  13  16
ENDBRANCH   5  12
BRANCH   1  21
ATOM     21  C   UNL     1       5.286   6.697  16.374  0.00  0.00    +0.000 C 
ATOM     22  O   UNL     1       5.318   6.793  15.152  0.00  0.00    +0.000 OA
BRANCH  21  23
ATOM     23  O   UNL     1       5.975   7.501  17.226  0.00  0.00    +0.000 OA
BRANCH  23  25
ATOM     24  C   UNL     1       8.057   8.464  17.826  0.00  0.00    +0.000 C 
ATOM     25  C   UNL     1       7.347   7.174  17.456  0.00  0.00    +0.000 C 
ENDBRANCH  23  25
ENDBRANCH  21  23
ENDBRANCH   1  21
TORSDOF 6
ENDMDL
MODEL 7
REMARK VINA RESULT:      -7.1      1.717      2.498
REMARK  Name = 
REMARK  7 active torsions:
REMARK  status: ('A' for Active; 'I' for Inactive)
REMARK    1  A    between atoms: C_1  and  C_2
REMARK    2  A    between atoms: C_2  and  O_3
REMARK    3  A    between atoms: O_3  and  C_4
REMARK    4  A    between atoms: C_4  and  C_6
REMARK    5  A    between atoms: N_9  and  C_10
REMARK    6  A    between atoms: C_16  and  N_17
REMARK    7  A    between atoms: C_18  and  C_20
REMARK                            x       y       z     vdW  Elec       q    Type
REMARK                         _______ _______ _______ _____ _____    ______ ____
ROOT
ATOM      1  C   UNL     1       2.248   2.891  18.532  0.00  0.00    +0.000 A 
ATOM      2  C   UNL     1       3.139   1.866  18.153  0.00  0.00    +0.000 A 
ATOM      3  N   UNL     1       4.200   2.313  17.484  0.00  0.00    +0.000 NA
ATOM      4  N   UNL     1       4.085   3.663  17.535  0.00  0.00    +0.000 N 
ATOM      5  C   UNL     1       2.881   4.056  18.119  0.00  0.00    +0.000 A 
ENDROOT
BRANCH   4   6
ATOM      6  C   UNL     1       5.145   4.483  17.052  0.00  0.00    +0.000 A 
ATOM      7  C   UNL     1       5.342   4.600  15.670  0.00  0.00    +0.000 A 
ATOM      8  C   UNL     1       6.377   5.399  15.179  0.00  0.00    +0.000 A 
ATOM      9  C   UNL     1       7.233   6.058  16.063  0.00  0.00    +0.000 A 
ATOM     10  C   UNL     1       7.057   5.924  17.438  0.00  0.00    +0.000 A 
ATOM     11  C   UNL     1       6.018   5.137  17.935  0.00  0.00    +0.000 A 
ENDBRANCH   4   6
BRANCH   5  12
ATOM     12  N   UNL     1       2.425   5.369  18.088  0.00  0.00    +0.000 N 
ATOM     13  C   UNL     1       2.721   6.263  19.110  0.00  0.00    +0.000 C 
ATOM     14  O   UNL     1       3.373   5.958  20.106  0.00  0.00    +0.000 OA
ATOM     15  H   UNL     1       2.249   5.797  17.183  0.00  0.00    +0.000 HD
BRANCH  13  16
ATOM     16  C   UNL     1       2.286   7.636  18.851  0.00  0.00    +0.000 A 
ATOM     17  C   UNL     1       2.477   8.368  17.692  0.00  0.00    +0.000 A 
ATOM     18  C   UNL     1       1.931   9.680  17.776  0.00  0.00    +0.000 A 
ATOM     19  C   UNL     1       1.334   9.916  18.992  0.00  0.00    +0.000 A 
ATOM     20  S   UNL     1       1.430   8.557  20.022  0.00  0.00    +0.000 S 
ENDBRANCH  13  16
ENDBRANCH   5  12
BRANCH   1  21
ATOM     21  C   UNL     1       0.900   2.679  19.030  0.00  0.00    +0.000 C 
ATOM     22  O   UNL     1       0.074   2.002  18.425  0.00  0.00    +0.000 OA
BRANCH  21  23
ATOM     23  O   UNL     1       0.617   3.451  20.111  0.00  0.00    +0.000 OA
BRANCH  23  25
ATOM     24  C   UNL     1       1.279   2.267  22.056  0.00  0.00    +0.000 C 
ATOM     25  C   UNL     1       1.581   3.460  21.168  0.00  0.00    +0.000 C 
ENDBRANCH  23  25
ENDBRANCH  21  23
ENDBRANCH   1  21
TORSDOF 6
ENDMDL
MODEL 8
REMARK VINA RESULT:      -7.1      1.978      5.041
REMARK  Name = 
REMARK  7 active torsions:
REMARK  status: ('A' for Active; 'I' for Inactive)
REMARK    1  A    between atoms: C_1  and  C_2
REMARK    2  A    between atoms: C_2  and  O_3
REMARK    3  A    between atoms: O_3  and  C_4
REMARK    4  A    between atoms: C_4  and  C_6
REMARK    5  A    between atoms: N_9  and  C_10
REMARK    6  A    between atoms: C_16  and  N_17
REMARK    7  A    between atoms: C_18  and  C_20
REMARK                            x       y       z     vdW  Elec       q    Type
REMARK                         _______ _______ _______ _____ _____    ______ ____
ROOT
ATOM      1  C   UNL     1       4.773   5.553  17.079  0.00  0.00    +0.000 A 
ATOM      2  C   UNL     1       5.081   4.190  16.888  0.00  0.00    +0.000 A 
ATOM      3  N   UNL     1       4.534   3.395  17.806  0.00  0.00    +0.000 NA
ATOM      4  N   UNL     1       3.742   4.219  18.536  0.00  0.00    +0.000 N 
ATOM      5  C   UNL     1       3.899   5.553  18.159  0.00  0.00    +0.000 A 
ENDROOT
BRANCH   4   6
ATOM      6  C   UNL     1       2.868   3.673  19.519  0.00  0.00    +0.000 A 
ATOM      7  C   UNL     1       3.415   3.040  20.643  0.00  0.00    +0.000 A 
ATOM      8  C   UNL     1       2.571   2.499  21.616  0.00  0.00    +0.000 A 
ATOM      9  C   UNL     1       1.187   2.563  21.458  0.00  0.00    +0.000 A 
ATOM     10  C   UNL     1       0.638   3.168  20.330  0.00  0.00    +0.000 A 
ATOM     11  C   UNL     1       1.473   3.721  19.359  0.00  0.00    +0.000 A 
ENDBRANCH   4   6
BRANCH   5  12
ATOM     12  N   UNL     1       3.373   6.608  18.895  0.00  0.00    +0.000 N 
ATOM     13  C   UNL     1       2.267   7.322  18.449  0.00  0.00    +0.000 C 
ATOM     14  O   UNL     1       1.700   7.092  17.384  0.00  0.00    +0.000 OA
ATOM     15  H   UNL     1       3.502   6.604  19.903  0.00  0.00    +0.000 HD
BRANCH  13  16
ATOM     16  C   UNL     1       1.759   8.302  19.409  0.00  0.00    +0.000 A 
ATOM     17  C   UNL     1       1.567   8.119  20.768  0.00  0.00    +0.000 A 
ATOM     18  C   UNL     1       1.052   9.280  21.410  0.00  0.00    +0.000 A 
ATOM     19  C   UNL     1       0.869  10.321  20.530  0.00  0.00    +0.000 A 
ATOM     20  S   UNL     1       1.321   9.896  18.940  0.00  0.00    +0.000 S 
ENDBRANCH  13  16
ENDBRANCH   5  12
BRANCH   1  21
ATOM     21  C   UNL     1       5.434   6.657  16.405  0.00  0.00    +0.000 C 
ATOM     22  O   UNL     1       5.524   6.722  15.183  0.00  0.00    +0.000 OA
BRANCH  21  23
ATOM     23  O   UNL     1       6.082   7.481  17.269  0.00  0.00    +0.000 OA
BRANCH  23  25
ATOM     24  C   UNL     1       7.852   6.566  18.554  0.00  0.00    +0.000 C 
ATOM     25  C   UNL     1       7.507   7.374  17.317  0.00  0.00    +0.000 C 
ENDBRANCH  23  25
ENDBRANCH  21  23
ENDBRANCH   1  21
TORSDOF 6
ENDMDL
MODEL 9
REMARK VINA RESULT:      -7.0      1.527      2.043
REMARK  Name = 
REMARK  7 active torsions:
REMARK  status: ('A' for Active; 'I' for Inactive)
REMARK    1  A    between atoms: C_1  and  C_2
REMARK    2  A    between atoms: C_2  and  O_3
REMARK    3  A    between atoms: O_3  and  C_4
REMARK    4  A    between atoms: C_4  and  C_6
REMARK    5  A    between atoms: N_9  and  C_10
REMARK    6  A    between atoms: C_16  and  N_17
REMARK    7  A    between atoms: C_18  and  C_20
REMARK                            x       y       z     vdW  Elec       q    Type
REMARK                         _______ _______ _______ _____ _____    ______ ____
ROOT
ATOM      1  C   UNL     1       3.249   3.790  17.613  0.00  0.00    +0.000 A 
ATOM      2  C   UNL     1       4.232   3.237  16.767  0.00  0.00    +0.000 A 
ATOM      3  N   UNL     1       5.329   3.987  16.676  0.00  0.00    +0.000 NA
ATOM      4  N   UNL     1       5.131   4.982  17.575  0.00  0.00    +0.000 N 
ATOM      5  C   UNL     1       3.853   4.929  18.131  0.00  0.00    +0.000 A 
ENDROOT
BRANCH   4   6
ATOM      6  C   UNL     1       6.186   5.894  17.865  0.00  0.00    +0.000 A 
ATOM      7  C   UNL     1       7.082   5.595  18.900  0.00  0.00    +0.000 A 
ATOM      8  C   UNL     1       8.122   6.480  19.198  0.00  0.00    +0.000 A 
ATOM      9  C   UNL     1       8.253   7.672  18.486  0.00  0.00    +0.000 A 
ATOM     10  C   UNL     1       7.349   7.987  17.474  0.00  0.00    +0.000 A 
ATOM     11  C   UNL     1       6.315   7.103  17.163  0.00  0.00    +0.000 A 
ENDBRANCH   4   6
BRANCH   5  12
ATOM     12  N   UNL     1       3.327   5.957  18.904  0.00  0.00    +0.000 N 
ATOM     13  C   UNL     1       2.647   7.023  18.326  0.00  0.00    +0.000 C 
ATOM     14  O   UNL     1       2.486   7.143  17.113  0.00  0.00    +0.000 OA
ATOM     15  H   UNL     1       3.064   5.754  19.864  0.00  0.00    +0.000 HD
BRANCH  13  16
ATOM     16  C   UNL     1       2.038   7.940  19.289  0.00  0.00    +0.000 A 
ATOM     17  C   UNL     1       1.855   7.726  20.644  0.00  0.00    +0.000 A 
ATOM     18  C   UNL     1       1.222   8.825  21.292  0.00  0.00    +0.000 A 
ATOM     19  C   UNL     1       0.942   9.850  20.419  0.00  0.00    +0.000 A 
ATOM     20  S   UNL     1       1.446   9.486  18.829  0.00  0.00    +0.000 S 
ENDBRANCH  13  16
ENDBRANCH   5  12
BRANCH   1  21
ATOM     21  C   UNL     1       1.871   3.337  17.694  0.00  0.00    +0.000 C 
ATOM     22  O   UNL     1       0.932   4.010  17.283  0.00  0.00    +0.000 OA
BRANCH  21  23
ATOM     23  O   UNL     1       1.740   2.200  18.428  0.00  0.00    +0.000 OA
BRANCH  23  25
ATOM     24  C   UNL     1       1.059   3.021  20.546  0.00  0.00    +0.000 C 
ATOM     25  C   UNL     1       2.144   2.267  19.799  0.00  0.00    +0.000 C 
ENDBRANCH  23  25
ENDBRANCH  21  23
ENDBRANCH   1  21
TORSDOF 6
ENDMDL
