MODEL 1
REMARK VINA RESULT:      -8.9      0.000      0.000
REMARK  Name = 
REMARK  3 active torsions:
REMARK  status: ('A' for Active; 'I' for Inactive)
REMARK    1  A    between atoms: C_1  and  N_2
REMARK    2  A    between atoms: C_13  and  C_14
REMARK    3  A    between atoms: C_16  and  C_17
REMARK                            x       y       z     vdW  Elec       q    Type
REMARK                         _______ _______ _______ _____ _____    ______ ____
ROOT
ATOM      1  C   UNL     1      -0.461  11.922  18.977  0.00  0.00    +0.000 C 
ATOM      2  N   UNL     1       0.109  10.862  19.769  0.00  0.00    +0.000 N 
ATOM      3  C   UNL     1      -0.024  10.645  21.128  0.00  0.00    +0.000 A 
ATOM      4  N   UNL     1      -0.712  11.524  21.893  0.00  0.00    +0.000 N 
ATOM      5  C   UNL     1      -1.407  11.068  23.104  0.00  0.00    +0.000 C 
ATOM      6  C   UNL     1      -2.592  12.032  23.339  0.00  0.00    +0.000 C 
ATOM      7  O   UNL     1      -2.172  13.412  23.427  0.00  0.00    +0.000 OA
ATOM      8  C   UNL     1      -1.431  13.801  22.255  0.00  0.00    +0.000 C 
ATOM      9  C   UNL     1      -0.207  12.896  22.061  0.00  0.00    +0.000 C 
ATOM     10  N   UNL     1       0.510   9.491  21.462  0.00  0.00    +0.000 NA
ATOM     11  C   UNL     1       1.104   9.001  20.315  0.00  0.00    +0.000 A 
ATOM     12  C   UNL     1       1.873   7.842  20.109  0.00  0.00    +0.000 A 
ATOM     13  C   UNL     1       2.395   7.585  18.824  0.00  0.00    +0.000 A 
ATOM     14  C   UNL     1       2.104   8.466  17.767  0.00  0.00    +0.000 A 
ATOM     15  C   UNL     1       1.325   9.607  17.948  0.00  0.00    +0.000 A 
ATOM     16  C   UNL     1       0.861   9.845  19.241  0.00  0.00    +0.000 A 
ENDROOT
BRANCH  13  17
ATOM     17  C   UNL     1       3.258   6.443  18.534  0.00  0.00    +0.000 A 
ATOM     18  N   UNL     1       4.054   6.253  17.506  0.00  0.00    +0.000 NA
ATOM     19  C   UNL     1       4.618   5.036  17.789  0.00  0.00    +0.000 A 
ATOM     20  N   UNL     1       4.198   4.476  18.928  0.00  0.00    +0.000 NA
ATOM     21  O   UNL     1       3.289   5.414  19.434  0.00  0.00    +0.000 OA
BRANCH  19  22
ATOM     22  C   UNL     1       5.606   4.395  16.893  0.00  0.00    +0.000 C 
ATOM     23  C   UNL     1       5.474   4.796  15.438  0.00  0.00    +0.000 C 
ATOM     24  C   UNL     1       6.846   4.469  14.886  0.00  0.00    +0.000 C 
ATOM     25  O   UNL     1       7.782   4.621  15.961  0.00  0.00    +0.000 OA
ATOM     26  C   UNL     1       7.045   4.787  17.185  0.00  0.00    +0.000 C 
ENDBRANCH  19  22
ENDBRANCH  13  17
TORSDOF 2
ENDMDL
MODEL 2
REMARK VINA RESULT:      -8.6      1.474      2.340
REMARK  Name = 
REMARK  3 active torsions:
REMARK  status: ('A' for Active; 'I' for Inactive)
REMARK    1  A    between atoms: C_1  and  N_2
REMARK    2  A    between atoms: C_13  and  C_14
REMARK    3  A    between atoms: C_16  and  C_17
REMARK                            x       y       z     vdW  Elec       q    Type
REMARK                         _______ _______ _______ _____ _____    ______ ____
ROOT
ATOM      1  C   UNL     1      -0.087  10.252  21.937  0.00  0.00    +0.000 C 
ATOM      2  N   UNL     1       0.425  10.080  20.601  0.00  0.00    +0.000 N 
ATOM      3  C   UNL     1       0.395  10.980  19.552  0.00  0.00    +0.000 A 
ATOM      4  N   UNL     1      -0.226  12.173  19.697  0.00  0.00    +0.000 N 
ATOM      5  C   UNL     1       0.231  13.344  18.938  0.00  0.00    +0.000 C 
ATOM      6  C   UNL     1      -0.138  14.597  19.767  0.00  0.00    +0.000 C 
ATOM      7  O   UNL     1      -1.547  14.654  20.083  0.00  0.00    +0.000 OA
ATOM      8  C   UNL     1      -1.973  13.458  20.761  0.00  0.00    +0.000 C 
ATOM      9  C   UNL     1      -1.682  12.216  19.907  0.00  0.00    +0.000 C 
ATOM     10  N   UNL     1       1.100  10.526  18.539  0.00  0.00    +0.000 NA
ATOM     11  C   UNL     1       1.501   9.253  18.894  0.00  0.00    +0.000 A 
ATOM     12  C   UNL     1       2.218   8.285  18.168  0.00  0.00    +0.000 A 
ATOM     13  C   UNL     1       2.475   7.034  18.764  0.00  0.00    +0.000 A 
ATOM     14  C   UNL     1       2.051   6.790  20.082  0.00  0.00    +0.000 A 
ATOM     15  C   UNL     1       1.360   7.746  20.825  0.00  0.00    +0.000 A 
ATOM     16  C   UNL     1       1.091   8.956  20.186  0.00  0.00    +0.000 A 
ENDROOT
BRANCH  13  17
ATOM     17  C   UNL     1       3.152   5.947  18.061  0.00  0.00    +0.000 A 
ATOM     18  N   UNL     1       4.242   5.993  17.328  0.00  0.00    +0.000 NA
ATOM     19  C   UNL     1       4.408   4.683  16.960  0.00  0.00    +0.000 A 
ATOM     20  N   UNL     1       3.472   3.849  17.425  0.00  0.00    +0.000 NA
ATOM     21  O   UNL     1       2.629   4.688  18.165  0.00  0.00    +0.000 OA
BRANCH  19  22
ATOM     22  C   UNL     1       5.533   4.237  16.108  0.00  0.00    +0.000 C 
ATOM     23  C   UNL     1       5.597   4.924  14.759  0.00  0.00    +0.000 C 
ATOM     24  C   UNL     1       7.043   4.717  14.358  0.00  0.00    +0.000 C 
ATOM     25  O   UNL     1       7.811   4.650  15.566  0.00  0.00    +0.000 OA
ATOM     26  C   UNL     1       6.903   4.566  16.678  0.00  0.00    +0.000 C 
ENDBRANCH  19  22
ENDBRANCH  13  17
TORSDOF 2
ENDMDL
MODEL 3
REMARK VINA RESULT:      -8.2      8.003      9.078
REMARK  Name = 
REMARK  3 active torsions:
REMARK  status: ('A' for Active; 'I' for Inactive)
REMARK    1  A    between atoms: C_1  and  N_2
REMARK    2  A    between atoms: C_13  and  C_14
REMARK    3  A    between atoms: C_16  and  C_17
REMARK                            x       y       z     vdW  Elec       q    Type
REMARK                         _______ _______ _______ _____ _____    ______ ____
ROOT
ATOM      1  C   UNL     1      10.585  14.229  20.890  0.00  0.00    +0.000 C 
ATOM      2  N   UNL     1      10.074  13.665  19.666  0.00  0.00    +0.000 N 
ATOM      3  C   UNL     1       9.928  14.280  18.437  0.00  0.00    +0.000 A 
ATOM      4  N   UNL     1      10.224  15.593  18.294  0.00  0.00    +0.000 N 
ATOM      5  C   UNL     1      10.695  16.109  17.003  0.00  0.00    +0.000 C 
ATOM      6  C   UNL     1      11.570  17.349  17.301  0.00  0.00    +0.000 C 
ATOM      7  O   UNL     1      10.869  18.347  18.076  0.00  0.00    +0.000 OA
ATOM      8  C   UNL     1      10.359  17.784  19.300  0.00  0.00    +0.000 C 
ATOM      9  C   UNL     1       9.425  16.602  19.006  0.00  0.00    +0.000 C 
ATOM     10  N   UNL     1       9.578  13.401  17.524  0.00  0.00    +0.000 NA
ATOM     11  C   UNL     1       9.380  12.211  18.197  0.00  0.00    +0.000 A 
ATOM     12  C   UNL     1       8.934  10.961  17.731  0.00  0.00    +0.000 A 
ATOM     13  C   UNL     1       8.790   9.900  18.648  0.00  0.00    +0.000 A 
ATOM     14  C   UNL     1       9.134  10.095  19.997  0.00  0.00    +0.000 A 
ATOM     15  C   UNL     1       9.600  11.320  20.473  0.00  0.00    +0.000 A 
ATOM     16  C   UNL     1       9.690  12.354  19.542  0.00  0.00    +0.000 A 
ENDROOT
BRANCH  13  17
ATOM     17  C   UNL     1       8.271   8.589  18.266  0.00  0.00    +0.000 A 
ATOM     18  N   UNL     1       7.534   8.266  17.227  0.00  0.00    +0.000 NA
ATOM     19  C   UNL     1       7.385   6.912  17.379  0.00  0.00    +0.000 A 
ATOM     20  N   UNL     1       7.984   6.401  18.459  0.00  0.00    +0.000 NA
ATOM     21  O   UNL     1       8.581   7.518  19.057  0.00  0.00    +0.000 OA
BRANCH  19  22
ATOM     22  C   UNL     1       6.610   6.090  16.423  0.00  0.00    +0.000 C 
ATOM     23  C   UNL     1       7.086   4.656  16.313  0.00  0.00    +0.000 C 
ATOM     24  C   UNL     1       5.869   3.952  15.750  0.00  0.00    +0.000 C 
ATOM     25  O   UNL     1       4.716   4.669  16.209  0.00  0.00    +0.000 OA
ATOM     26  C   UNL     1       5.155   5.895  16.818  0.00  0.00    +0.000 C 
ENDBRANCH  19  22
ENDBRANCH  13  17
TORSDOF 2
ENDMDL
MODEL 4
REMARK VINA RESULT:      -8.0      2.291      9.439
REMARK  Name = 
REMARK  3 active torsions:
REMARK  status: ('A' for Active; 'I' for Inactive)
REMARK    1  A    between atoms: C_1  and  N_2
REMARK    2  A    between atoms: C_13  and  C_14
REMARK    3  A    between atoms: C_16  and  C_17
REMARK                            x       y       z     vdW  Elec       q    Type
REMARK                         _______ _______ _______ _____ _____    ______ ____
ROOT
ATOM      1  C   UNL     1       3.569   6.052  17.253  0.00  0.00    +0.000 C 
ATOM      2  N   UNL     1       2.847   6.254  18.484  0.00  0.00    +0.000 N 
ATOM      3  C   UNL     1       2.584   5.334  19.481  0.00  0.00    +0.000 A 
ATOM      4  N   UNL     1       2.967   4.044  19.335  0.00  0.00    +0.000 N 
ATOM      5  C   UNL     1       3.296   3.231  20.512  0.00  0.00    +0.000 C 
ATOM      6  C   UNL     1       4.306   2.153  20.053  0.00  0.00    +0.000 C 
ATOM      7  O   UNL     1       3.806   1.361  18.952  0.00  0.00    +0.000 OA
ATOM      8  C   UNL     1       3.424   2.199  17.845  0.00  0.00    +0.000 C 
ATOM      9  C   UNL     1       2.362   3.220  18.276  0.00  0.00    +0.000 C 
ATOM     10  N   UNL     1       2.038   5.928  20.519  0.00  0.00    +0.000 NA
ATOM     11  C   UNL     1       1.837   7.241  20.144  0.00  0.00    +0.000 A 
ATOM     12  C   UNL     1       1.227   8.305  20.833  0.00  0.00    +0.000 A 
ATOM     13  C   UNL     1       1.122   9.561  20.201  0.00  0.00    +0.000 A 
ATOM     14  C   UNL     1       1.665   9.740  18.916  0.00  0.00    +0.000 A 
ATOM     15  C   UNL     1       2.294   8.704  18.227  0.00  0.00    +0.000 A 
ATOM     16  C   UNL     1       2.341   7.468  18.871  0.00  0.00    +0.000 A 
ENDROOT
BRANCH  13  17
ATOM     17  C   UNL     1       0.446  10.701  20.813  0.00  0.00    +0.000 A 
ATOM     18  N   UNL     1      -0.834  10.865  21.059  0.00  0.00    +0.000 NA
ATOM     19  C   UNL     1      -0.866  12.097  21.660  0.00  0.00    +0.000 A 
ATOM     20  N   UNL     1       0.326  12.690  21.782  0.00  0.00    +0.000 NA
ATOM     21  O   UNL     1       1.210  11.760  21.220  0.00  0.00    +0.000 OA
BRANCH  19  22
ATOM     22  C   UNL     1      -2.126  12.718  22.124  0.00  0.00    +0.000 C 
ATOM     23  C   UNL     1      -3.240  12.702  21.097  0.00  0.00    +0.000 C 
ATOM     24  C   UNL     1      -4.476  12.866  21.956  0.00  0.00    +0.000 C 
ATOM     25  O   UNL     1      -4.185  12.284  23.233  0.00  0.00    +0.000 OA
ATOM     26  C   UNL     1      -2.778  11.988  23.287  0.00  0.00    +0.000 C 
ENDBRANCH  19  22
ENDBRANCH  13  17
TORSDOF 2
ENDMDL
MODEL 5
REMARK VINA RESULT:      -7.9      2.104      3.219
REMARK  Name = 
REMARK  3 active torsions:
REMARK  status: ('A' for Active; 'I' for Inactive)
REMARK    1  A    between atoms: C_1  and  N_2
REMARK    2  A    between atoms: C_13  and  C_14
REMARK    3  A    between atoms: C_16  and  C_17
REMARK                            x       y       z     vdW  Elec       q    Type
REMARK                         _______ _______ _______ _____ _____    ______ ____
ROOT
ATOM      1  C   UNL     1       0.410   8.775  20.994  0.00  0.00    +0.000 C 
ATOM      2  N   UNL     1       1.128   8.894  19.750  0.00  0.00    +0.000 N 
ATOM      3  C   UNL     1       1.093   9.933  18.839  0.00  0.00    +0.000 A 
ATOM      4  N   UNL     1       0.262  10.983  19.037  0.00  0.00    +0.000 N 
ATOM      5  C   UNL     1       0.614  12.314  18.526  0.00  0.00    +0.000 C 
ATOM      6  C   UNL     1      -0.077  13.351  19.441  0.00  0.00    +0.000 C 
ATOM      7  O   UNL     1      -1.505  13.148  19.525  0.00  0.00    +0.000 OA
ATOM      8  C   UNL     1      -1.812  11.810  19.959  0.00  0.00    +0.000 C 
ATOM      9  C   UNL     1      -1.195  10.775  19.008  0.00  0.00    +0.000 C 
ATOM     10  N   UNL     1       2.001   9.755  17.906  0.00  0.00    +0.000 NA
ATOM     11  C   UNL     1       2.559   8.515  18.150  0.00  0.00    +0.000 A 
ATOM     12  C   UNL     1       3.527   7.791  17.430  0.00  0.00    +0.000 A 
ATOM     13  C   UNL     1       3.908   6.514  17.889  0.00  0.00    +0.000 A 
ATOM     14  C   UNL     1       3.349   6.006  19.075  0.00  0.00    +0.000 A 
ATOM     15  C   UNL     1       2.407   6.719  19.814  0.00  0.00    +0.000 A 
ATOM     16  C   UNL     1       2.028   7.961  19.306  0.00  0.00    +0.000 A 
ENDROOT
BRANCH  13  17
ATOM     17  C   UNL     1       4.853   5.664  17.170  0.00  0.00    +0.000 A 
ATOM     18  N   UNL     1       4.859   5.330  15.899  0.00  0.00    +0.000 NA
ATOM     19  C   UNL     1       5.983   4.553  15.801  0.00  0.00    +0.000 A 
ATOM     20  N   UNL     1       6.654   4.393  16.946  0.00  0.00    +0.000 NA
ATOM     21  O   UNL     1       5.904   5.136  17.867  0.00  0.00    +0.000 OA
BRANCH  19  22
ATOM     22  C   UNL     1       6.410   3.936  14.525  0.00  0.00    +0.000 C 
ATOM     23  C   UNL     1       5.279   3.692  13.547  0.00  0.00    +0.000 C 
ATOM     24  C   UNL     1       6.010   3.595  12.224  0.00  0.00    +0.000 C 
ATOM     25  O   UNL     1       7.182   4.412  12.327  0.00  0.00    +0.000 OA
ATOM     26  C   UNL     1       7.339   4.812  13.700  0.00  0.00    +0.000 C 
ENDBRANCH  19  22
ENDBRANCH  13  17
TORSDOF 2
ENDMDL
MODEL 6
REMARK VINA RESULT:      -7.8      1.801      2.313
REMARK  Name = 
REMARK  3 active torsions:
REMARK  status: ('A' for Active; 'I' for Inactive)
REMARK    1  A    between atoms: C_1  and  N_2
REMARK    2  A    between atoms: C_13  and  C_14
REMARK    3  A    between atoms: C_16  and  C_17
REMARK                            x       y       z     vdW  Elec       q    Type
REMARK                         _______ _______ _______ _____ _____    ______ ____
ROOT
ATOM      1  C   UNL     1      -0.524  12.642  19.228  0.00  0.00    +0.000 C 
ATOM      2  N   UNL     1      -0.057  11.460  19.907  0.00  0.00    +0.000 N 
ATOM      3  C   UNL     1      -0.280  11.082  21.217  0.00  0.00    +0.000 A 
ATOM      4  N   UNL     1      -0.966  11.897  22.052  0.00  0.00    +0.000 N 
ATOM      5  C   UNL     1      -1.753  11.334  23.157  0.00  0.00    +0.000 C 
ATOM      6  C   UNL     1      -2.899  12.330  23.453  0.00  0.00    +0.000 C 
ATOM      7  O   UNL     1      -2.414  13.661  23.738  0.00  0.00    +0.000 OA
ATOM      8  C   UNL     1      -1.587  14.149  22.665  0.00  0.00    +0.000 C 
ATOM      9  C   UNL     1      -0.402  13.206  22.420  0.00  0.00    +0.000 C 
ATOM     10  N   UNL     1       0.173   9.866  21.428  0.00  0.00    +0.000 NA
ATOM     11  C   UNL     1       0.808   9.490  20.260  0.00  0.00    +0.000 A 
ATOM     12  C   UNL     1       1.526   8.322  19.947  0.00  0.00    +0.000 A 
ATOM     13  C   UNL     1       2.109   8.198  18.669  0.00  0.00    +0.000 A 
ATOM     14  C   UNL     1       1.926   9.220  17.720  0.00  0.00    +0.000 A 
ATOM     15  C   UNL     1       1.198  10.373  18.004  0.00  0.00    +0.000 A 
ATOM     16  C   UNL     1       0.671  10.474  19.292  0.00  0.00    +0.000 A 
ENDROOT
BRANCH  13  17
ATOM     17  C   UNL     1       2.927   7.053  18.279  0.00  0.00    +0.000 A 
ATOM     18  N   UNL     1       2.725   5.777  18.519  0.00  0.00    +0.000 NA
ATOM     19  C   UNL     1       3.792   5.185  17.894  0.00  0.00    +0.000 A 
ATOM     20  N   UNL     1       4.633   6.036  17.297  0.00  0.00    +0.000 NA
ATOM     21  O   UNL     1       4.059   7.289  17.549  0.00  0.00    +0.000 OA
BRANCH  19  22
ATOM     22  C   UNL     1       3.995   3.719  17.894  0.00  0.00    +0.000 C 
ATOM     23  C   UNL     1       4.289   3.134  19.260  0.00  0.00    +0.000 C 
ATOM     24  C   UNL     1       3.916   1.678  19.077  0.00  0.00    +0.000 C 
ATOM     25  O   UNL     1       2.880   1.628  18.088  0.00  0.00    +0.000 OA
ATOM     26  C   UNL     1       2.762   2.929  17.487  0.00  0.00    +0.000 C 
ENDBRANCH  19  22
ENDBRANCH  13  17
TORSDOF 2
ENDMDL
MODEL 7
REMARK VINA RESULT:      -7.8      2.461      9.530
REMARK  Name = 
REMARK  3 active torsions:
REMARK  status: ('A' for Active; 'I' for Inactive)
REMARK    1  A    between atoms: C_1  and  N_2
REMARK    2  A    between atoms: C_13  and  C_14
REMARK    3  A    between atoms: C_16  and  C_17
REMARK                            x       y       z     vdW  Elec       q    Type
REMARK                         _______ _______ _______ _____ _____    ______ ____
ROOT
ATOM      1  C   UNL     1       4.433   5.096  19.643  0.00  0.00    +0.000 C 
ATOM      2  N   UNL     1       4.024   6.175  18.779  0.00  0.00    +0.000 N 
ATOM      3  C   UNL     1       4.532   6.516  17.540  0.00  0.00    +0.000 A 
ATOM      4  N   UNL     1       5.586   5.839  17.027  0.00  0.00    +0.000 N 
ATOM      5  C   UNL     1       5.744   5.706  15.573  0.00  0.00    +0.000 C 
ATOM      6  C   UNL     1       6.531   4.398  15.319  0.00  0.00    +0.000 C 
ATOM      7  O   UNL     1       7.794   4.369  16.020  0.00  0.00    +0.000 OA
ATOM      8  C   UNL     1       7.605   4.577  17.432  0.00  0.00    +0.000 C 
ATOM      9  C   UNL     1       6.895   5.913  17.695  0.00  0.00    +0.000 C 
ATOM     10  N   UNL     1       3.800   7.458  16.989  0.00  0.00    +0.000 NA
ATOM     11  C   UNL     1       2.864   7.818  17.939  0.00  0.00    +0.000 A 
ATOM     12  C   UNL     1       1.876   8.818  17.915  0.00  0.00    +0.000 A 
ATOM     13  C   UNL     1       1.056   8.998  19.047  0.00  0.00    +0.000 A 
ATOM     14  C   UNL     1       1.211   8.152  20.160  0.00  0.00    +0.000 A 
ATOM     15  C   UNL     1       2.169   7.141  20.193  0.00  0.00    +0.000 A 
ATOM     16  C   UNL     1       2.985   7.021  19.068  0.00  0.00    +0.000 A 
ENDROOT
BRANCH  13  17
ATOM     17  C   UNL     1       0.050  10.054  19.136  0.00  0.00    +0.000 A 
ATOM     18  N   UNL     1      -0.985  10.273  18.357  0.00  0.00    +0.000 NA
ATOM     19  C   UNL     1      -1.570  11.366  18.941  0.00  0.00    +0.000 A 
ATOM     20  N   UNL     1      -0.939  11.825  20.027  0.00  0.00    +0.000 NA
ATOM     21  O   UNL     1       0.145  10.949  20.165  0.00  0.00    +0.000 OA
BRANCH  19  22
ATOM     22  C   UNL     1      -2.798  11.990  18.400  0.00  0.00    +0.000 C 
ATOM     23  C   UNL     1      -3.526  11.139  17.379  0.00  0.00    +0.000 C 
ATOM     24  C   UNL     1      -4.926  11.716  17.415  0.00  0.00    +0.000 C 
ATOM     25  O   UNL     1      -5.140  12.225  18.738  0.00  0.00    +0.000 OA
ATOM     26  C   UNL     1      -3.885  12.209  19.440  0.00  0.00    +0.000 C 
ENDBRANCH  19  22
ENDBRANCH  13  17
TORSDOF 2
ENDMDL
MODEL 8
REMARK VINA RESULT:      -7.8      1.640      9.711
REMARK  Name = 
REMARK  3 active torsions:
REMARK  status: ('A' for Active; 'I' for Inactive)
REMARK    1  A    between atoms: C_1  and  N_2
REMARK    2  A    between atoms: C_13  and  C_14
REMARK    3  A    between atoms: C_16  and  C_17
REMARK                            x       y       z     vdW  Elec       q    Type
REMARK                         _______ _______ _______ _____ _____    ______ ____
ROOT
ATOM      1  C   UNL     1       3.822   4.919  19.519  0.00  0.00    +0.000 C 
ATOM      2  N   UNL     1       3.531   6.179  18.885  0.00  0.00    +0.000 N 
ATOM      3  C   UNL     1       4.059   6.688  17.713  0.00  0.00    +0.000 A 
ATOM      4  N   UNL     1       5.019   6.005  17.047  0.00  0.00    +0.000 N 
ATOM      5  C   UNL     1       5.140   6.130  15.588  0.00  0.00    +0.000 C 
ATOM      6  C   UNL     1       5.765   4.814  15.069  0.00  0.00    +0.000 C 
ATOM      7  O   UNL     1       7.025   4.511  15.708  0.00  0.00    +0.000 OA
ATOM      8  C   UNL     1       6.880   4.470  17.140  0.00  0.00    +0.000 C 
ATOM      9  C   UNL     1       6.336   5.803  17.670  0.00  0.00    +0.000 C 
ATOM     10  N   UNL     1       3.435   7.794  17.372  0.00  0.00    +0.000 NA
ATOM     11  C   UNL     1       2.561   8.071  18.404  0.00  0.00    +0.000 A 
ATOM     12  C   UNL     1       1.696   9.163  18.600  0.00  0.00    +0.000 A 
ATOM     13  C   UNL     1       0.918   9.219  19.775  0.00  0.00    +0.000 A 
ATOM     14  C   UNL     1       0.988   8.167  20.705  0.00  0.00    +0.000 A 
ATOM     15  C   UNL     1       1.821   7.066  20.517  0.00  0.00    +0.000 A 
ATOM     16  C   UNL     1       2.603   7.068  19.362  0.00  0.00    +0.000 A 
ENDROOT
BRANCH  13  17
ATOM     17  C   UNL     1       0.045  10.345  20.093  0.00  0.00    +0.000 A 
ATOM     18  N   UNL     1      -0.603  10.596  21.209  0.00  0.00    +0.000 NA
ATOM     19  C   UNL     1      -1.222  11.786  20.931  0.00  0.00    +0.000 A 
ATOM     20  N   UNL     1      -0.991  12.264  19.704  0.00  0.00    +0.000 NA
ATOM     21  O   UNL     1      -0.142  11.306  19.138  0.00  0.00    +0.000 OA
BRANCH  19  22
ATOM     22  C   UNL     1      -2.086  12.477  21.915  0.00  0.00    +0.000 C 
ATOM     23  C   UNL     1      -3.510  12.694  21.445  0.00  0.00    +0.000 C 
ATOM     24  C   UNL     1      -4.257  12.885  22.748  0.00  0.00    +0.000 C 
ATOM     25  O   UNL     1      -3.560  12.133  23.749  0.00  0.00    +0.000 OA
ATOM     26  C   UNL     1      -2.309  11.688  23.196  0.00  0.00    +0.000 C 
ENDBRANCH  19  22
ENDBRANCH  13  17
TORSDOF 2
ENDMDL
MODEL 9
REMARK VINA RESULT:      -7.8      1.053      1.192
REMARK  Name = 
REMARK  3 active torsions:
REMARK  status: ('A' for Active; 'I' for Inactive)
REMARK    1  A    between atoms: C_1  and  N_2
REMARK    2  A    between atoms: C_13  and  C_14
REMARK    3  A    between atoms: C_16  and  C_17
REMARK                            x       y       z     vdW  Elec       q    Type
REMARK                         _______ _______ _______ _____ _____    ______ ____
ROOT
ATOM      1  C   UNL     1      -0.841  12.234  19.085  0.00  0.00    +0.000 C 
ATOM      2  N   UNL     1      -0.270  11.169  19.869  0.00  0.00    +0.000 N 
ATOM      3  C   UNL     1      -0.376  10.958  21.231  0.00  0.00    +0.000 A 
ATOM      4  N   UNL     1      -1.034  11.851  22.007  0.00  0.00    +0.000 N 
ATOM      5  C   UNL     1      -1.709  11.410  23.235  0.00  0.00    +0.000 C 
ATOM      6  C   UNL     1      -2.874  12.394  23.492  0.00  0.00    +0.000 C 
ATOM      7  O   UNL     1      -2.430  13.767  23.565  0.00  0.00    +0.000 OA
ATOM      8  C   UNL     1      -1.709  14.140  22.375  0.00  0.00    +0.000 C 
ATOM      9  C   UNL     1      -0.503  13.216  22.158  0.00  0.00    +0.000 C 
ATOM     10  N   UNL     1       0.147   9.797  21.557  0.00  0.00    +0.000 NA
ATOM     11  C   UNL     1       0.708   9.294  20.400  0.00  0.00    +0.000 A 
ATOM     12  C   UNL     1       1.454   8.122  20.181  0.00  0.00    +0.000 A 
ATOM     13  C   UNL     1       1.943   7.852  18.887  0.00  0.00    +0.000 A 
ATOM     14  C   UNL     1       1.643   8.733  17.833  0.00  0.00    +0.000 A 
ATOM     15  C   UNL     1       0.886   9.887  18.026  0.00  0.00    +0.000 A 
ATOM     16  C   UNL     1       0.454  10.137  19.328  0.00  0.00    +0.000 A 
ENDROOT
BRANCH  13  17
ATOM     17  C   UNL     1       2.781   6.696  18.583  0.00  0.00    +0.000 A 
ATOM     18  N   UNL     1       4.068   6.533  18.794  0.00  0.00    +0.000 NA
ATOM     19  C   UNL     1       4.285   5.259  18.337  0.00  0.00    +0.000 A 
ATOM     20  N   UNL     1       3.200   4.646  17.853  0.00  0.00    +0.000 NA
ATOM     21  O   UNL     1       2.189   5.602  18.016  0.00  0.00    +0.000 OA
BRANCH  19  22
ATOM     22  C   UNL     1       5.620   4.622  18.372  0.00  0.00    +0.000 C 
ATOM     23  C   UNL     1       6.319   4.575  17.029  0.00  0.00    +0.000 C 
ATOM     24  C   UNL     1       7.771   4.409  17.424  0.00  0.00    +0.000 C 
ATOM     25  O   UNL     1       7.938   5.042  18.698  0.00  0.00    +0.000 OA
ATOM     26  C   UNL     1       6.637   5.376  19.214  0.00  0.00    +0.000 C 
ENDBRANCH  19  22
ENDBRANCH  13  17
TORSDOF 2
ENDMDL
