MODEL 1
REMARK VINA RESULT:      -8.2      0.000      0.000
REMARK  Name = 
REMARK  5 active torsions:
REMARK  status: ('A' for Active; 'I' for Inactive)
REMARK    1  A    between atoms: C_2  and  C_3
REMARK    2  A    between atoms: C_6  and  N_7
REMARK    3  A    between atoms: N_7  and  S_8
REMARK    4  A    between atoms: S_8  and  C_11
REMARK    5  A    between atoms: C_16  and  C_17
REMARK                            x       y       z     vdW  Elec       q    Type
REMARK                         _______ _______ _______ _____ _____    ______ ____
ROOT
ATOM      1  S   UNL     1       3.442   2.783  18.055  0.00  0.00    +0.000 S 
ATOM      2  O   UNL     1       2.329   2.107  17.426  0.00  0.00    +0.000 OA
ATOM      3  O   UNL     1       4.278   2.099  19.017  0.00  0.00    +0.000 OA
ENDROOT
BRANCH   1   4
ATOM      4  C   UNL     1       2.753   4.230  18.853  0.00  0.00    +0.000 A 
ATOM      5  C   UNL     1       2.873   5.457  18.176  0.00  0.00    +0.000 A 
ATOM      6  C   UNL     1       2.472   6.648  18.784  0.00  0.00    +0.000 A 
ATOM      7  C   UNL     1       1.946   6.626  20.070  0.00  0.00    +0.000 A 
ATOM      8  C   UNL     1       1.817   5.411  20.743  0.00  0.00    +0.000 A 
ATOM      9  C   UNL     1       2.220   4.189  20.156  0.00  0.00    +0.000 A 
BRANCH   9  10
ATOM     10  C   UNL     1       2.035   2.947  20.995  0.00  0.00    +0.000 C 
ATOM     11  F   UNL     1       1.513   1.859  20.374  0.00  0.00    +0.000 F 
ATOM     12  F   UNL     1       3.190   2.535  21.581  0.00  0.00    +0.000 F 
ATOM     13  F   UNL     1       1.166   3.186  22.023  0.00  0.00    +0.000 F 
ENDBRANCH   9  10
ENDBRANCH   1   4
BRANCH   1  14
ATOM     14  N   UNL     1       4.438   3.385  16.844  0.00  0.00    +0.000 N 
ATOM     15  H   UNL     1       4.172   3.110  15.895  0.00  0.00    +0.000 HD
BRANCH  14  19
ATOM     16  C   UNL     1       6.862   6.770  17.516  0.00  0.00    +0.000 A 
ATOM     17  C   UNL     1       5.950   6.747  16.450  0.00  0.00    +0.000 A 
ATOM     18  C   UNL     1       5.157   5.617  16.223  0.00  0.00    +0.000 A 
ATOM     19  C   UNL     1       5.268   4.507  17.063  0.00  0.00    +0.000 A 
ATOM     20  C   UNL     1       6.155   4.528  18.134  0.00  0.00    +0.000 A 
ATOM     21  C   UNL     1       6.957   5.653  18.355  0.00  0.00    +0.000 A 
ATOM     22 CL   UNL     1       8.050   5.601  19.692  0.00  0.00    +0.000 Cl
BRANCH  16  24
ATOM     23  N   UNL     1       8.296   8.899  17.903  0.00  0.00    +0.000 NA
ATOM     24  C   UNL     1       7.664   7.940  17.720  0.00  0.00    +0.000 C 
ENDBRANCH  16  24
ENDBRANCH  14  19
ENDBRANCH   1  14
TORSDOF 5
ENDMDL
MODEL 2
REMARK VINA RESULT:      -8.0      1.412      1.677
REMARK  Name = 
REMARK  5 active torsions:
REMARK  status: ('A' for Active; 'I' for Inactive)
REMARK    1  A    between atoms: C_2  and  C_3
REMARK    2  A    between atoms: C_6  and  N_7
REMARK    3  A    between atoms: N_7  and  S_8
REMARK    4  A    between atoms: S_8  and  C_11
REMARK    5  A    between atoms: C_16  and  C_17
REMARK                            x       y       z     vdW  Elec       q    Type
REMARK                         _______ _______ _______ _____ _____    ______ ____
ROOT
ATOM      1  S   UNL     1       2.612   2.712  18.068  0.00  0.00    +0.000 S 
ATOM      2  O   UNL     1       2.182   2.858  16.694  0.00  0.00    +0.000 OA
ATOM      3  O   UNL     1       2.108   1.636  18.894  0.00  0.00    +0.000 OA
ENDROOT
BRANCH   1   4
ATOM      4  C   UNL     1       2.215   4.259  18.876  0.00  0.00    +0.000 A 
ATOM      5  C   UNL     1       2.094   5.400  18.060  0.00  0.00    +0.000 A 
ATOM      6  C   UNL     1       1.908   6.662  18.625  0.00  0.00    +0.000 A 
ATOM      7  C   UNL     1       1.839   6.800  20.006  0.00  0.00    +0.000 A 
ATOM      8  C   UNL     1       1.950   5.672  20.819  0.00  0.00    +0.000 A 
ATOM      9  C   UNL     1       2.145   4.380  20.277  0.00  0.00    +0.000 A 
BRANCH   9  10
ATOM     10  C   UNL     1       2.258   3.246  21.268  0.00  0.00    +0.000 C 
ATOM     11  F   UNL     1       1.245   2.344  21.286  0.00  0.00    +0.000 F 
ATOM     12  F   UNL     1       3.404   2.532  21.116  0.00  0.00    +0.000 F 
ATOM     13  F   UNL     1       2.292   3.727  22.548  0.00  0.00    +0.000 F 
ENDBRANCH   9  10
ENDBRANCH   1   4
BRANCH   1  14
ATOM     14  N   UNL     1       4.289   2.630  18.083  0.00  0.00    +0.000 N 
ATOM     15  H   UNL     1       4.674   1.701  17.894  0.00  0.00    +0.000 HD
BRANCH  14  19
ATOM     16  C   UNL     1       6.718   6.046  17.618  0.00  0.00    +0.000 A 
ATOM     17  C   UNL     1       6.280   5.651  18.891  0.00  0.00    +0.000 A 
ATOM     18  C   UNL     1       5.464   4.524  19.039  0.00  0.00    +0.000 A 
ATOM     19  C   UNL     1       5.085   3.785  17.917  0.00  0.00    +0.000 A 
ATOM     20  C   UNL     1       5.530   4.157  16.653  0.00  0.00    +0.000 A 
ATOM     21  C   UNL     1       6.337   5.291  16.502  0.00  0.00    +0.000 A 
ATOM     22 CL   UNL     1       6.835   5.706  14.901  0.00  0.00    +0.000 Cl
BRANCH  16  24
ATOM     23  N   UNL     1       8.207   8.159  17.383  0.00  0.00    +0.000 NA
ATOM     24  C   UNL     1       7.549   7.207  17.499  0.00  0.00    +0.000 C 
ENDBRANCH  16  24
ENDBRANCH  14  19
ENDBRANCH   1  14
TORSDOF 5
ENDMDL
MODEL 3
REMARK VINA RESULT:      -7.8      4.003      5.852
REMARK  Name = 
REMARK  5 active torsions:
REMARK  status: ('A' for Active; 'I' for Inactive)
REMARK    1  A    between atoms: C_2  and  C_3
REMARK    2  A    between atoms: C_6  and  N_7
REMARK    3  A    between atoms: N_7  and  S_8
REMARK    4  A    between atoms: S_8  and  C_11
REMARK    5  A    between atoms: C_16  and  C_17
REMARK                            x       y       z     vdW  Elec       q    Type
REMARK                         _______ _______ _______ _____ _____    ______ ____
ROOT
ATOM      1  S   UNL     1       3.051   5.855  18.357  0.00  0.00    +0.000 S 
ATOM      2  O   UNL     1       3.581   5.598  19.679  0.00  0.00    +0.000 OA
ATOM      3  O   UNL     1       1.730   5.394  17.986  0.00  0.00    +0.000 OA
ENDROOT
BRANCH   1   4
ATOM      4  C   UNL     1       4.226   5.148  17.208  0.00  0.00    +0.000 A 
ATOM      5  C   UNL     1       4.914   6.037  16.362  0.00  0.00    +0.000 A 
ATOM      6  C   UNL     1       5.754   5.556  15.356  0.00  0.00    +0.000 A 
ATOM      7  C   UNL     1       5.918   4.187  15.186  0.00  0.00    +0.000 A 
ATOM      8  C   UNL     1       5.245   3.301  16.028  0.00  0.00    +0.000 A 
ATOM      9  C   UNL     1       4.382   3.757  17.051  0.00  0.00    +0.000 A 
BRANCH   9  10
ATOM     10  C   UNL     1       3.707   2.693  17.885  0.00  0.00    +0.000 C 
ATOM     11  F   UNL     1       2.352   2.724  17.937  0.00  0.00    +0.000 F 
ATOM     12  F   UNL     1       4.047   1.435  17.500  0.00  0.00    +0.000 F 
ATOM     13  F   UNL     1       4.089   2.793  19.194  0.00  0.00    +0.000 F 
ENDBRANCH   9  10
ENDBRANCH   1   4
BRANCH   1  14
ATOM     14  N   UNL     1       3.113   7.510  18.083  0.00  0.00    +0.000 N 
ATOM     15  H   UNL     1       3.667   7.790  17.270  0.00  0.00    +0.000 HD
BRANCH  14  19
ATOM     16  C   UNL     1       0.181  10.088  19.681  0.00  0.00    +0.000 A 
ATOM     17  C   UNL     1       0.536  10.165  18.325  0.00  0.00    +0.000 A 
ATOM     18  C   UNL     1       1.518   9.317  17.803  0.00  0.00    +0.000 A 
ATOM     19  C   UNL     1       2.147   8.385  18.630  0.00  0.00    +0.000 A 
ATOM     20  C   UNL     1       1.788   8.286  19.970  0.00  0.00    +0.000 A 
ATOM     21  C   UNL     1       0.814   9.142  20.497  0.00  0.00    +0.000 A 
ATOM     22 CL   UNL     1       0.433   8.978  22.175  0.00  0.00    +0.000 Cl
BRANCH  16  24
ATOM     23  N   UNL     1      -1.648  11.674  20.618  0.00  0.00    +0.000 NA
ATOM     24  C   UNL     1      -0.825  10.973  20.187  0.00  0.00    +0.000 C 
ENDBRANCH  16  24
ENDBRANCH  14  19
ENDBRANCH   1  14
TORSDOF 5
ENDMDL
MODEL 4
REMARK VINA RESULT:      -7.8      3.821      5.649
REMARK  Name = 
REMARK  5 active torsions:
REMARK  status: ('A' for Active; 'I' for Inactive)
REMARK    1  A    between atoms: C_2  and  C_3
REMARK    2  A    between atoms: C_6  and  N_7
REMARK    3  A    between atoms: N_7  and  S_8
REMARK    4  A    between atoms: S_8  and  C_11
REMARK    5  A    between atoms: C_16  and  C_17
REMARK                            x       y       z     vdW  Elec       q    Type
REMARK                         _______ _______ _______ _____ _____    ______ ____
ROOT
ATOM      1  S   UNL     1       1.975   4.798  20.690  0.00  0.00    +0.000 S 
ATOM      2  O   UNL     1       2.274   3.838  21.731  0.00  0.00    +0.000 OA
ATOM      3  O   UNL     1       0.681   4.815  20.045  0.00  0.00    +0.000 OA
ENDROOT
BRANCH   1   4
ATOM      4  C   UNL     1       3.219   4.557  19.426  0.00  0.00    +0.000 A 
ATOM      5  C   UNL     1       4.275   5.486  19.376  0.00  0.00    +0.000 A 
ATOM      6  C   UNL     1       5.216   5.440  18.347  0.00  0.00    +0.000 A 
ATOM      7  C   UNL     1       5.115   4.467  17.360  0.00  0.00    +0.000 A 
ATOM      8  C   UNL     1       4.075   3.538  17.408  0.00  0.00    +0.000 A 
ATOM      9  C   UNL     1       3.103   3.564  18.436  0.00  0.00    +0.000 A 
BRANCH   9  10
ATOM     10  C   UNL     1       2.025   2.508  18.366  0.00  0.00    +0.000 C 
ATOM     11  F   UNL     1       1.843   1.744  19.473  0.00  0.00    +0.000 F 
ATOM     12  F   UNL     1       0.808   3.024  18.052  0.00  0.00    +0.000 F 
ATOM     13  F   UNL     1       2.304   1.599  17.383  0.00  0.00    +0.000 F 
ENDBRANCH   9  10
ENDBRANCH   1   4
BRANCH   1  14
ATOM     14  N   UNL     1       2.265   6.335  21.301  0.00  0.00    +0.000 N 
ATOM     15  H   UNL     1       3.163   6.445  21.778  0.00  0.00    +0.000 HD
BRANCH  14  19
ATOM     16  C   UNL     1       0.200   9.741  19.913  0.00  0.00    +0.000 A 
ATOM     17  C   UNL     1      -0.162   9.132  21.124  0.00  0.00    +0.000 A 
ATOM     18  C   UNL     1       0.517   7.995  21.574  0.00  0.00    +0.000 A 
ATOM     19  C   UNL     1       1.563   7.464  20.819  0.00  0.00    +0.000 A 
ATOM     20  C   UNL     1       1.944   8.071  19.627  0.00  0.00    +0.000 A 
ATOM     21  C   UNL     1       1.257   9.201  19.170  0.00  0.00    +0.000 A 
ATOM     22 CL   UNL     1       1.770   9.891  17.671  0.00  0.00    +0.000 Cl
BRANCH  16  24
ATOM     23  N   UNL     1      -1.103  11.833  19.097  0.00  0.00    +0.000 NA
ATOM     24  C   UNL     1      -0.518  10.901  19.476  0.00  0.00    +0.000 C 
ENDBRANCH  16  24
ENDBRANCH  14  19
ENDBRANCH   1  14
TORSDOF 5
ENDMDL
MODEL 5
REMARK VINA RESULT:      -7.7      4.151      6.157
REMARK  Name = 
REMARK  5 active torsions:
REMARK  status: ('A' for Active; 'I' for Inactive)
REMARK    1  A    between atoms: C_2  and  C_3
REMARK    2  A    between atoms: C_6  and  N_7
REMARK    3  A    between atoms: N_7  and  S_8
REMARK    4  A    between atoms: S_8  and  C_11
REMARK    5  A    between atoms: C_16  and  C_17
REMARK                            x       y       z     vdW  Elec       q    Type
REMARK                         _______ _______ _______ _____ _____    ______ ____
ROOT
ATOM      1  S   UNL     1       2.712   5.736  18.746  0.00  0.00    +0.000 S 
ATOM      2  O   UNL     1       3.306   5.411  20.026  0.00  0.00    +0.000 OA
ATOM      3  O   UNL     1       1.430   5.188  18.363  0.00  0.00    +0.000 OA
ENDROOT
BRANCH   1   4
ATOM      4  C   UNL     1       3.912   5.252  17.509  0.00  0.00    +0.000 A 
ATOM      5  C   UNL     1       4.572   6.282  16.814  0.00  0.00    +0.000 A 
ATOM      6  C   UNL     1       5.428   5.989  15.752  0.00  0.00    +0.000 A 
ATOM      7  C   UNL     1       5.637   4.668  15.375  0.00  0.00    +0.000 A 
ATOM      8  C   UNL     1       4.992   3.642  16.066  0.00  0.00    +0.000 A 
ATOM      9  C   UNL     1       4.114   3.908  17.142  0.00  0.00    +0.000 A 
BRANCH   9  10
ATOM     10  C   UNL     1       3.473   2.707  17.798  0.00  0.00    +0.000 C 
ATOM     11  F   UNL     1       3.517   2.653  19.153  0.00  0.00    +0.000 F 
ATOM     12  F   UNL     1       2.168   2.557  17.451  0.00  0.00    +0.000 F 
ATOM     13  F   UNL     1       4.094   1.555  17.403  0.00  0.00    +0.000 F 
ENDBRANCH   9  10
ENDBRANCH   1   4
BRANCH   1  14
ATOM     14  N   UNL     1       2.613   7.408  18.628  0.00  0.00    +0.000 N 
ATOM     15  H   UNL     1       2.859   7.788  17.711  0.00  0.00    +0.000 HD
BRANCH  14  19
ATOM     16  C   UNL     1       0.369   9.692  21.374  0.00  0.00    +0.000 A 
ATOM     17  C   UNL     1       1.024   8.522  21.787  0.00  0.00    +0.000 A 
ATOM     18  C   UNL     1       1.756   7.760  20.870  0.00  0.00    +0.000 A 
ATOM     19  C   UNL     1       1.842   8.166  19.538  0.00  0.00    +0.000 A 
ATOM     20  C   UNL     1       1.214   9.335  19.122  0.00  0.00    +0.000 A 
ATOM     21  C   UNL     1       0.470  10.092  20.035  0.00  0.00    +0.000 A 
ATOM     22 CL   UNL     1      -0.300  11.521  19.444  0.00  0.00    +0.000 Cl
BRANCH  16  24
ATOM     23  N   UNL     1      -0.961  11.063  23.131  0.00  0.00    +0.000 NA
ATOM     24  C   UNL     1      -0.377  10.448  22.335  0.00  0.00    +0.000 C 
ENDBRANCH  16  24
ENDBRANCH  14  19
ENDBRANCH   1  14
TORSDOF 5
ENDMDL
MODEL 6
REMARK VINA RESULT:      -7.6      4.039      5.716
REMARK  Name = 
REMARK  5 active torsions:
REMARK  status: ('A' for Active; 'I' for Inactive)
REMARK    1  A    between atoms: C_2  and  C_3
REMARK    2  A    between atoms: C_6  and  N_7
REMARK    3  A    between atoms: N_7  and  S_8
REMARK    4  A    between atoms: S_8  and  C_11
REMARK    5  A    between atoms: C_16  and  C_17
REMARK                            x       y       z     vdW  Elec       q    Type
REMARK                         _______ _______ _______ _____ _____    ______ ____
ROOT
ATOM      1  S   UNL     1       2.608   5.337  19.643  0.00  0.00    +0.000 S 
ATOM      2  O   UNL     1       3.004   4.488  20.747  0.00  0.00    +0.000 OA
ATOM      3  O   UNL     1       1.268   5.275  19.103  0.00  0.00    +0.000 OA
ENDROOT
BRANCH   1   4
ATOM      4  C   UNL     1       3.756   4.986  18.315  0.00  0.00    +0.000 A 
ATOM      5  C   UNL     1       4.486   6.069  17.792  0.00  0.00    +0.000 A 
ATOM      6  C   UNL     1       5.308   5.901  16.676  0.00  0.00    +0.000 A 
ATOM      7  C   UNL     1       5.411   4.653  16.074  0.00  0.00    +0.000 A 
ATOM      8  C   UNL     1       4.696   3.573  16.594  0.00  0.00    +0.000 A 
ATOM      9  C   UNL     1       3.851   3.714  17.719  0.00  0.00    +0.000 A 
BRANCH   9  10
ATOM     10  C   UNL     1       3.126   2.469  18.174  0.00  0.00    +0.000 C 
ATOM     11  F   UNL     1       3.243   2.137  19.485  0.00  0.00    +0.000 F 
ATOM     12  F   UNL     1       1.794   2.512  17.908  0.00  0.00    +0.000 F 
ATOM     13  F   UNL     1       3.598   1.369  17.514  0.00  0.00    +0.000 F 
ENDBRANCH   9  10
ENDBRANCH   1   4
BRANCH   1  14
ATOM     14  N   UNL     1       2.915   6.930  20.076  0.00  0.00    +0.000 N 
ATOM     15  H   UNL     1       3.889   7.129  20.318  0.00  0.00    +0.000 HD
BRANCH  14  19
ATOM     16  C   UNL     1       0.256  10.005  18.950  0.00  0.00    +0.000 A 
ATOM     17  C   UNL     1       1.077   9.386  17.994  0.00  0.00    +0.000 A 
ATOM     18  C   UNL     1       1.966   8.376  18.375  0.00  0.00    +0.000 A 
ATOM     19  C   UNL     1       2.037   7.975  19.710  0.00  0.00    +0.000 A 
ATOM     20  C   UNL     1       1.215   8.568  20.662  0.00  0.00    +0.000 A 
ATOM     21  C   UNL     1       0.333   9.588  20.285  0.00  0.00    +0.000 A 
ATOM     22 CL   UNL     1      -0.644  10.293  21.523  0.00  0.00    +0.000 Cl
BRANCH  16  24
ATOM     23  N   UNL     1      -1.390  11.863  18.191  0.00  0.00    +0.000 NA
ATOM     24  C   UNL     1      -0.641  11.040  18.531  0.00  0.00    +0.000 C 
ENDBRANCH  16  24
ENDBRANCH  14  19
ENDBRANCH   1  14
TORSDOF 5
ENDMDL
MODEL 7
REMARK VINA RESULT:      -7.6      3.320      4.043
REMARK  Name = 
REMARK  5 active torsions:
REMARK  status: ('A' for Active; 'I' for Inactive)
REMARK    1  A    between atoms: C_2  and  C_3
REMARK    2  A    between atoms: C_6  and  N_7
REMARK    3  A    between atoms: N_7  and  S_8
REMARK    4  A    between atoms: S_8  and  C_11
REMARK    5  A    between atoms: C_16  and  C_17
REMARK                            x       y       z     vdW  Elec       q    Type
REMARK                         _______ _______ _______ _____ _____    ______ ____
ROOT
ATOM      1  S   UNL     1       4.829   4.538  19.127  0.00  0.00    +0.000 S 
ATOM      2  O   UNL     1       5.842   4.294  20.132  0.00  0.00    +0.000 OA
ATOM      3  O   UNL     1       4.589   5.872  18.623  0.00  0.00    +0.000 OA
ENDROOT
BRANCH   1   4
ATOM      4  C   UNL     1       3.295   3.922  19.813  0.00  0.00    +0.000 A 
ATOM      5  C   UNL     1       3.362   3.269  21.058  0.00  0.00    +0.000 A 
ATOM      6  C   UNL     1       2.233   2.655  21.601  0.00  0.00    +0.000 A 
ATOM      7  C   UNL     1       1.027   2.687  20.911  0.00  0.00    +0.000 A 
ATOM      8  C   UNL     1       0.953   3.340  19.680  0.00  0.00    +0.000 A 
ATOM      9  C   UNL     1       2.081   3.967  19.101  0.00  0.00    +0.000 A 
BRANCH   9  10
ATOM     10  C   UNL     1       1.867   4.630  17.761  0.00  0.00    +0.000 C 
ATOM     11  F   UNL     1       2.719   4.283  16.762  0.00  0.00    +0.000 F 
ATOM     12  F   UNL     1       0.612   4.436  17.277  0.00  0.00    +0.000 F 
ATOM     13  F   UNL     1       2.016   5.984  17.865  0.00  0.00    +0.000 F 
ENDBRANCH   9  10
ENDBRANCH   1   4
BRANCH   1  14
ATOM     14  N   UNL     1       5.150   3.542  17.813  0.00  0.00    +0.000 N 
ATOM     15  H   UNL     1       4.581   2.693  17.769  0.00  0.00    +0.000 HD
BRANCH  14  19
ATOM     16  C   UNL     1       7.142   4.970  14.380  0.00  0.00    +0.000 A 
ATOM     17  C   UNL     1       7.546   5.379  15.660  0.00  0.00    +0.000 A 
ATOM     18  C   UNL     1       6.874   4.913  16.795  0.00  0.00    +0.000 A 
ATOM     19  C   UNL     1       5.799   4.033  16.658  0.00  0.00    +0.000 A 
ATOM     20  C   UNL     1       5.403   3.606  15.395  0.00  0.00    +0.000 A 
ATOM     21  C   UNL     1       6.067   4.081  14.257  0.00  0.00    +0.000 A 
ATOM     22 CL   UNL     1       5.508   3.525  12.720  0.00  0.00    +0.000 Cl
BRANCH  16  24
ATOM     23  N   UNL     1       8.411   5.851  12.295  0.00  0.00    +0.000 NA
ATOM     24  C   UNL     1       7.846   5.469  13.237  0.00  0.00    +0.000 C 
ENDBRANCH  16  24
ENDBRANCH  14  19
ENDBRANCH   1  14
TORSDOF 5
ENDMDL
MODEL 8
REMARK VINA RESULT:      -7.6      3.574      5.512
REMARK  Name = 
REMARK  5 active torsions:
REMARK  status: ('A' for Active; 'I' for Inactive)
REMARK    1  A    between atoms: C_2  and  C_3
REMARK    2  A    between atoms: C_6  and  N_7
REMARK    3  A    between atoms: N_7  and  S_8
REMARK    4  A    between atoms: S_8  and  C_11
REMARK    5  A    between atoms: C_16  and  C_17
REMARK                            x       y       z     vdW  Elec       q    Type
REMARK                         _______ _______ _______ _____ _____    ______ ____
ROOT
ATOM      1  S   UNL     1       4.236   3.336  18.310  0.00  0.00    +0.000 S 
ATOM      2  O   UNL     1       4.173   3.047  19.726  0.00  0.00    +0.000 OA
ATOM      3  O   UNL     1       4.383   2.271  17.341  0.00  0.00    +0.000 OA
ENDROOT
BRANCH   1   4
ATOM      4  C   UNL     1       5.606   4.468  18.098  0.00  0.00    +0.000 A 
ATOM      5  C   UNL     1       6.173   5.018  19.262  0.00  0.00    +0.000 A 
ATOM      6  C   UNL     1       7.161   6.001  19.176  0.00  0.00    +0.000 A 
ATOM      7  C   UNL     1       7.593   6.442  17.932  0.00  0.00    +0.000 A 
ATOM      8  C   UNL     1       7.039   5.895  16.774  0.00  0.00    +0.000 A 
ATOM      9  C   UNL     1       6.033   4.903  16.828  0.00  0.00    +0.000 A 
BRANCH   9  10
ATOM     10  C   UNL     1       5.512   4.401  15.502  0.00  0.00    +0.000 C 
ATOM     11  F   UNL     1       4.166   4.278  15.378  0.00  0.00    +0.000 F 
ATOM     12  F   UNL     1       5.923   5.166  14.456  0.00  0.00    +0.000 F 
ATOM     13  F   UNL     1       5.982   3.144  15.245  0.00  0.00    +0.000 F 
ENDBRANCH   9  10
ENDBRANCH   1   4
BRANCH   1  14
ATOM     14  N   UNL     1       2.870   4.220  17.898  0.00  0.00    +0.000 N 
ATOM     15  H   UNL     1       2.191   3.717  17.320  0.00  0.00    +0.000 HD
BRANCH  14  19
ATOM     16  C   UNL     1       1.762   7.620  20.136  0.00  0.00    +0.000 A 
ATOM     17  C   UNL     1       1.697   6.339  20.705  0.00  0.00    +0.000 A 
ATOM     18  C   UNL     1       2.053   5.213  19.955  0.00  0.00    +0.000 A 
ATOM     19  C   UNL     1       2.480   5.361  18.635  0.00  0.00    +0.000 A 
ATOM     20  C   UNL     1       2.567   6.628  18.067  0.00  0.00    +0.000 A 
ATOM     21  C   UNL     1       2.200   7.754  18.812  0.00  0.00    +0.000 A 
ATOM     22 CL   UNL     1       2.314   9.294  18.037  0.00  0.00    +0.000 Cl
BRANCH  16  24
ATOM     23  N   UNL     1       1.065   9.681  21.551  0.00  0.00    +0.000 NA
ATOM     24  C   UNL     1       1.386   8.752  20.928  0.00  0.00    +0.000 C 
ENDBRANCH  16  24
ENDBRANCH  14  19
ENDBRANCH   1  14
TORSDOF 5
ENDMDL
MODEL 9
REMARK VINA RESULT:      -7.6      4.279      5.973
REMARK  Name = 
REMARK  5 active torsions:
REMARK  status: ('A' for Active; 'I' for Inactive)
REMARK    1  A    between atoms: C_2  and  C_3
REMARK    2  A    between atoms: C_6  and  N_7
REMARK    3  A    between atoms: N_7  and  S_8
REMARK    4  A    between atoms: S_8  and  C_11
REMARK    5  A    between atoms: C_16  and  C_17
REMARK                            x       y       z     vdW  Elec       q    Type
REMARK                         _______ _______ _______ _____ _____    ______ ____
ROOT
ATOM      1  S   UNL     1       1.970   5.414  20.462  0.00  0.00    +0.000 S 
ATOM      2  O   UNL     1       2.494   4.779  21.652  0.00  0.00    +0.000 OA
ATOM      3  O   UNL     1       0.547   5.442  20.201  0.00  0.00    +0.000 OA
ENDROOT
BRANCH   1   4
ATOM      4  C   UNL     1       2.769   4.608  19.079  0.00  0.00    +0.000 A 
ATOM      5  C   UNL     1       3.650   5.383  18.302  0.00  0.00    +0.000 A 
ATOM      6  C   UNL     1       4.217   4.864  17.137  0.00  0.00    +0.000 A 
ATOM      7  C   UNL     1       3.913   3.569  16.737  0.00  0.00    +0.000 A 
ATOM      8  C   UNL     1       3.047   2.792  17.507  0.00  0.00    +0.000 A 
ATOM      9  C   UNL     1       2.452   3.293  18.689  0.00  0.00    +0.000 A 
BRANCH   9  10
ATOM     10  C   UNL     1       1.526   2.352  19.424  0.00  0.00    +0.000 C 
ATOM     11  F   UNL     1       1.716   2.226  20.762  0.00  0.00    +0.000 F 
ATOM     12  F   UNL     1       0.216   2.670  19.253  0.00  0.00    +0.000 F 
ATOM     13  F   UNL     1       1.661   1.077  18.951  0.00  0.00    +0.000 F 
ENDBRANCH   9  10
ENDBRANCH   1   4
BRANCH   1  14
ATOM     14  N   UNL     1       2.529   6.997  20.428  0.00  0.00    +0.000 N 
ATOM     15  H   UNL     1       3.487   7.106  20.086  0.00  0.00    +0.000 HD
BRANCH  14  19
ATOM     16  C   UNL     1      -0.174  10.235  20.404  0.00  0.00    +0.000 A 
ATOM     17  C   UNL     1       0.489   9.852  19.229  0.00  0.00    +0.000 A 
ATOM     18  C   UNL     1       1.395   8.786  19.244  0.00  0.00    +0.000 A 
ATOM     19  C   UNL     1       1.638   8.094  20.432  0.00  0.00    +0.000 A 
ATOM     20  C   UNL     1       0.971   8.453  21.598  0.00  0.00    +0.000 A 
ATOM     21  C   UNL     1       0.074   9.527  21.587  0.00  0.00    +0.000 A 
ATOM     22 CL   UNL     1      -0.704   9.930  23.077  0.00  0.00    +0.000 Cl
BRANCH  16  24
ATOM     23  N   UNL     1      -1.857  12.209  20.327  0.00  0.00    +0.000 NA
ATOM     24  C   UNL     1      -1.092  11.334  20.357  0.00  0.00    +0.000 C 
ENDBRANCH  16  24
ENDBRANCH  14  19
ENDBRANCH   1  14
TORSDOF 5
ENDMDL
