MODEL 1
REMARK VINA RESULT:      -8.9      0.000      0.000
REMARK  Name = 
REMARK  6 active torsions:
REMARK  status: ('A' for Active; 'I' for Inactive)
REMARK    1  A    between atoms: C_2  and  O_3
REMARK    2  A    between atoms: C_2  and  C_4
REMARK    3  A    between atoms: N_6  and  C_7
REMARK    4  A    between atoms: C_7  and  C_8
REMARK    5  A    between atoms: C_8  and  C_9
REMARK    6  A    between atoms: C_21  and  O_22
REMARK                            x       y       z     vdW  Elec       q    Type
REMARK                         _______ _______ _______ _____ _____    ______ ____
ROOT
ATOM      1  C   UNL     1       6.909   6.073  17.666  0.00  0.00    +0.000 A 
ATOM      2  C   UNL     1       6.177   5.516  18.653  0.00  0.00    +0.000 A 
ATOM      3  N   UNL     1       5.367   4.382  18.514  0.00  0.00    +0.000 N 
ATOM      4  C   UNL     1       5.261   3.865  17.230  0.00  0.00    +0.000 A 
ATOM      5  C   UNL     1       5.933   4.278  16.149  0.00  0.00    +0.000 A 
ATOM      6  C   UNL     1       6.861   5.432  16.331  0.00  0.00    +0.000 A 
ATOM      7  O   UNL     1       7.543   5.877  15.408  0.00  0.00    +0.000 OA
ENDROOT
BRANCH   1   9
ATOM      8  O   UNL     1       7.648   8.285  17.217  0.00  0.00    +0.000 OA
ATOM      9  C   UNL     1       7.695   7.290  17.929  0.00  0.00    +0.000 C 
BRANCH   9  10
ATOM     10  O   UNL     1       8.501   7.227  19.017  0.00  0.00    +0.000 OA
ATOM     11  H   UNL     1       8.519   6.339  19.459  0.00  0.00    +0.000 HD
ENDBRANCH   9  10
ENDBRANCH   1   9
BRANCH   5  12
ATOM     12  O   UNL     1       5.783   3.711  14.901  0.00  0.00    +0.000 OA
ATOM     13  H   UNL     1       5.706   2.748  15.004  0.00  0.00    +0.000 HD
ENDBRANCH   5  12
BRANCH   3  14
ATOM     14  C   UNL     1       4.474   3.957  19.638  0.00  0.00    +0.000 C 
BRANCH  14  15
ATOM     15  C   UNL     1       2.919   4.158  19.444  0.00  0.00    +0.000 C 
ATOM     16  C   UNL     1       2.479   3.334  18.199  0.00  0.00    +0.000 C 
ATOM     17  C   UNL     1       1.038   2.896  18.446  0.00  0.00    +0.000 C 
ATOM     18  C   UNL     1       0.874   2.803  19.950  0.00  0.00    +0.000 C 
ATOM     19  C   UNL     1       2.130   3.411  20.559  0.00  0.00    +0.000 C 
BRANCH  15  20
ATOM     20  C   UNL     1       2.529   5.644  19.276  0.00  0.00    +0.000 A 
ATOM     21  C   UNL     1       2.662   6.300  18.035  0.00  0.00    +0.000 A 
ATOM     22  C   UNL     1       2.424   7.675  17.900  0.00  0.00    +0.000 A 
ATOM     23  C   UNL     1       2.019   8.426  18.996  0.00  0.00    +0.000 A 
ATOM     24  C   UNL     1       1.823   7.792  20.215  0.00  0.00    +0.000 A 
ATOM     25 CL   UNL     1       1.312   8.704  21.583  0.00  0.00    +0.000 Cl
ATOM     26  C   UNL     1       2.061   6.421  20.352  0.00  0.00    +0.000 A 
ENDBRANCH  15  20
ENDBRANCH  14  15
ENDBRANCH   3  14
TORSDOF 6
ENDMDL
MODEL 2
REMARK VINA RESULT:      -8.8      0.724      2.394
REMARK  Name = 
REMARK  6 active torsions:
REMARK  status: ('A' for Active; 'I' for Inactive)
REMARK    1  A    between atoms: C_2  and  O_3
REMARK    2  A    between atoms: C_2  and  C_4
REMARK    3  A    between atoms: N_6  and  C_7
REMARK    4  A    between atoms: C_7  and  C_8
REMARK    5  A    between atoms: C_8  and  C_9
REMARK    6  A    between atoms: C_21  and  O_22
REMARK                            x       y       z     vdW  Elec       q    Type
REMARK                         _______ _______ _______ _____ _____    ______ ____
ROOT
ATOM      1  C   UNL     1       6.240   5.068  16.344  0.00  0.00    +0.000 A 
ATOM      2  C   UNL     1       5.411   4.386  17.162  0.00  0.00    +0.000 A 
ATOM      3  N   UNL     1       5.385   4.496  18.558  0.00  0.00    +0.000 N 
ATOM      4  C   UNL     1       6.359   5.311  19.121  0.00  0.00    +0.000 A 
ATOM      5  C   UNL     1       7.238   6.071  18.458  0.00  0.00    +0.000 A 
ATOM      6  C   UNL     1       7.195   6.013  16.969  0.00  0.00    +0.000 A 
ATOM      7  O   UNL     1       7.944   6.689  16.263  0.00  0.00    +0.000 OA
ENDROOT
BRANCH   1   9
ATOM      8  O   UNL     1       5.222   4.365  14.316  0.00  0.00    +0.000 OA
ATOM      9  C   UNL     1       6.194   4.838  14.890  0.00  0.00    +0.000 C 
BRANCH   9  10
ATOM     10  O   UNL     1       7.326   5.172  14.223  0.00  0.00    +0.000 OA
ATOM     11  H   UNL     1       7.931   5.775  14.725  0.00  0.00    +0.000 HD
ENDBRANCH   9  10
ENDBRANCH   1   9
BRANCH   5  12
ATOM     12  O   UNL     1       8.176   6.865  19.085  0.00  0.00    +0.000 OA
ATOM     13  H   UNL     1       7.793   7.207  19.910  0.00  0.00    +0.000 HD
ENDBRANCH   5  12
BRANCH   3  14
ATOM     14  C   UNL     1       4.536   3.567  19.367  0.00  0.00    +0.000 C 
BRANCH  14  15
ATOM     15  C   UNL     1       2.976   3.821  19.365  0.00  0.00    +0.000 C 
ATOM     16  C   UNL     1       2.353   2.977  18.217  0.00  0.00    +0.000 C 
ATOM     17  C   UNL     1       0.942   2.603  18.659  0.00  0.00    +0.000 C 
ATOM     18  C   UNL     1       0.969   2.561  20.174  0.00  0.00    +0.000 C 
ATOM     19  C   UNL     1       2.312   3.139  20.597  0.00  0.00    +0.000 C 
BRANCH  15  20
ATOM     20  C   UNL     1       2.619   5.315  19.196  0.00  0.00    +0.000 A 
ATOM     21  C   UNL     1       2.778   5.971  17.958  0.00  0.00    +0.000 A 
ATOM     22  C   UNL     1       2.571   7.350  17.823  0.00  0.00    +0.000 A 
ATOM     23  C   UNL     1       2.170   8.108  18.917  0.00  0.00    +0.000 A 
ATOM     24  C   UNL     1       1.949   7.477  20.133  0.00  0.00    +0.000 A 
ATOM     25 CL   UNL     1       1.444   8.397  21.497  0.00  0.00    +0.000 Cl
ATOM     26  C   UNL     1       2.157   6.100  20.269  0.00  0.00    +0.000 A 
ENDBRANCH  15  20
ENDBRANCH  14  15
ENDBRANCH   3  14
TORSDOF 6
ENDMDL
MODEL 3
REMARK VINA RESULT:      -8.5      1.179      2.751
REMARK  Name = 
REMARK  6 active torsions:
REMARK  status: ('A' for Active; 'I' for Inactive)
REMARK    1  A    between atoms: C_2  and  O_3
REMARK    2  A    between atoms: C_2  and  C_4
REMARK    3  A    between atoms: N_6  and  C_7
REMARK    4  A    between atoms: C_7  and  C_8
REMARK    5  A    between atoms: C_8  and  C_9
REMARK    6  A    between atoms: C_21  and  O_22
REMARK                            x       y       z     vdW  Elec       q    Type
REMARK                         _______ _______ _______ _____ _____    ______ ____
ROOT
ATOM      1  C   UNL     1       6.212   5.075  16.355  0.00  0.00    +0.000 A 
ATOM      2  C   UNL     1       5.392   4.391  17.178  0.00  0.00    +0.000 A 
ATOM      3  N   UNL     1       5.389   4.486  18.576  0.00  0.00    +0.000 N 
ATOM      4  C   UNL     1       6.376   5.288  19.132  0.00  0.00    +0.000 A 
ATOM      5  C   UNL     1       7.249   6.051  18.464  0.00  0.00    +0.000 A 
ATOM      6  C   UNL     1       7.183   6.009  16.975  0.00  0.00    +0.000 A 
ATOM      7  O   UNL     1       7.925   6.687  16.265  0.00  0.00    +0.000 OA
ENDROOT
BRANCH   1   9
ATOM      8  O   UNL     1       5.175   4.363  14.341  0.00  0.00    +0.000 OA
ATOM      9  C   UNL     1       6.143   4.862  14.900  0.00  0.00    +0.000 C 
BRANCH   9  10
ATOM     10  O   UNL     1       7.248   5.243  14.213  0.00  0.00    +0.000 OA
ATOM     11  H   UNL     1       7.951   5.661  14.773  0.00  0.00    +0.000 HD
ENDBRANCH   9  10
ENDBRANCH   1   9
BRANCH   5  12
ATOM     12  O   UNL     1       8.202   6.832  19.085  0.00  0.00    +0.000 OA
ATOM     13  H   UNL     1       8.472   6.396  19.911  0.00  0.00    +0.000 HD
ENDBRANCH   5  12
BRANCH   3  14
ATOM     14  C   UNL     1       4.546   3.553  19.388  0.00  0.00    +0.000 C 
BRANCH  14  15
ATOM     15  C   UNL     1       2.985   3.797  19.387  0.00  0.00    +0.000 C 
ATOM     16  C   UNL     1       2.420   3.291  18.029  0.00  0.00    +0.000 C 
ATOM     17  C   UNL     1       0.996   2.811  18.294  0.00  0.00    +0.000 C 
ATOM     18  C   UNL     1       0.961   2.365  19.743  0.00  0.00    +0.000 C 
ATOM     19  C   UNL     1       2.279   2.810  20.362  0.00  0.00    +0.000 C 
BRANCH  15  20
ATOM     20  C   UNL     1       2.617   5.282  19.609  0.00  0.00    +0.000 A 
ATOM     21  C   UNL     1       2.064   5.725  20.827  0.00  0.00    +0.000 A 
ATOM     22  C   UNL     1       1.617   7.043  20.997  0.00  0.00    +0.000 A 
ATOM     23  C   UNL     1       1.739   7.962  19.961  0.00  0.00    +0.000 A 
ATOM     24  C   UNL     1       2.334   7.566  18.772  0.00  0.00    +0.000 A 
ATOM     25 CL   UNL     1       2.502   8.692  17.481  0.00  0.00    +0.000 Cl
ATOM     26  C   UNL     1       2.779   6.251  18.601  0.00  0.00    +0.000 A 
ENDBRANCH  15  20
ENDBRANCH  14  15
ENDBRANCH   3  14
TORSDOF 6
ENDMDL
MODEL 4
REMARK VINA RESULT:      -8.4      0.960      1.377
REMARK  Name = 
REMARK  6 active torsions:
REMARK  status: ('A' for Active; 'I' for Inactive)
REMARK    1  A    between atoms: C_2  and  O_3
REMARK    2  A    between atoms: C_2  and  C_4
REMARK    3  A    between atoms: N_6  and  C_7
REMARK    4  A    between atoms: C_7  and  C_8
REMARK    5  A    between atoms: C_8  and  C_9
REMARK    6  A    between atoms: C_21  and  O_22
REMARK                            x       y       z     vdW  Elec       q    Type
REMARK                         _______ _______ _______ _____ _____    ______ ____
ROOT
ATOM      1  C   UNL     1       6.921   6.069  17.610  0.00  0.00    +0.000 A 
ATOM      2  C   UNL     1       6.148   5.543  18.582  0.00  0.00    +0.000 A 
ATOM      3  N   UNL     1       5.386   4.374  18.463  0.00  0.00    +0.000 N 
ATOM      4  C   UNL     1       5.375   3.782  17.208  0.00  0.00    +0.000 A 
ATOM      5  C   UNL     1       6.098   4.157  16.146  0.00  0.00    +0.000 A 
ATOM      6  C   UNL     1       6.975   5.351  16.314  0.00  0.00    +0.000 A 
ATOM      7  O   UNL     1       7.698   5.768  15.408  0.00  0.00    +0.000 OA
ENDROOT
BRANCH   1   9
ATOM      8  O   UNL     1       7.511   8.323  17.150  0.00  0.00    +0.000 OA
ATOM      9  C   UNL     1       7.650   7.326  17.846  0.00  0.00    +0.000 C 
BRANCH   9  10
ATOM     10  O   UNL     1       8.513   7.299  18.891  0.00  0.00    +0.000 OA
ATOM     11  H   UNL     1       9.368   6.835  18.701  0.00  0.00    +0.000 HD
ENDBRANCH   9  10
ENDBRANCH   1   9
BRANCH   5  12
ATOM     12  O   UNL     1       6.042   3.515  14.926  0.00  0.00    +0.000 OA
ATOM     13  H   UNL     1       5.407   3.980  14.358  0.00  0.00    +0.000 HD
ENDBRANCH   5  12
BRANCH   3  14
ATOM     14  C   UNL     1       4.440   3.982  19.555  0.00  0.00    +0.000 C 
BRANCH  14  15
ATOM     15  C   UNL     1       2.900   4.236  19.306  0.00  0.00    +0.000 C 
ATOM     16  C   UNL     1       2.579   3.840  17.836  0.00  0.00    +0.000 C 
ATOM     17  C   UNL     1       1.135   3.349  17.815  0.00  0.00    +0.000 C 
ATOM     18  C   UNL     1       0.856   2.792  19.198  0.00  0.00    +0.000 C 
ATOM     19  C   UNL     1       2.045   3.179  20.065  0.00  0.00    +0.000 C 
BRANCH  15  20
ATOM     20  C   UNL     1       2.488   5.700  19.577  0.00  0.00    +0.000 A 
ATOM     21  C   UNL     1       1.910   6.084  20.804  0.00  0.00    +0.000 A 
ATOM     22  C   UNL     1       1.424   7.382  21.016  0.00  0.00    +0.000 A 
ATOM     23  C   UNL     1       1.532   8.341  20.016  0.00  0.00    +0.000 A 
ATOM     24  C   UNL     1       2.151   8.005  18.820  0.00  0.00    +0.000 A 
ATOM     25 CL   UNL     1       2.302   9.181  17.573  0.00  0.00    +0.000 Cl
ATOM     26  C   UNL     1       2.634   6.709  18.607  0.00  0.00    +0.000 A 
ENDBRANCH  15  20
ENDBRANCH  14  15
ENDBRANCH   3  14
TORSDOF 6
ENDMDL
MODEL 5
REMARK VINA RESULT:      -8.4      1.401      2.073
REMARK  Name = 
REMARK  6 active torsions:
REMARK  status: ('A' for Active; 'I' for Inactive)
REMARK    1  A    between atoms: C_2  and  O_3
REMARK    2  A    between atoms: C_2  and  C_4
REMARK    3  A    between atoms: N_6  and  C_7
REMARK    4  A    between atoms: C_7  and  C_8
REMARK    5  A    between atoms: C_8  and  C_9
REMARK    6  A    between atoms: C_21  and  O_22
REMARK                            x       y       z     vdW  Elec       q    Type
REMARK                         _______ _______ _______ _____ _____    ______ ____
ROOT
ATOM      1  C   UNL     1       6.366   4.928  17.976  0.00  0.00    +0.000 A 
ATOM      2  C   UNL     1       5.058   4.728  18.238  0.00  0.00    +0.000 A 
ATOM      3  N   UNL     1       4.148   4.105  17.374  0.00  0.00    +0.000 N 
ATOM      4  C   UNL     1       4.640   3.756  16.124  0.00  0.00    +0.000 A 
ATOM      5  C   UNL     1       5.909   3.861  15.711  0.00  0.00    +0.000 A 
ATOM      6  C   UNL     1       6.886   4.444  16.675  0.00  0.00    +0.000 A 
ATOM      7  O   UNL     1       8.081   4.565  16.406  0.00  0.00    +0.000 OA
ENDROOT
BRANCH   1   9
ATOM      8  O   UNL     1       7.258   5.331  20.140  0.00  0.00    +0.000 OA
ATOM      9  C   UNL     1       7.215   5.629  18.954  0.00  0.00    +0.000 C 
BRANCH   9  10
ATOM     10  O   UNL     1       7.942   6.654  18.447  0.00  0.00    +0.000 OA
ATOM     11  H   UNL     1       7.680   6.926  17.531  0.00  0.00    +0.000 HD
ENDBRANCH   9  10
ENDBRANCH   1   9
BRANCH   5  12
ATOM     12  O   UNL     1       6.329   3.486  14.453  0.00  0.00    +0.000 OA
ATOM     13  H   UNL     1       7.225   3.114  14.522  0.00  0.00    +0.000 HD
ENDBRANCH   5  12
BRANCH   3  14
ATOM     14  C   UNL     1       2.689   4.091  17.707  0.00  0.00    +0.000 C 
BRANCH  14  15
ATOM     15  C   UNL     1       2.287   4.296  19.221  0.00  0.00    +0.000 C 
ATOM     16  C   UNL     1       0.991   3.478  19.490  0.00  0.00    +0.000 C 
ATOM     17  C   UNL     1       1.038   3.043  20.951  0.00  0.00    +0.000 C 
ATOM     18  C   UNL     1       2.506   2.943  21.317  0.00  0.00    +0.000 C 
ATOM     19  C   UNL     1       3.282   3.546  20.154  0.00  0.00    +0.000 C 
BRANCH  15  20
ATOM     20  C   UNL     1       2.075   5.783  19.582  0.00  0.00    +0.000 A 
ATOM     21  C   UNL     1       1.618   6.169  20.859  0.00  0.00    +0.000 A 
ATOM     22  C   UNL     1       1.309   7.503  21.159  0.00  0.00    +0.000 A 
ATOM     23  C   UNL     1       1.477   8.493  20.198  0.00  0.00    +0.000 A 
ATOM     24  C   UNL     1       1.981   8.148  18.952  0.00  0.00    +0.000 A 
ATOM     25 CL   UNL     1       2.204   9.362  17.752  0.00  0.00    +0.000 Cl
ATOM     26  C   UNL     1       2.288   6.817  18.651  0.00  0.00    +0.000 A 
ENDBRANCH  15  20
ENDBRANCH  14  15
ENDBRANCH   3  14
TORSDOF 6
ENDMDL
MODEL 6
REMARK VINA RESULT:      -8.3      1.079      1.556
REMARK  Name = 
REMARK  6 active torsions:
REMARK  status: ('A' for Active; 'I' for Inactive)
REMARK    1  A    between atoms: C_2  and  O_3
REMARK    2  A    between atoms: C_2  and  C_4
REMARK    3  A    between atoms: N_6  and  C_7
REMARK    4  A    between atoms: C_7  and  C_8
REMARK    5  A    between atoms: C_8  and  C_9
REMARK    6  A    between atoms: C_21  and  O_22
REMARK                            x       y       z     vdW  Elec       q    Type
REMARK                         _______ _______ _______ _____ _____    ______ ____
ROOT
ATOM      1  C   UNL     1       6.683   5.364  18.255  0.00  0.00    +0.000 A 
ATOM      2  C   UNL     1       5.660   4.523  18.511  0.00  0.00    +0.000 A 
ATOM      3  N   UNL     1       4.721   4.085  17.569  0.00  0.00    +0.000 N 
ATOM      4  C   UNL     1       4.822   4.647  16.303  0.00  0.00    +0.000 A 
ATOM      5  C   UNL     1       5.784   5.474  15.877  0.00  0.00    +0.000 A 
ATOM      6  C   UNL     1       6.830   5.861  16.866  0.00  0.00    +0.000 A 
ATOM      7  O   UNL     1       7.771   6.599  16.572  0.00  0.00    +0.000 OA
ENDROOT
BRANCH   1   9
ATOM      8  O   UNL     1       7.668   5.186  20.408  0.00  0.00    +0.000 OA
ATOM      9  C   UNL     1       7.586   5.779  19.341  0.00  0.00    +0.000 C 
BRANCH   9  10
ATOM     10  O   UNL     1       8.316   6.892  19.084  0.00  0.00    +0.000 OA
ATOM     11  H   UNL     1       7.849   7.565  18.526  0.00  0.00    +0.000 HD
ENDBRANCH   9  10
ENDBRANCH   1   9
BRANCH   5  12
ATOM     12  O   UNL     1       5.827   5.990  14.598  0.00  0.00    +0.000 OA
ATOM     13  H   UNL     1       5.282   5.431  14.019  0.00  0.00    +0.000 HD
ENDBRANCH   5  12
BRANCH   3  14
ATOM     14  C   UNL     1       3.535   3.284  18.009  0.00  0.00    +0.000 C 
BRANCH  14  15
ATOM     15  C   UNL     1       2.706   3.831  19.238  0.00  0.00    +0.000 C 
ATOM     16  C   UNL     1       1.385   3.014  19.328  0.00  0.00    +0.000 C 
ATOM     17  C   UNL     1       0.997   2.961  20.802  0.00  0.00    +0.000 C 
ATOM     18  C   UNL     1       2.291   3.062  21.586  0.00  0.00    +0.000 C 
ATOM     19  C   UNL     1       3.378   3.411  20.578  0.00  0.00    +0.000 C 
BRANCH  15  20
ATOM     20  C   UNL     1       2.403   5.342  19.124  0.00  0.00    +0.000 A 
ATOM     21  C   UNL     1       2.474   6.012  17.886  0.00  0.00    +0.000 A 
ATOM     22  C   UNL     1       2.318   7.401  17.790  0.00  0.00    +0.000 A 
ATOM     23  C   UNL     1       2.058   8.156  18.927  0.00  0.00    +0.000 A 
ATOM     24  C   UNL     1       1.925   7.513  20.150  0.00  0.00    +0.000 A 
ATOM     25 CL   UNL     1       1.595   8.430  21.569  0.00  0.00    +0.000 Cl
ATOM     26  C   UNL     1       2.082   6.127  20.247  0.00  0.00    +0.000 A 
ENDBRANCH  15  20
ENDBRANCH  14  15
ENDBRANCH   3  14
TORSDOF 6
ENDMDL
MODEL 7
REMARK VINA RESULT:      -8.1      3.498      6.361
REMARK  Name = 
REMARK  6 active torsions:
REMARK  status: ('A' for Active; 'I' for Inactive)
REMARK    1  A    between atoms: C_2  and  O_3
REMARK    2  A    between atoms: C_2  and  C_4
REMARK    3  A    between atoms: N_6  and  C_7
REMARK    4  A    between atoms: C_7  and  C_8
REMARK    5  A    between atoms: C_8  and  C_9
REMARK    6  A    between atoms: C_21  and  O_22
REMARK                            x       y       z     vdW  Elec       q    Type
REMARK                         _______ _______ _______ _____ _____    ______ ____
ROOT
ATOM      1  C   UNL     1       1.950   3.707  18.824  0.00  0.00    +0.000 A 
ATOM      2  C   UNL     1       2.703   4.311  17.882  0.00  0.00    +0.000 A 
ATOM      3  N   UNL     1       3.254   5.595  17.990  0.00  0.00    +0.000 N 
ATOM      4  C   UNL     1       2.907   6.310  19.128  0.00  0.00    +0.000 A 
ATOM      5  C   UNL     1       2.194   5.856  20.165  0.00  0.00    +0.000 A 
ATOM      6  C   UNL     1       1.689   4.456  20.077  0.00  0.00    +0.000 A 
ATOM      7  O   UNL     1       1.042   3.932  20.984  0.00  0.00    +0.000 OA
ENDROOT
BRANCH   1   9
ATOM      8  O   UNL     1       0.200   2.146  18.449  0.00  0.00    +0.000 OA
ATOM      9  C   UNL     1       1.398   2.365  18.577  0.00  0.00    +0.000 C 
BRANCH   9  10
ATOM     10  O   UNL     1       2.317   1.370  18.520  0.00  0.00    +0.000 OA
ATOM     11  H   UNL     1       3.255   1.678  18.606  0.00  0.00    +0.000 HD
ENDBRANCH   9  10
ENDBRANCH   1   9
BRANCH   5  12
ATOM     12  O   UNL     1       1.893   6.623  21.272  0.00  0.00    +0.000 OA
ATOM     13  H   UNL     1       2.660   7.182  21.481  0.00  0.00    +0.000 HD
ENDBRANCH   5  12
BRANCH   3  14
ATOM     14  C   UNL     1       3.931   6.222  16.811  0.00  0.00    +0.000 C 
BRANCH  14  15
ATOM     15  C   UNL     1       5.334   5.634  16.383  0.00  0.00    +0.000 C 
ATOM     16  C   UNL     1       5.231   4.082  16.401  0.00  0.00    +0.000 C 
ATOM     17  C   UNL     1       6.188   3.562  15.332  0.00  0.00    +0.000 C 
ATOM     18  C   UNL     1       6.286   4.654  14.284  0.00  0.00    +0.000 C 
ATOM     19  C   UNL     1       5.585   5.873  14.866  0.00  0.00    +0.000 C 
BRANCH  15  20
ATOM     20  C   UNL     1       6.482   6.112  17.301  0.00  0.00    +0.000 A 
ATOM     21  C   UNL     1       7.026   5.270  18.293  0.00  0.00    +0.000 A 
ATOM     22  C   UNL     1       7.983   5.732  19.206  0.00  0.00    +0.000 A 
ATOM     23  C   UNL     1       8.445   7.041  19.135  0.00  0.00    +0.000 A 
ATOM     24  C   UNL     1       7.970   7.872  18.130  0.00  0.00    +0.000 A 
ATOM     25 CL   UNL     1       8.536   9.493  18.019  0.00  0.00    +0.000 Cl
ATOM     26  C   UNL     1       7.013   7.412  17.219  0.00  0.00    +0.000 A 
ENDBRANCH  15  20
ENDBRANCH  14  15
ENDBRANCH   3  14
TORSDOF 6
ENDMDL
MODEL 8
REMARK VINA RESULT:      -7.9      4.335      6.846
REMARK  Name = 
REMARK  6 active torsions:
REMARK  status: ('A' for Active; 'I' for Inactive)
REMARK    1  A    between atoms: C_2  and  O_3
REMARK    2  A    between atoms: C_2  and  C_4
REMARK    3  A    between atoms: N_6  and  C_7
REMARK    4  A    between atoms: C_7  and  C_8
REMARK    5  A    between atoms: C_8  and  C_9
REMARK    6  A    between atoms: C_21  and  O_22
REMARK                            x       y       z     vdW  Elec       q    Type
REMARK                         _______ _______ _______ _____ _____    ______ ____
ROOT
ATOM      1  C   UNL     1       2.992   3.183  19.878  0.00  0.00    +0.000 A 
ATOM      2  C   UNL     1       4.094   3.159  19.101  0.00  0.00    +0.000 A 
ATOM      3  N   UNL     1       4.139   3.533  17.752  0.00  0.00    +0.000 N 
ATOM      4  C   UNL     1       2.921   3.866  17.174  0.00  0.00    +0.000 A 
ATOM      5  C   UNL     1       1.743   3.963  17.803  0.00  0.00    +0.000 A 
ATOM      6  C   UNL     1       1.728   3.649  19.260  0.00  0.00    +0.000 A 
ATOM      7  O   UNL     1       0.703   3.728  19.938  0.00  0.00    +0.000 OA
ENDROOT
BRANCH   1   9
ATOM      8  O   UNL     1       3.824   1.847  21.657  0.00  0.00    +0.000 OA
ATOM      9  C   UNL     1       3.066   2.730  21.277  0.00  0.00    +0.000 C 
BRANCH   9  10
ATOM     10  O   UNL     1       2.212   3.353  22.126  0.00  0.00    +0.000 OA
ATOM     11  H   UNL     1       2.588   4.158  22.564  0.00  0.00    +0.000 HD
ENDBRANCH   9  10
ENDBRANCH   1   9
BRANCH   5  12
ATOM     12  O   UNL     1       0.570   4.308  17.164  0.00  0.00    +0.000 OA
ATOM     13  H   UNL     1      -0.038   4.692  17.817  0.00  0.00    +0.000 HD
ENDBRANCH   5  12
BRANCH   3  14
ATOM     14  C   UNL     1       5.383   3.305  16.952  0.00  0.00    +0.000 C 
BRANCH  14  15
ATOM     15  C   UNL     1       6.140   4.582  16.409  0.00  0.00    +0.000 C 
ATOM     16  C   UNL     1       5.225   5.818  16.640  0.00  0.00    +0.000 C 
ATOM     17  C   UNL     1       6.146   7.015  16.860  0.00  0.00    +0.000 C 
ATOM     18  C   UNL     1       7.428   6.461  17.450  0.00  0.00    +0.000 C 
ATOM     19  C   UNL     1       7.332   4.946  17.343  0.00  0.00    +0.000 C 
BRANCH  15  20
ATOM     20  C   UNL     1       6.518   4.457  14.916  0.00  0.00    +0.000 A 
ATOM     21  C   UNL     1       7.592   5.188  14.368  0.00  0.00    +0.000 A 
ATOM     22  C   UNL     1       7.868   5.174  12.994  0.00  0.00    +0.000 A 
ATOM     23  C   UNL     1       7.095   4.404  12.133  0.00  0.00    +0.000 A 
ATOM     24  C   UNL     1       6.069   3.629  12.655  0.00  0.00    +0.000 A 
ATOM     25 CL   UNL     1       5.106   2.662  11.606  0.00  0.00    +0.000 Cl
ATOM     26  C   UNL     1       5.791   3.644  14.026  0.00  0.00    +0.000 A 
ENDBRANCH  15  20
ENDBRANCH  14  15
ENDBRANCH   3  14
TORSDOF 6
ENDMDL
MODEL 9
REMARK VINA RESULT:      -7.9      4.069      7.081
REMARK  Name = 
REMARK  6 active torsions:
REMARK  status: ('A' for Active; 'I' for Inactive)
REMARK    1  A    between atoms: C_2  and  O_3
REMARK    2  A    between atoms: C_2  and  C_4
REMARK    3  A    between atoms: N_6  and  C_7
REMARK    4  A    between atoms: C_7  and  C_8
REMARK    5  A    between atoms: C_8  and  C_9
REMARK    6  A    between atoms: C_21  and  O_22
REMARK                            x       y       z     vdW  Elec       q    Type
REMARK                         _______ _______ _______ _____ _____    ______ ____
ROOT
ATOM      1  C   UNL     1       2.010   3.638  18.716  0.00  0.00    +0.000 A 
ATOM      2  C   UNL     1       2.823   4.000  17.702  0.00  0.00    +0.000 A 
ATOM      3  N   UNL     1       3.490   5.227  17.601  0.00  0.00    +0.000 N 
ATOM      4  C   UNL     1       3.204   6.157  18.592  0.00  0.00    +0.000 A 
ATOM      5  C   UNL     1       2.444   5.955  19.675  0.00  0.00    +0.000 A 
ATOM      6  C   UNL     1       1.812   4.612  19.815  0.00  0.00    +0.000 A 
ATOM      7  O   UNL     1       1.112   4.314  20.784  0.00  0.00    +0.000 OA
ENDROOT
BRANCH   1   9
ATOM      8  O   UNL     1       0.133   2.198  18.509  0.00  0.00    +0.000 OA
ATOM      9  C   UNL     1       1.336   2.329  18.690  0.00  0.00    +0.000 C 
BRANCH   9  10
ATOM     10  O   UNL     1       2.148   1.264  18.902  0.00  0.00    +0.000 OA
ATOM     11  H   UNL     1       3.018   1.316  18.430  0.00  0.00    +0.000 HD
ENDBRANCH   9  10
ENDBRANCH   1   9
BRANCH   5  12
ATOM     12  O   UNL     1       2.209   6.926  20.626  0.00  0.00    +0.000 OA
ATOM     13  H   UNL     1       2.256   6.517  21.506  0.00  0.00    +0.000 HD
ENDBRANCH   5  12
BRANCH   3  14
ATOM     14  C   UNL     1       4.231   5.577  16.348  0.00  0.00    +0.000 C 
BRANCH  14  15
ATOM     15  C   UNL     1       5.802   5.400  16.361  0.00  0.00    +0.000 C 
ATOM     16  C   UNL     1       6.433   6.744  16.824  0.00  0.00    +0.000 C 
ATOM     17  C   UNL     1       7.728   6.397  17.551  0.00  0.00    +0.000 C 
ATOM     18  C   UNL     1       7.532   5.008  18.128  0.00  0.00    +0.000 C 
ATOM     19  C   UNL     1       6.236   4.475  17.535  0.00  0.00    +0.000 C 
BRANCH  15  20
ATOM     20  C   UNL     1       6.363   4.984  14.982  0.00  0.00    +0.000 A 
ATOM     21  C   UNL     1       7.528   5.578  14.456  0.00  0.00    +0.000 A 
ATOM     22  C   UNL     1       7.978   5.294  13.159  0.00  0.00    +0.000 A 
ATOM     23  C   UNL     1       7.291   4.386  12.363  0.00  0.00    +0.000 A 
ATOM     24  C   UNL     1       6.175   3.742  12.880  0.00  0.00    +0.000 A 
ATOM     25 CL   UNL     1       5.316   2.607  11.912  0.00  0.00    +0.000 Cl
ATOM     26  C   UNL     1       5.724   4.026  14.173  0.00  0.00    +0.000 A 
ENDBRANCH  15  20
ENDBRANCH  14  15
ENDBRANCH   3  14
TORSDOF 6
ENDMDL
