MODEL 1
REMARK VINA RESULT:      -7.5      0.000      0.000
REMARK  Name = 
REMARK  13 active torsions:
REMARK  status: ('A' for Active; 'I' for Inactive)
REMARK    1  A    between atoms: C_1  and  C_2
REMARK    2  A    between atoms: C_2  and  C_3
REMARK    3  A    between atoms: C_2  and  O_4
REMARK    4  A    between atoms: O_4  and  C_5
REMARK    5  A    between atoms: C_8  and  C_9
REMARK    6  A    between atoms: C_11  and  C_12
REMARK    7  A    between atoms: C_17  and  C_18
REMARK    8  A    between atoms: C_18  and  C_19
REMARK    9  A    between atoms: C_19  and  C_20
REMARK   10  A    between atoms: C_20  and  O_22
REMARK   11  A    between atoms: N_24  and  C_25
REMARK   12  A    between atoms: C_25  and  C_26
REMARK   13  A    between atoms: C_25  and  C_27
REMARK                            x       y       z     vdW  Elec       q    Type
REMARK                         _______ _______ _______ _____ _____    ______ ____
ROOT
ATOM      1  C   UNL     1      -1.772  10.885  17.970  0.00  0.00    +0.000 A 
ATOM      2  C   UNL     1      -2.327  10.539  16.718  0.00  0.00    +0.000 A 
ATOM      3  C   UNL     1      -3.631  10.860  16.373  0.00  0.00    +0.000 A 
ATOM      4  C   UNL     1      -4.437  11.533  17.284  0.00  0.00    +0.000 A 
ATOM      5  C   UNL     1      -3.945  11.887  18.560  0.00  0.00    +0.000 A 
ATOM      6  C   UNL     1      -4.571  12.548  19.663  0.00  0.00    +0.000 A 
ATOM      7  C   UNL     1      -3.611  12.663  20.635  0.00  0.00    +0.000 A 
ATOM      8  N   UNL     1      -2.436  12.095  20.198  0.00  0.00    +0.000 N 
ATOM      9  C   UNL     1      -2.605  11.582  18.906  0.00  0.00    +0.000 A 
ENDROOT
BRANCH   1  12
ATOM     10  C   UNL     1       1.312   9.269  18.416  0.00  0.00    +0.000 A 
ATOM     11  N   UNL     1       0.008   9.181  18.287  0.00  0.00    +0.000 NA
ATOM     12  C   UNL     1      -0.393  10.487  18.227  0.00  0.00    +0.000 A 
ATOM     13  N   UNL     1       0.604  11.360  18.479  0.00  0.00    +0.000 NA
ATOM     14  O   UNL     1       1.744  10.550  18.574  0.00  0.00    +0.000 OA
BRANCH  10  18
ATOM     15  C   UNL     1       4.031   5.950  18.353  0.00  0.00    +0.000 A 
ATOM     16  C   UNL     1       4.198   7.015  17.448  0.00  0.00    +0.000 A 
ATOM     17  C   UNL     1       3.337   8.125  17.450  0.00  0.00    +0.000 A 
ATOM     18  C   UNL     1       2.286   8.190  18.367  0.00  0.00    +0.000 A 
ATOM     19  C   UNL     1       2.131   7.133  19.273  0.00  0.00    +0.000 A 
ATOM     20  C   UNL     1       2.999   6.036  19.292  0.00  0.00    +0.000 A 
ATOM     21 CL   UNL     1       2.726   4.925  20.585  0.00  0.00    +0.000 Cl
BRANCH  15  22
ATOM     22  O   UNL     1       4.994   4.985  18.240  0.00  0.00    +0.000 OA
BRANCH  22  24
ATOM     23  C   UNL     1       7.292   4.708  17.614  0.00  0.00    +0.000 C 
ATOM     24  C   UNL     1       5.879   5.006  17.112  0.00  0.00    +0.000 C 
ATOM     25  C   UNL     1       5.446   3.910  16.140  0.00  0.00    +0.000 C 
ENDBRANCH  22  24
ENDBRANCH  15  22
ENDBRANCH  10  18
ENDBRANCH   1  12
BRANCH   8  26
ATOM     26  C   UNL     1      -1.209  12.161  20.997  0.00  0.00    +0.000 C 
ATOM     27  C   UNL     1      -0.731  13.611  21.122  0.00  0.00    +0.000 C 
ATOM     28  C   UNL     1      -1.311  11.546  22.402  0.00  0.00    +0.000 C 
ENDBRANCH   8  26
BRANCH   6  29
ATOM     29  C   UNL     1      -5.973  13.077  19.766  0.00  0.00    +0.000 C 
BRANCH  29  30
ATOM     30  C   UNL     1      -7.035  12.001  19.551  0.00  0.00    +0.000 C 
BRANCH  30  31
ATOM     31  C   UNL     1      -7.129  11.091  20.753  0.00  0.00    +0.000 C 
ATOM     32  O   UNL     1      -7.277   9.878  20.716  0.00  0.00    +0.000 OA
BRANCH  31  33
ATOM     33  O   UNL     1      -7.021  11.769  21.917  0.00  0.00    +0.000 OA
ATOM     34  H   UNL     1      -6.408  11.363  22.556  0.00  0.00    +0.000 HD
ENDBRANCH  31  33
ENDBRANCH  30  31
ENDBRANCH  29  30
ENDBRANCH   6  29
TORSDOF 9
ENDMDL
MODEL 2
REMARK VINA RESULT:      -7.5      1.208      2.800
REMARK  Name = 
REMARK  13 active torsions:
REMARK  status: ('A' for Active; 'I' for Inactive)
REMARK    1  A    between atoms: C_1  and  C_2
REMARK    2  A    between atoms: C_2  and  C_3
REMARK    3  A    between atoms: C_2  and  O_4
REMARK    4  A    between atoms: O_4  and  C_5
REMARK    5  A    between atoms: C_8  and  C_9
REMARK    6  A    between atoms: C_11  and  C_12
REMARK    7  A    between atoms: C_17  and  C_18
REMARK    8  A    between atoms: C_18  and  C_19
REMARK    9  A    between atoms: C_19  and  C_20
REMARK   10  A    between atoms: C_20  and  O_22
REMARK   11  A    between atoms: N_24  and  C_25
REMARK   12  A    between atoms: C_25  and  C_26
REMARK   13  A    between atoms: C_25  and  C_27
REMARK                            x       y       z     vdW  Elec       q    Type
REMARK                         _______ _______ _______ _____ _____    ______ ____
ROOT
ATOM      1  C   UNL     1      -1.428  11.912  20.663  0.00  0.00    +0.000 A 
ATOM      2  C   UNL     1      -1.227  12.311  22.004  0.00  0.00    +0.000 A 
ATOM      3  C   UNL     1      -2.238  12.878  22.765  0.00  0.00    +0.000 A 
ATOM      4  C   UNL     1      -3.492  13.079  22.203  0.00  0.00    +0.000 A 
ATOM      5  C   UNL     1      -3.748  12.720  20.861  0.00  0.00    +0.000 A 
ATOM      6  C   UNL     1      -4.925  12.845  20.058  0.00  0.00    +0.000 A 
ATOM      7  C   UNL     1      -4.617  12.297  18.839  0.00  0.00    +0.000 A 
ATOM      8  N   UNL     1      -3.312  11.859  18.843  0.00  0.00    +0.000 N 
ATOM      9  C   UNL     1      -2.724  12.118  20.087  0.00  0.00    +0.000 A 
ENDROOT
BRANCH   1  12
ATOM     10  C   UNL     1       1.118   9.920  19.297  0.00  0.00    +0.000 A 
ATOM     11  N   UNL     1       0.191  10.082  20.213  0.00  0.00    +0.000 NA
ATOM     12  C   UNL     1      -0.290  11.337  19.956  0.00  0.00    +0.000 A 
ATOM     13  N   UNL     1       0.423  11.998  19.022  0.00  0.00    +0.000 NA
ATOM     14  O   UNL     1       1.341  11.044  18.563  0.00  0.00    +0.000 OA
BRANCH  10  18
ATOM     15  C   UNL     1       3.141   6.224  18.479  0.00  0.00    +0.000 A 
ATOM     16  C   UNL     1       3.321   7.330  17.627  0.00  0.00    +0.000 A 
ATOM     17  C   UNL     1       2.688   8.560  17.873  0.00  0.00    +0.000 A 
ATOM     18  C   UNL     1       1.857   8.707  18.985  0.00  0.00    +0.000 A 
ATOM     19  C   UNL     1       1.691   7.607  19.836  0.00  0.00    +0.000 A 
ATOM     20  C   UNL     1       2.337   6.386  19.611  0.00  0.00    +0.000 A 
ATOM     21 CL   UNL     1       2.119   5.215  20.861  0.00  0.00    +0.000 Cl
BRANCH  15  22
ATOM     22  O   UNL     1       3.877   5.132  18.113  0.00  0.00    +0.000 OA
BRANCH  22  24
ATOM     23  C   UNL     1       4.693   3.297  19.423  0.00  0.00    +0.000 C 
ATOM     24  C   UNL     1       4.976   4.718  18.936  0.00  0.00    +0.000 C 
ATOM     25  C   UNL     1       6.243   4.718  18.084  0.00  0.00    +0.000 C 
ENDBRANCH  22  24
ENDBRANCH  15  22
ENDBRANCH  10  18
ENDBRANCH   1  12
BRANCH   8  26
ATOM     26  C   UNL     1      -2.741  11.141  17.699  0.00  0.00    +0.000 C 
ATOM     27  C   UNL     1      -2.738   9.632  17.965  0.00  0.00    +0.000 C 
ATOM     28  C   UNL     1      -3.428  11.409  16.350  0.00  0.00    +0.000 C 
ENDBRANCH   8  26
BRANCH   6  29
ATOM     29  C   UNL     1      -6.266  13.403  20.440  0.00  0.00    +0.000 C 
BRANCH  29  30
ATOM     30  C   UNL     1      -7.407  12.411  20.231  0.00  0.00    +0.000 C 
BRANCH  30  31
ATOM     31  C   UNL     1      -7.611  11.558  21.461  0.00  0.00    +0.000 C 
ATOM     32  O   UNL     1      -7.587  10.337  21.492  0.00  0.00    +0.000 OA
BRANCH  31  33
ATOM     33  O   UNL     1      -7.821  12.303  22.570  0.00  0.00    +0.000 OA
ATOM     34  H   UNL     1      -8.397  13.075  22.426  0.00  0.00    +0.000 HD
ENDBRANCH  31  33
ENDBRANCH  30  31
ENDBRANCH  29  30
ENDBRANCH   6  29
TORSDOF 9
ENDMDL
MODEL 3
REMARK VINA RESULT:      -7.4      1.871      3.377
REMARK  Name = 
REMARK  13 active torsions:
REMARK  status: ('A' for Active; 'I' for Inactive)
REMARK    1  A    between atoms: C_1  and  C_2
REMARK    2  A    between atoms: C_2  and  C_3
REMARK    3  A    between atoms: C_2  and  O_4
REMARK    4  A    between atoms: O_4  and  C_5
REMARK    5  A    between atoms: C_8  and  C_9
REMARK    6  A    between atoms: C_11  and  C_12
REMARK    7  A    between atoms: C_17  and  C_18
REMARK    8  A    between atoms: C_18  and  C_19
REMARK    9  A    between atoms: C_19  and  C_20
REMARK   10  A    between atoms: C_20  and  O_22
REMARK   11  A    between atoms: N_24  and  C_25
REMARK   12  A    between atoms: C_25  and  C_26
REMARK   13  A    between atoms: C_25  and  C_27
REMARK                            x       y       z     vdW  Elec       q    Type
REMARK                         _______ _______ _______ _____ _____    ______ ____
ROOT
ATOM      1  C   UNL     1      -0.606  11.390  20.518  0.00  0.00    +0.000 A 
ATOM      2  C   UNL     1      -0.192  11.841  21.792  0.00  0.00    +0.000 A 
ATOM      3  C   UNL     1      -1.017  12.597  22.611  0.00  0.00    +0.000 A 
ATOM      4  C   UNL     1      -2.290  12.943  22.174  0.00  0.00    +0.000 A 
ATOM      5  C   UNL     1      -2.751  12.540  20.901  0.00  0.00    +0.000 A 
ATOM      6  C   UNL     1      -3.987  12.784  20.224  0.00  0.00    +0.000 A 
ATOM      7  C   UNL     1      -3.905  12.119  19.028  0.00  0.00    +0.000 A 
ATOM      8  N   UNL     1      -2.683  11.496  18.924  0.00  0.00    +0.000 N 
ATOM      9  C   UNL     1      -1.920  11.746  20.072  0.00  0.00    +0.000 A 
ENDROOT
BRANCH   1  12
ATOM     10  C   UNL     1       1.599   9.019  19.162  0.00  0.00    +0.000 A 
ATOM     11  N   UNL     1       0.908   9.446  20.194  0.00  0.00    +0.000 NA
ATOM     12  C   UNL     1       0.349  10.610  19.740  0.00  0.00    +0.000 A 
ATOM     13  N   UNL     1       0.809  10.982  18.528  0.00  0.00    +0.000 NA
ATOM     14  O   UNL     1       1.617   9.908  18.131  0.00  0.00    +0.000 OA
BRANCH  10  18
ATOM     15  C   UNL     1       3.755   5.350  18.611  0.00  0.00    +0.000 A 
ATOM     16  C   UNL     1       2.869   5.491  19.696  0.00  0.00    +0.000 A 
ATOM     17  C   UNL     1       2.135   6.671  19.898  0.00  0.00    +0.000 A 
ATOM     18  C   UNL     1       2.274   7.740  19.011  0.00  0.00    +0.000 A 
ATOM     19  C   UNL     1       3.149   7.591  17.926  0.00  0.00    +0.000 A 
ATOM     20  C   UNL     1       3.865   6.409  17.705  0.00  0.00    +0.000 A 
ATOM     21 CL   UNL     1       4.764   6.378  16.232  0.00  0.00    +0.000 Cl
BRANCH  15  22
ATOM     22  O   UNL     1       4.340   4.116  18.545  0.00  0.00    +0.000 OA
BRANCH  22  24
ATOM     23  C   UNL     1       3.496   1.882  18.755  0.00  0.00    +0.000 C 
ATOM     24  C   UNL     1       3.689   3.069  17.812  0.00  0.00    +0.000 C 
ATOM     25  C   UNL     1       2.324   3.579  17.355  0.00  0.00    +0.000 C 
ENDBRANCH  22  24
ENDBRANCH  15  22
ENDBRANCH  10  18
ENDBRANCH   1  12
BRANCH   8  26
ATOM     26  C   UNL     1      -2.357  10.630  17.787  0.00  0.00    +0.000 C 
ATOM     27  C   UNL     1      -3.317   9.437  17.734  0.00  0.00    +0.000 C 
ATOM     28  C   UNL     1      -2.349  11.327  16.417  0.00  0.00    +0.000 C 
ENDBRANCH   8  26
BRANCH   6  29
ATOM     29  C   UNL     1      -5.183  13.555  20.704  0.00  0.00    +0.000 C 
BRANCH  29  30
ATOM     30  C   UNL     1      -6.131  12.717  21.559  0.00  0.00    +0.000 C 
BRANCH  30  31
ATOM     31  C   UNL     1      -5.970  13.049  23.023  0.00  0.00    +0.000 C 
ATOM     32  O   UNL     1      -5.471  14.072  23.470  0.00  0.00    +0.000 OA
BRANCH  31  33
ATOM     33  O   UNL     1      -6.457  12.076  23.825  0.00  0.00    +0.000 OA
ATOM     34  H   UNL     1      -7.404  11.892  23.694  0.00  0.00    +0.000 HD
ENDBRANCH  31  33
ENDBRANCH  30  31
ENDBRANCH  29  30
ENDBRANCH   6  29
TORSDOF 9
ENDMDL
MODEL 4
REMARK VINA RESULT:      -7.4      1.796      2.243
REMARK  Name = 
REMARK  13 active torsions:
REMARK  status: ('A' for Active; 'I' for Inactive)
REMARK    1  A    between atoms: C_1  and  C_2
REMARK    2  A    between atoms: C_2  and  C_3
REMARK    3  A    between atoms: C_2  and  O_4
REMARK    4  A    between atoms: O_4  and  C_5
REMARK    5  A    between atoms: C_8  and  C_9
REMARK    6  A    between atoms: C_11  and  C_12
REMARK    7  A    between atoms: C_17  and  C_18
REMARK    8  A    between atoms: C_18  and  C_19
REMARK    9  A    between atoms: C_19  and  C_20
REMARK   10  A    between atoms: C_20  and  O_22
REMARK   11  A    between atoms: N_24  and  C_25
REMARK   12  A    between atoms: C_25  and  C_26
REMARK   13  A    between atoms: C_25  and  C_27
REMARK                            x       y       z     vdW  Elec       q    Type
REMARK                         _______ _______ _______ _____ _____    ______ ____
ROOT
ATOM      1  C   UNL     1      -1.958  11.376  18.821  0.00  0.00    +0.000 A 
ATOM      2  C   UNL     1      -2.702  11.223  17.630  0.00  0.00    +0.000 A 
ATOM      3  C   UNL     1      -4.011  11.667  17.514  0.00  0.00    +0.000 A 
ATOM      4  C   UNL     1      -4.630  12.272  18.600  0.00  0.00    +0.000 A 
ATOM      5  C   UNL     1      -3.944  12.434  19.825  0.00  0.00    +0.000 A 
ATOM      6  C   UNL     1      -4.362  12.992  21.074  0.00  0.00    +0.000 A 
ATOM      7  C   UNL     1      -3.273  12.926  21.905  0.00  0.00    +0.000 A 
ATOM      8  N   UNL     1      -2.217  12.342  21.243  0.00  0.00    +0.000 N 
ATOM      9  C   UNL     1      -2.599  12.003  19.939  0.00  0.00    +0.000 A 
ENDROOT
BRANCH   1  12
ATOM     10  C   UNL     1       1.006   9.500  18.935  0.00  0.00    +0.000 A 
ATOM     11  N   UNL     1      -0.285   9.572  19.164  0.00  0.00    +0.000 NA
ATOM     12  C   UNL     1      -0.593  10.862  18.831  0.00  0.00    +0.000 A 
ATOM     13  N   UNL     1       0.493  11.615  18.564  0.00  0.00    +0.000 NA
ATOM     14  O   UNL     1       1.554  10.701  18.604  0.00  0.00    +0.000 OA
BRANCH  10  18
ATOM     15  C   UNL     1       3.645   6.116  18.887  0.00  0.00    +0.000 A 
ATOM     16  C   UNL     1       2.739   6.288  19.950  0.00  0.00    +0.000 A 
ATOM     17  C   UNL     1       1.850   7.375  19.991  0.00  0.00    +0.000 A 
ATOM     18  C   UNL     1       1.850   8.315  18.959  0.00  0.00    +0.000 A 
ATOM     19  C   UNL     1       2.745   8.133  17.897  0.00  0.00    +0.000 A 
ATOM     20  C   UNL     1       3.617   7.040  17.838  0.00  0.00    +0.000 A 
ATOM     21 CL   UNL     1       4.524   6.921  16.374  0.00  0.00    +0.000 Cl
BRANCH  15  22
ATOM     22  O   UNL     1       4.392   4.975  18.990  0.00  0.00    +0.000 OA
BRANCH  22  24
ATOM     23  C   UNL     1       3.817   3.240  17.438  0.00  0.00    +0.000 C 
ATOM     24  C   UNL     1       3.743   3.700  18.894  0.00  0.00    +0.000 C 
ATOM     25  C   UNL     1       4.499   2.708  19.776  0.00  0.00    +0.000 C 
ENDBRANCH  22  24
ENDBRANCH  15  22
ENDBRANCH  10  18
ENDBRANCH   1  12
BRANCH   8  26
ATOM     26  C   UNL     1      -0.892  12.230  21.861  0.00  0.00    +0.000 C 
ATOM     27  C   UNL     1      -0.636  13.420  22.792  0.00  0.00    +0.000 C 
ATOM     28  C   UNL     1      -0.641  10.926  22.636  0.00  0.00    +0.000 C 
ENDBRANCH   8  26
BRANCH   6  29
ATOM     29  C   UNL     1      -5.689  13.593  21.435  0.00  0.00    +0.000 C 
BRANCH  29  30
ATOM     30  C   UNL     1      -5.834  13.866  22.931  0.00  0.00    +0.000 C 
BRANCH  30  31
ATOM     31  C   UNL     1      -6.557  12.730  23.616  0.00  0.00    +0.000 C 
ATOM     32  O   UNL     1      -7.732  12.436  23.457  0.00  0.00    +0.000 OA
BRANCH  31  33
ATOM     33  O   UNL     1      -5.747  12.037  24.448  0.00  0.00    +0.000 OA
ATOM     34  H   UNL     1      -5.041  11.543  23.993  0.00  0.00    +0.000 HD
ENDBRANCH  31  33
ENDBRANCH  30  31
ENDBRANCH  29  30
ENDBRANCH   6  29
TORSDOF 9
ENDMDL
MODEL 5
REMARK VINA RESULT:      -7.4      2.720      3.869
REMARK  Name = 
REMARK  13 active torsions:
REMARK  status: ('A' for Active; 'I' for Inactive)
REMARK    1  A    between atoms: C_1  and  C_2
REMARK    2  A    between atoms: C_2  and  C_3
REMARK    3  A    between atoms: C_2  and  O_4
REMARK    4  A    between atoms: O_4  and  C_5
REMARK    5  A    between atoms: C_8  and  C_9
REMARK    6  A    between atoms: C_11  and  C_12
REMARK    7  A    between atoms: C_17  and  C_18
REMARK    8  A    between atoms: C_18  and  C_19
REMARK    9  A    between atoms: C_19  and  C_20
REMARK   10  A    between atoms: C_20  and  O_22
REMARK   11  A    between atoms: N_24  and  C_25
REMARK   12  A    between atoms: C_25  and  C_26
REMARK   13  A    between atoms: C_25  and  C_27
REMARK                            x       y       z     vdW  Elec       q    Type
REMARK                         _______ _______ _______ _____ _____    ______ ____
ROOT
ATOM      1  C   UNL     1       0.445   9.497  20.814  0.00  0.00    +0.000 A 
ATOM      2  C   UNL     1       0.085   8.559  21.808  0.00  0.00    +0.000 A 
ATOM      3  C   UNL     1      -0.586   8.928  22.963  0.00  0.00    +0.000 A 
ATOM      4  C   UNL     1      -0.913  10.262  23.173  0.00  0.00    +0.000 A 
ATOM      5  C   UNL     1      -0.561  11.249  22.225  0.00  0.00    +0.000 A 
ATOM      6  C   UNL     1      -0.758  12.666  22.220  0.00  0.00    +0.000 A 
ATOM      7  C   UNL     1      -0.249  13.119  21.030  0.00  0.00    +0.000 A 
ATOM      8  N   UNL     1       0.265  12.063  20.312  0.00  0.00    +0.000 N 
ATOM      9  C   UNL     1       0.104  10.873  21.032  0.00  0.00    +0.000 A 
ENDROOT
BRANCH   1  12
ATOM     10  C   UNL     1       2.434   7.814  18.463  0.00  0.00    +0.000 A 
ATOM     11  N   UNL     1       2.153   8.061  19.722  0.00  0.00    +0.000 NA
ATOM     12  C   UNL     1       1.158   8.997  19.644  0.00  0.00    +0.000 A 
ATOM     13  N   UNL     1       0.943   9.441  18.389  0.00  0.00    +0.000 NA
ATOM     14  O   UNL     1       1.772   8.632  17.601  0.00  0.00    +0.000 OA
BRANCH  10  18
ATOM     15  C   UNL     1       4.831   4.649  16.832  0.00  0.00    +0.000 A 
ATOM     16  C   UNL     1       5.357   5.950  16.937  0.00  0.00    +0.000 A 
ATOM     17  C   UNL     1       4.608   7.006  17.480  0.00  0.00    +0.000 A 
ATOM     18  C   UNL     1       3.308   6.778  17.933  0.00  0.00    +0.000 A 
ATOM     19  C   UNL     1       2.792   5.479  17.838  0.00  0.00    +0.000 A 
ATOM     20  C   UNL     1       3.541   4.417  17.320  0.00  0.00    +0.000 A 
ATOM     21 CL   UNL     1       2.777   2.873  17.436  0.00  0.00    +0.000 Cl
BRANCH  15  22
ATOM     22  O   UNL     1       5.722   3.741  16.330  0.00  0.00    +0.000 OA
BRANCH  22  24
ATOM     23  C   UNL     1       4.969   4.319  14.129  0.00  0.00    +0.000 C 
ATOM     24  C   UNL     1       6.161   3.866  14.971  0.00  0.00    +0.000 C 
ATOM     25  C   UNL     1       7.254   4.932  14.915  0.00  0.00    +0.000 C 
ENDBRANCH  22  24
ENDBRANCH  15  22
ENDBRANCH  10  18
ENDBRANCH   1  12
BRANCH   8  26
ATOM     26  C   UNL     1       0.789  12.242  18.954  0.00  0.00    +0.000 C 
ATOM     27  C   UNL     1      -0.158  13.120  18.129  0.00  0.00    +0.000 C 
ATOM     28  C   UNL     1       2.209  12.824  18.873  0.00  0.00    +0.000 C 
ENDBRANCH   8  26
BRANCH   6  29
ATOM     29  C   UNL     1      -1.429  13.523  23.255  0.00  0.00    +0.000 C 
BRANCH  29  30
ATOM     30  C   UNL     1      -2.848  13.930  22.865  0.00  0.00    +0.000 C 
BRANCH  30  31
ATOM     31  C   UNL     1      -3.779  12.741  22.912  0.00  0.00    +0.000 C 
ATOM     32  O   UNL     1      -4.499  12.366  21.998  0.00  0.00    +0.000 OA
BRANCH  31  33
ATOM     33  O   UNL     1      -3.732  12.101  24.101  0.00  0.00    +0.000 OA
ATOM     34  H   UNL     1      -4.471  12.320  24.698  0.00  0.00    +0.000 HD
ENDBRANCH  31  33
ENDBRANCH  30  31
ENDBRANCH  29  30
ENDBRANCH   6  29
TORSDOF 9
ENDMDL
MODEL 6
REMARK VINA RESULT:      -7.3      1.728      3.156
REMARK  Name = 
REMARK  13 active torsions:
REMARK  status: ('A' for Active; 'I' for Inactive)
REMARK    1  A    between atoms: C_1  and  C_2
REMARK    2  A    between atoms: C_2  and  C_3
REMARK    3  A    between atoms: C_2  and  O_4
REMARK    4  A    between atoms: O_4  and  C_5
REMARK    5  A    between atoms: C_8  and  C_9
REMARK    6  A    between atoms: C_11  and  C_12
REMARK    7  A    between atoms: C_17  and  C_18
REMARK    8  A    between atoms: C_18  and  C_19
REMARK    9  A    between atoms: C_19  and  C_20
REMARK   10  A    between atoms: C_20  and  O_22
REMARK   11  A    between atoms: N_24  and  C_25
REMARK   12  A    between atoms: C_25  and  C_26
REMARK   13  A    between atoms: C_25  and  C_27
REMARK                            x       y       z     vdW  Elec       q    Type
REMARK                         _______ _______ _______ _____ _____    ______ ____
ROOT
ATOM      1  C   UNL     1      -1.454  11.824  20.888  0.00  0.00    +0.000 A 
ATOM      2  C   UNL     1      -1.177  12.182  22.227  0.00  0.00    +0.000 A 
ATOM      3  C   UNL     1      -2.133  12.756  23.050  0.00  0.00    +0.000 A 
ATOM      4  C   UNL     1      -3.407  13.008  22.554  0.00  0.00    +0.000 A 
ATOM      5  C   UNL     1      -3.737  12.693  21.217  0.00  0.00    +0.000 A 
ATOM      6  C   UNL     1      -4.946  12.873  20.476  0.00  0.00    +0.000 A 
ATOM      7  C   UNL     1      -4.713  12.349  19.230  0.00  0.00    +0.000 A 
ATOM      8  N   UNL     1      -3.423  11.874  19.159  0.00  0.00    +0.000 N 
ATOM      9  C   UNL     1      -2.769  12.083  20.380  0.00  0.00    +0.000 A 
ENDROOT
BRANCH   1  12
ATOM     10  C   UNL     1       1.026   9.822  19.418  0.00  0.00    +0.000 A 
ATOM     11  N   UNL     1       0.188  10.022  20.409  0.00  0.00    +0.000 NA
ATOM     12  C   UNL     1      -0.369  11.236  20.112  0.00  0.00    +0.000 A 
ATOM     13  N   UNL     1       0.221  11.847  19.064  0.00  0.00    +0.000 NA
ATOM     14  O   UNL     1       1.128  10.893  18.585  0.00  0.00    +0.000 OA
BRANCH  10  18
ATOM     15  C   UNL     1       3.102   6.144  18.657  0.00  0.00    +0.000 A 
ATOM     16  C   UNL     1       3.219   7.219  17.756  0.00  0.00    +0.000 A 
ATOM     17  C   UNL     1       2.567   8.442  17.980  0.00  0.00    +0.000 A 
ATOM     18  C   UNL     1       1.781   8.615  19.121  0.00  0.00    +0.000 A 
ATOM     19  C   UNL     1       1.677   7.546  20.021  0.00  0.00    +0.000 A 
ATOM     20  C   UNL     1       2.343   6.333  19.815  0.00  0.00    +0.000 A 
ATOM     21 CL   UNL     1       2.207   5.207  21.118  0.00  0.00    +0.000 Cl
BRANCH  15  22
ATOM     22  O   UNL     1       3.849   5.055  18.302  0.00  0.00    +0.000 OA
BRANCH  22  24
ATOM     23  C   UNL     1       2.933   3.140  17.188  0.00  0.00    +0.000 C 
ATOM     24  C   UNL     1       3.328   3.740  18.537  0.00  0.00    +0.000 C 
ATOM     25  C   UNL     1       4.432   2.890  19.165  0.00  0.00    +0.000 C 
ENDBRANCH  22  24
ENDBRANCH  15  22
ENDBRANCH  10  18
ENDBRANCH   1  12
BRANCH   8  26
ATOM     26  C   UNL     1      -2.929  11.170  17.972  0.00  0.00    +0.000 C 
ATOM     27  C   UNL     1      -2.913   9.658  18.216  0.00  0.00    +0.000 C 
ATOM     28  C   UNL     1      -3.700  11.459  16.674  0.00  0.00    +0.000 C 
ENDBRANCH   8  26
BRANCH   6  29
ATOM     29  C   UNL     1      -6.250  13.458  20.936  0.00  0.00    +0.000 C 
BRANCH  29  30
ATOM     30  C   UNL     1      -7.067  12.496  21.796  0.00  0.00    +0.000 C 
BRANCH  30  31
ATOM     31  C   UNL     1      -7.242  13.041  23.194  0.00  0.00    +0.000 C 
ATOM     32  O   UNL     1      -7.914  12.531  24.078  0.00  0.00    +0.000 OA
BRANCH  31  33
ATOM     33  O   UNL     1      -6.550  14.187  23.386  0.00  0.00    +0.000 OA
ATOM     34  H   UNL     1      -5.584  14.085  23.309  0.00  0.00    +0.000 HD
ENDBRANCH  31  33
ENDBRANCH  30  31
ENDBRANCH  29  30
ENDBRANCH   6  29
TORSDOF 9
ENDMDL
MODEL 7
REMARK VINA RESULT:      -7.2      2.160      3.556
REMARK  Name = 
REMARK  13 active torsions:
REMARK  status: ('A' for Active; 'I' for Inactive)
REMARK    1  A    between atoms: C_1  and  C_2
REMARK    2  A    between atoms: C_2  and  C_3
REMARK    3  A    between atoms: C_2  and  O_4
REMARK    4  A    between atoms: O_4  and  C_5
REMARK    5  A    between atoms: C_8  and  C_9
REMARK    6  A    between atoms: C_11  and  C_12
REMARK    7  A    between atoms: C_17  and  C_18
REMARK    8  A    between atoms: C_18  and  C_19
REMARK    9  A    between atoms: C_19  and  C_20
REMARK   10  A    between atoms: C_20  and  O_22
REMARK   11  A    between atoms: N_24  and  C_25
REMARK   12  A    between atoms: C_25  and  C_26
REMARK   13  A    between atoms: C_25  and  C_27
REMARK                            x       y       z     vdW  Elec       q    Type
REMARK                         _______ _______ _______ _____ _____    ______ ____
ROOT
ATOM      1  C   UNL     1      -0.765  11.661  20.464  0.00  0.00    +0.000 A 
ATOM      2  C   UNL     1      -0.374  12.222  21.700  0.00  0.00    +0.000 A 
ATOM      3  C   UNL     1      -1.235  12.993  22.467  0.00  0.00    +0.000 A 
ATOM      4  C   UNL     1      -2.523  13.243  22.012  0.00  0.00    +0.000 A 
ATOM      5  C   UNL     1      -2.965  12.727  20.773  0.00  0.00    +0.000 A 
ATOM      6  C   UNL     1      -4.212  12.860  20.086  0.00  0.00    +0.000 A 
ATOM      7  C   UNL     1      -4.098  12.117  18.939  0.00  0.00    +0.000 A 
ATOM      8  N   UNL     1      -2.846  11.549  18.875  0.00  0.00    +0.000 N 
ATOM      9  C   UNL     1      -2.096  11.919  19.999  0.00  0.00    +0.000 A 
ENDROOT
BRANCH   1  12
ATOM     10  C   UNL     1       1.482   9.270  19.218  0.00  0.00    +0.000 A 
ATOM     11  N   UNL     1       0.728   9.692  20.207  0.00  0.00    +0.000 NA
ATOM     12  C   UNL     1       0.227  10.876  19.739  0.00  0.00    +0.000 A 
ATOM     13  N   UNL     1       0.779  11.261  18.570  0.00  0.00    +0.000 NA
ATOM     14  O   UNL     1       1.592  10.178  18.210  0.00  0.00    +0.000 OA
BRANCH  10  18
ATOM     15  C   UNL     1       3.592   5.565  18.732  0.00  0.00    +0.000 A 
ATOM     16  C   UNL     1       2.697   5.731  19.806  0.00  0.00    +0.000 A 
ATOM     17  C   UNL     1       1.978   6.923  19.987  0.00  0.00    +0.000 A 
ATOM     18  C   UNL     1       2.141   7.980  19.089  0.00  0.00    +0.000 A 
ATOM     19  C   UNL     1       3.024   7.805  18.015  0.00  0.00    +0.000 A 
ATOM     20  C   UNL     1       3.726   6.611  17.815  0.00  0.00    +0.000 A 
ATOM     21 CL   UNL     1       4.638   6.549  16.351  0.00  0.00    +0.000 Cl
BRANCH  15  22
ATOM     22  O   UNL     1       4.160   4.321  18.686  0.00  0.00    +0.000 OA
BRANCH  22  24
ATOM     23  C   UNL     1       2.788   2.676  17.610  0.00  0.00    +0.000 C 
ATOM     24  C   UNL     1       3.347   3.168  18.944  0.00  0.00    +0.000 C 
ATOM     25  C   UNL     1       4.232   2.082  19.553  0.00  0.00    +0.000 C 
ENDBRANCH  22  24
ENDBRANCH  15  22
ENDBRANCH  10  18
ENDBRANCH   1  12
BRANCH   8  26
ATOM     26  C   UNL     1      -2.479  10.621  17.801  0.00  0.00    +0.000 C 
ATOM     27  C   UNL     1      -3.437   9.425  17.779  0.00  0.00    +0.000 C 
ATOM     28  C   UNL     1      -2.419  11.240  16.395  0.00  0.00    +0.000 C 
ENDBRANCH   8  26
BRANCH   6  29
ATOM     29  C   UNL     1      -5.445  13.604  20.514  0.00  0.00    +0.000 C 
BRANCH  29  30
ATOM     30  C   UNL     1      -6.609  13.443  19.540  0.00  0.00    +0.000 C 
BRANCH  30  31
ATOM     31  C   UNL     1      -6.781  14.685  18.698  0.00  0.00    +0.000 C 
ATOM     32  O   UNL     1      -7.211  15.758  19.094  0.00  0.00    +0.000 OA
BRANCH  31  33
ATOM     33  O   UNL     1      -6.391  14.493  17.418  0.00  0.00    +0.000 OA
ATOM     34  H   UNL     1      -6.302  15.316  16.903  0.00  0.00    +0.000 HD
ENDBRANCH  31  33
ENDBRANCH  30  31
ENDBRANCH  29  30
ENDBRANCH   6  29
TORSDOF 9
ENDMDL
MODEL 8
REMARK VINA RESULT:      -7.2      1.640      3.167
REMARK  Name = 
REMARK  13 active torsions:
REMARK  status: ('A' for Active; 'I' for Inactive)
REMARK    1  A    between atoms: C_1  and  C_2
REMARK    2  A    between atoms: C_2  and  C_3
REMARK    3  A    between atoms: C_2  and  O_4
REMARK    4  A    between atoms: O_4  and  C_5
REMARK    5  A    between atoms: C_8  and  C_9
REMARK    6  A    between atoms: C_11  and  C_12
REMARK    7  A    between atoms: C_17  and  C_18
REMARK    8  A    between atoms: C_18  and  C_19
REMARK    9  A    between atoms: C_19  and  C_20
REMARK   10  A    between atoms: C_20  and  O_22
REMARK   11  A    between atoms: N_24  and  C_25
REMARK   12  A    between atoms: C_25  and  C_26
REMARK   13  A    between atoms: C_25  and  C_27
REMARK                            x       y       z     vdW  Elec       q    Type
REMARK                         _______ _______ _______ _____ _____    ______ ____
ROOT
ATOM      1  C   UNL     1      -0.668  11.477  20.564  0.00  0.00    +0.000 A 
ATOM      2  C   UNL     1      -0.279  11.906  21.854  0.00  0.00    +0.000 A 
ATOM      3  C   UNL     1      -1.128  12.629  22.678  0.00  0.00    +0.000 A 
ATOM      4  C   UNL     1      -2.401  12.963  22.232  0.00  0.00    +0.000 A 
ATOM      5  C   UNL     1      -2.838  12.580  20.945  0.00  0.00    +0.000 A 
ATOM      6  C   UNL     1      -4.069  12.818  20.257  0.00  0.00    +0.000 A 
ATOM      7  C   UNL     1      -3.960  12.183  19.046  0.00  0.00    +0.000 A 
ATOM      8  N   UNL     1      -2.725  11.584  18.945  0.00  0.00    +0.000 N 
ATOM      9  C   UNL     1      -1.982  11.821  20.108  0.00  0.00    +0.000 A 
ENDROOT
BRANCH   1  12
ATOM     10  C   UNL     1       1.575   9.166  19.169  0.00  0.00    +0.000 A 
ATOM     11  N   UNL     1       0.850   9.545  20.196  0.00  0.00    +0.000 NA
ATOM     12  C   UNL     1       0.311  10.732  19.782  0.00  0.00    +0.000 A 
ATOM     13  N   UNL     1       0.813  11.161  18.606  0.00  0.00    +0.000 NA
ATOM     14  O   UNL     1       1.631  10.104  18.185  0.00  0.00    +0.000 OA
BRANCH  10  18
ATOM     15  C   UNL     1       3.404   5.310  18.718  0.00  0.00    +0.000 A 
ATOM     16  C   UNL     1       3.650   6.322  17.771  0.00  0.00    +0.000 A 
ATOM     17  C   UNL     1       3.082   7.601  17.895  0.00  0.00    +0.000 A 
ATOM     18  C   UNL     1       2.251   7.892  18.978  0.00  0.00    +0.000 A 
ATOM     19  C   UNL     1       2.019   6.886  19.924  0.00  0.00    +0.000 A 
ATOM     20  C   UNL     1       2.601   5.617  19.820  0.00  0.00    +0.000 A 
ATOM     21 CL   UNL     1       2.311   4.579  21.168  0.00  0.00    +0.000 Cl
BRANCH  15  22
ATOM     22  O   UNL     1       4.084   4.151  18.463  0.00  0.00    +0.000 OA
BRANCH  22  24
ATOM     23  C   UNL     1       3.345   1.886  18.728  0.00  0.00    +0.000 C 
ATOM     24  C   UNL     1       3.417   3.082  17.779  0.00  0.00    +0.000 C 
ATOM     25  C   UNL     1       2.002   3.540  17.433  0.00  0.00    +0.000 C 
ENDBRANCH  22  24
ENDBRANCH  15  22
ENDBRANCH  10  18
ENDBRANCH   1  12
BRANCH   8  26
ATOM     26  C   UNL     1      -2.369  10.750  17.793  0.00  0.00    +0.000 C 
ATOM     27  C   UNL     1      -3.252   9.497  17.749  0.00  0.00    +0.000 C 
ATOM     28  C   UNL     1      -2.436  11.456  16.430  0.00  0.00    +0.000 C 
ENDBRANCH   8  26
BRANCH   6  29
ATOM     29  C   UNL     1      -5.285  13.558  20.737  0.00  0.00    +0.000 C 
BRANCH  29  30
ATOM     30  C   UNL     1      -5.249  13.858  22.234  0.00  0.00    +0.000 C 
BRANCH  30  31
ATOM     31  C   UNL     1      -6.137  12.901  22.995  0.00  0.00    +0.000 C 
ATOM     32  O   UNL     1      -6.277  12.874  24.209  0.00  0.00    +0.000 OA
BRANCH  31  33
ATOM     33  O   UNL     1      -6.795  12.052  22.175  0.00  0.00    +0.000 OA
ATOM     34  H   UNL     1      -7.586  11.647  22.575  0.00  0.00    +0.000 HD
ENDBRANCH  31  33
ENDBRANCH  30  31
ENDBRANCH  29  30
ENDBRANCH   6  29
TORSDOF 9
ENDMDL
MODEL 9
REMARK VINA RESULT:      -7.1      3.488      4.614
REMARK  Name = 
REMARK  13 active torsions:
REMARK  status: ('A' for Active; 'I' for Inactive)
REMARK    1  A    between atoms: C_1  and  C_2
REMARK    2  A    between atoms: C_2  and  C_3
REMARK    3  A    between atoms: C_2  and  O_4
REMARK    4  A    between atoms: O_4  and  C_5
REMARK    5  A    between atoms: C_8  and  C_9
REMARK    6  A    between atoms: C_11  and  C_12
REMARK    7  A    between atoms: C_17  and  C_18
REMARK    8  A    between atoms: C_18  and  C_19
REMARK    9  A    between atoms: C_19  and  C_20
REMARK   10  A    between atoms: C_20  and  O_22
REMARK   11  A    between atoms: N_24  and  C_25
REMARK   12  A    between atoms: C_25  and  C_26
REMARK   13  A    between atoms: C_25  and  C_27
REMARK                            x       y       z     vdW  Elec       q    Type
REMARK                         _______ _______ _______ _____ _____    ______ ____
ROOT
ATOM      1  C   UNL     1      -0.994  11.415  22.227  0.00  0.00    +0.000 A 
ATOM      2  C   UNL     1      -2.008  11.329  23.208  0.00  0.00    +0.000 A 
ATOM      3  C   UNL     1      -2.928  12.347  23.410  0.00  0.00    +0.000 A 
ATOM      4  C   UNL     1      -2.855  13.502  22.641  0.00  0.00    +0.000 A 
ATOM      5  C   UNL     1      -1.850  13.655  21.661  0.00  0.00    +0.000 A 
ATOM      6  C   UNL     1      -1.554  14.738  20.774  0.00  0.00    +0.000 A 
ATOM      7  C   UNL     1      -0.491  14.327  20.011  0.00  0.00    +0.000 A 
ATOM      8  N   UNL     1      -0.107  13.061  20.391  0.00  0.00    +0.000 N 
ATOM      9  C   UNL     1      -0.923  12.607  21.434  0.00  0.00    +0.000 A 
ENDROOT
BRANCH   1  12
ATOM     10  C   UNL     1       0.988   8.684  21.261  0.00  0.00    +0.000 A 
ATOM     11  N   UNL     1      -0.030   9.475  21.011  0.00  0.00    +0.000 NA
ATOM     12  C   UNL     1      -0.076  10.288  22.110  0.00  0.00    +0.000 A 
ATOM     13  N   UNL     1       0.775   9.911  23.085  0.00  0.00    +0.000 NA
ATOM     14  O   UNL     1       1.504   8.862  22.508  0.00  0.00    +0.000 OA
BRANCH  10  18
ATOM     15  C   UNL     1       2.689   5.680  18.712  0.00  0.00    +0.000 A 
ATOM     16  C   UNL     1       2.634   7.020  18.283  0.00  0.00    +0.000 A 
ATOM     17  C   UNL     1       2.099   8.032  19.097  0.00  0.00    +0.000 A 
ATOM     18  C   UNL     1       1.607   7.720  20.365  0.00  0.00    +0.000 A 
ATOM     19  C   UNL     1       1.675   6.387  20.792  0.00  0.00    +0.000 A 
ATOM     20  C   UNL     1       2.228   5.378  19.997  0.00  0.00    +0.000 A 
ATOM     21 CL   UNL     1       2.356   3.840  20.770  0.00  0.00    +0.000 Cl
BRANCH  15  22
ATOM     22  O   UNL     1       3.291   4.846  17.810  0.00  0.00    +0.000 OA
BRANCH  22  24
ATOM     23  C   UNL     1       5.559   4.658  18.562  0.00  0.00    +0.000 C 
ATOM     24  C   UNL     1       4.647   5.097  17.418  0.00  0.00    +0.000 C 
ATOM     25  C   UNL     1       4.952   4.260  16.177  0.00  0.00    +0.000 C 
ENDBRANCH  22  24
ENDBRANCH  15  22
ENDBRANCH  10  18
ENDBRANCH   1  12
BRANCH   8  26
ATOM     26  C   UNL     1       0.947  12.332  19.678  0.00  0.00    +0.000 C 
ATOM     27  C   UNL     1       0.354  11.567  18.489  0.00  0.00    +0.000 C 
ATOM     28  C   UNL     1       2.118  13.196  19.183  0.00  0.00    +0.000 C 
ENDBRANCH   8  26
BRANCH   6  29
ATOM     29  C   UNL     1      -2.264  16.052  20.628  0.00  0.00    +0.000 C 
BRANCH  29  30
ATOM     30  C   UNL     1      -1.330  17.197  20.242  0.00  0.00    +0.000 C 
BRANCH  30  31
ATOM     31  C   UNL     1      -1.674  17.732  18.872  0.00  0.00    +0.000 C 
ATOM     32  O   UNL     1      -2.614  18.469  18.612  0.00  0.00    +0.000 OA
BRANCH  31  33
ATOM     33  O   UNL     1      -0.806  17.311  17.926  0.00  0.00    +0.000 OA
ATOM     34  H   UNL     1      -0.802  17.857  17.119  0.00  0.00    +0.000 HD
ENDBRANCH  31  33
ENDBRANCH  30  31
ENDBRANCH  29  30
ENDBRANCH   6  29
TORSDOF 9
ENDMDL
