MODEL 1
REMARK VINA RESULT:      -7.6      0.000      0.000
REMARK  Name = 
REMARK  3 active torsions:
REMARK  status: ('A' for Active; 'I' for Inactive)
REMARK    1  A    between atoms: C_1  and  S_2
REMARK    2  A    between atoms: S_2  and  C_3
REMARK    3  A    between atoms: N_6  and  C_7
REMARK                            x       y       z     vdW  Elec       q    Type
REMARK                         _______ _______ _______ _____ _____    ______ ____
ROOT
ATOM      1  C   UNL     1       7.085   5.851  16.587  0.00  0.00    +0.000 A 
ATOM      2  N   UNL     1       6.157   4.951  16.910  0.00  0.00    +0.000 NA
ATOM      3  C   UNL     1       5.725   4.124  15.946  0.00  0.00    +0.000 A 
ATOM      4  N   UNL     1       4.757   3.136  16.290  0.00  0.00    +0.000 N 
ATOM      5  C   UNL     1       6.215   4.210  14.638  0.00  0.00    +0.000 A 
ATOM      6  C   UNL     1       5.782   3.427  13.543  0.00  0.00    +0.000 A 
ATOM      7  C   UNL     1       6.362   3.604  12.297  0.00  0.00    +0.000 A 
ATOM      8  C   UNL     1       7.353   4.558  12.192  0.00  0.00    +0.000 A 
ATOM      9  N   UNL     1       7.763   5.326  13.224  0.00  0.00    +0.000 NA
ATOM     10  C   UNL     1       7.204   5.173  14.423  0.00  0.00    +0.000 A 
ATOM     11  N   UNL     1       7.630   5.978  15.381  0.00  0.00    +0.000 NA
ATOM     12  H   UNL     1       5.126   2.214  16.081  0.00  0.00    +0.000 HD
ENDROOT
BRANCH   4  13
ATOM     13  C   UNL     1       4.022   3.161  17.500  0.00  0.00    +0.000 A 
ATOM     14  C   UNL     1       4.660   2.905  18.724  0.00  0.00    +0.000 A 
ATOM     15  C   UNL     1       3.937   2.821  19.914  0.00  0.00    +0.000 A 
ATOM     16  C   UNL     1       2.559   3.011  19.890  0.00  0.00    +0.000 A 
ATOM     17  I   UNL     1       1.464   2.787  21.641  0.00  0.00    +0.000 I 
ATOM     18  C   UNL     1       1.910   3.322  18.695  0.00  0.00    +0.000 A 
ATOM     19  C   UNL     1       2.644   3.405  17.503  0.00  0.00    +0.000 A 
ENDBRANCH   4  13
BRANCH   1  21
ATOM     20  C   UNL     1       7.787   5.835  19.232  0.00  0.00    +0.000 C 
ATOM     21  S   UNL     1       7.631   6.982  17.842  0.00  0.00    +0.000 S 
ENDBRANCH   1  21
TORSDOF 2
ENDMDL
MODEL 2
REMARK VINA RESULT:      -7.6      0.790      1.225
REMARK  Name = 
REMARK  3 active torsions:
REMARK  status: ('A' for Active; 'I' for Inactive)
REMARK    1  A    between atoms: C_1  and  S_2
REMARK    2  A    between atoms: S_2  and  C_3
REMARK    3  A    between atoms: N_6  and  C_7
REMARK                            x       y       z     vdW  Elec       q    Type
REMARK                         _______ _______ _______ _____ _____    ______ ____
ROOT
ATOM      1  C   UNL     1       7.085   5.635  16.890  0.00  0.00    +0.000 A 
ATOM      2  N   UNL     1       6.113   4.739  17.057  0.00  0.00    +0.000 NA
ATOM      3  C   UNL     1       5.702   4.056  15.979  0.00  0.00    +0.000 A 
ATOM      4  N   UNL     1       4.686   3.070  16.153  0.00  0.00    +0.000 N 
ATOM      5  C   UNL     1       6.256   4.284  14.715  0.00  0.00    +0.000 A 
ATOM      6  C   UNL     1       5.850   3.660  13.512  0.00  0.00    +0.000 A 
ATOM      7  C   UNL     1       6.494   3.969  12.325  0.00  0.00    +0.000 A 
ATOM      8  C   UNL     1       7.520   4.889  12.383  0.00  0.00    +0.000 A 
ATOM      9  N   UNL     1       7.906   5.507  13.521  0.00  0.00    +0.000 NA
ATOM     10  C   UNL     1       7.285   5.227  14.666  0.00  0.00    +0.000 A 
ATOM     11  N   UNL     1       7.691   5.891  15.735  0.00  0.00    +0.000 NA
ATOM     12  H   UNL     1       5.034   2.168  15.846  0.00  0.00    +0.000 HD
ENDROOT
BRANCH   4  13
ATOM     13  C   UNL     1       3.895   2.972  17.324  0.00  0.00    +0.000 A 
ATOM     14  C   UNL     1       2.955   3.968  17.631  0.00  0.00    +0.000 A 
ATOM     15  C   UNL     1       2.241   3.944  18.830  0.00  0.00    +0.000 A 
ATOM     16  C   UNL     1       2.453   2.906  19.731  0.00  0.00    +0.000 A 
ATOM     17  I   UNL     1       1.469   2.919  21.560  0.00  0.00    +0.000 I 
ATOM     18  C   UNL     1       3.341   1.875  19.422  0.00  0.00    +0.000 A 
ATOM     19  C   UNL     1       4.054   1.905  18.216  0.00  0.00    +0.000 A 
ENDBRANCH   4  13
BRANCH   1  21
ATOM     20  C   UNL     1       7.738   8.213  17.536  0.00  0.00    +0.000 C 
ATOM     21  S   UNL     1       7.607   6.579  18.300  0.00  0.00    +0.000 S 
ENDBRANCH   1  21
TORSDOF 2
ENDMDL
MODEL 3
REMARK VINA RESULT:      -7.3      4.320      5.553
REMARK  Name = 
REMARK  3 active torsions:
REMARK  status: ('A' for Active; 'I' for Inactive)
REMARK    1  A    between atoms: C_1  and  S_2
REMARK    2  A    between atoms: S_2  and  C_3
REMARK    3  A    between atoms: N_6  and  C_7
REMARK                            x       y       z     vdW  Elec       q    Type
REMARK                         _______ _______ _______ _____ _____    ______ ____
ROOT
ATOM      1  C   UNL     1       2.366   3.925  18.150  0.00  0.00    +0.000 A 
ATOM      2  N   UNL     1       2.264   5.241  18.334  0.00  0.00    +0.000 NA
ATOM      3  C   UNL     1       3.207   6.023  17.789  0.00  0.00    +0.000 A 
ATOM      4  N   UNL     1       3.088   7.435  17.952  0.00  0.00    +0.000 N 
ATOM      5  C   UNL     1       4.276   5.482  17.067  0.00  0.00    +0.000 A 
ATOM      6  C   UNL     1       5.348   6.216  16.507  0.00  0.00    +0.000 A 
ATOM      7  C   UNL     1       6.340   5.555  15.800  0.00  0.00    +0.000 A 
ATOM      8  C   UNL     1       6.224   4.186  15.679  0.00  0.00    +0.000 A 
ATOM      9  N   UNL     1       5.217   3.470  16.224  0.00  0.00    +0.000 NA
ATOM     10  C   UNL     1       4.264   4.093  16.916  0.00  0.00    +0.000 A 
ATOM     11  N   UNL     1       3.326   3.330  17.450  0.00  0.00    +0.000 NA
ATOM     12  H   UNL     1       3.047   7.878  17.040  0.00  0.00    +0.000 HD
ENDROOT
BRANCH   4  13
ATOM     13  C   UNL     1       2.206   8.035  18.883  0.00  0.00    +0.000 A 
ATOM     14  C   UNL     1       1.500   9.200  18.543  0.00  0.00    +0.000 A 
ATOM     15  C   UNL     1       0.708   9.865  19.479  0.00  0.00    +0.000 A 
ATOM     16  C   UNL     1       0.601   9.355  20.769  0.00  0.00    +0.000 A 
ATOM     17  I   UNL     1      -0.495  10.395  22.195  0.00  0.00    +0.000 I 
ATOM     18  C   UNL     1       1.248   8.168  21.114  0.00  0.00    +0.000 A 
ATOM     19  C   UNL     1       2.042   7.505  20.168  0.00  0.00    +0.000 A 
ENDBRANCH   4  13
BRANCH   1  21
ATOM     20  C   UNL     1       1.090   3.621  20.552  0.00  0.00    +0.000 C 
ATOM     21  S   UNL     1       1.150   2.875  18.905  0.00  0.00    +0.000 S 
ENDBRANCH   1  21
TORSDOF 2
ENDMDL
MODEL 4
REMARK VINA RESULT:      -7.0      3.020      3.207
REMARK  Name = 
REMARK  3 active torsions:
REMARK  status: ('A' for Active; 'I' for Inactive)
REMARK    1  A    between atoms: C_1  and  S_2
REMARK    2  A    between atoms: S_2  and  C_3
REMARK    3  A    between atoms: N_6  and  C_7
REMARK                            x       y       z     vdW  Elec       q    Type
REMARK                         _______ _______ _______ _____ _____    ______ ____
ROOT
ATOM      1  C   UNL     1       7.125   6.673  17.466  0.00  0.00    +0.000 A 
ATOM      2  N   UNL     1       5.833   6.564  17.774  0.00  0.00    +0.000 NA
ATOM      3  C   UNL     1       5.049   5.861  16.944  0.00  0.00    +0.000 A 
ATOM      4  N   UNL     1       3.673   5.710  17.283  0.00  0.00    +0.000 N 
ATOM      5  C   UNL     1       5.560   5.276  15.780  0.00  0.00    +0.000 A 
ATOM      6  C   UNL     1       4.806   4.569  14.814  0.00  0.00    +0.000 A 
ATOM      7  C   UNL     1       5.440   4.026  13.708  0.00  0.00    +0.000 A 
ATOM      8  C   UNL     1       6.803   4.208  13.609  0.00  0.00    +0.000 A 
ATOM      9  N   UNL     1       7.533   4.896  14.513  0.00  0.00    +0.000 NA
ATOM     10  C   UNL     1       6.932   5.434  15.574  0.00  0.00    +0.000 A 
ATOM     11  N   UNL     1       7.699   6.121  16.402  0.00  0.00    +0.000 NA
ATOM     12  H   UNL     1       3.450   4.723  17.359  0.00  0.00    +0.000 HD
ENDROOT
BRANCH   4  13
ATOM     13  C   UNL     1       3.031   6.486  18.279  0.00  0.00    +0.000 A 
ATOM     14  C   UNL     1       2.761   5.937  19.542  0.00  0.00    +0.000 A 
ATOM     15  C   UNL     1       2.037   6.649  20.500  0.00  0.00    +0.000 A 
ATOM     16  C   UNL     1       1.590   7.932  20.204  0.00  0.00    +0.000 A 
ATOM     17  I   UNL     1       0.427   8.956  21.588  0.00  0.00    +0.000 I 
ATOM     18  C   UNL     1       1.895   8.520  18.976  0.00  0.00    +0.000 A 
ATOM     19  C   UNL     1       2.623   7.800  18.019  0.00  0.00    +0.000 A 
ENDBRANCH   4  13
BRANCH   1  21
ATOM     20  C   UNL     1       8.012   9.249  17.722  0.00  0.00    +0.000 C 
ATOM     21  S   UNL     1       8.164   7.640  18.533  0.00  0.00    +0.000 S 
ENDBRANCH   1  21
TORSDOF 2
ENDMDL
MODEL 5
REMARK VINA RESULT:      -7.0      2.877      3.134
REMARK  Name = 
REMARK  3 active torsions:
REMARK  status: ('A' for Active; 'I' for Inactive)
REMARK    1  A    between atoms: C_1  and  S_2
REMARK    2  A    between atoms: S_2  and  C_3
REMARK    3  A    between atoms: N_6  and  C_7
REMARK                            x       y       z     vdW  Elec       q    Type
REMARK                         _______ _______ _______ _____ _____    ______ ____
ROOT
ATOM      1  C   UNL     1       7.068   6.514  17.467  0.00  0.00    +0.000 A 
ATOM      2  N   UNL     1       5.771   6.368  17.734  0.00  0.00    +0.000 NA
ATOM      3  C   UNL     1       5.026   5.677  16.858  0.00  0.00    +0.000 A 
ATOM      4  N   UNL     1       3.645   5.486  17.151  0.00  0.00    +0.000 N 
ATOM      5  C   UNL     1       5.582   5.143  15.690  0.00  0.00    +0.000 A 
ATOM      6  C   UNL     1       4.872   4.454  14.679  0.00  0.00    +0.000 A 
ATOM      7  C   UNL     1       5.549   3.962  13.575  0.00  0.00    +0.000 A 
ATOM      8  C   UNL     1       6.910   4.176  13.522  0.00  0.00    +0.000 A 
ATOM      9  N   UNL     1       7.599   4.848  14.469  0.00  0.00    +0.000 NA
ATOM     10  C   UNL     1       6.957   5.337  15.530  0.00  0.00    +0.000 A 
ATOM     11  N   UNL     1       7.685   6.011  16.402  0.00  0.00    +0.000 NA
ATOM     12  H   UNL     1       3.441   4.492  17.188  0.00  0.00    +0.000 HD
ENDROOT
BRANCH   4  13
ATOM     13  C   UNL     1       2.958   6.214  18.153  0.00  0.00    +0.000 A 
ATOM     14  C   UNL     1       2.625   7.562  17.949  0.00  0.00    +0.000 A 
ATOM     15  C   UNL     1       2.042   8.325  18.962  0.00  0.00    +0.000 A 
ATOM     16  C   UNL     1       1.772   7.734  20.192  0.00  0.00    +0.000 A 
ATOM     17  I   UNL     1       0.999   8.889  21.736  0.00  0.00    +0.000 I 
ATOM     18  C   UNL     1       2.042   6.381  20.400  0.00  0.00    +0.000 A 
ATOM     19  C   UNL     1       2.626   5.620  19.377  0.00  0.00    +0.000 A 
ENDBRANCH   4  13
BRANCH   1  21
ATOM     20  C   UNL     1       8.037   9.059  17.741  0.00  0.00    +0.000 C 
ATOM     21  S   UNL     1       8.055   7.465  18.596  0.00  0.00    +0.000 S 
ENDBRANCH   1  21
TORSDOF 2
ENDMDL
MODEL 6
REMARK VINA RESULT:      -6.9      4.673      5.876
REMARK  Name = 
REMARK  3 active torsions:
REMARK  status: ('A' for Active; 'I' for Inactive)
REMARK    1  A    between atoms: C_1  and  S_2
REMARK    2  A    between atoms: S_2  and  C_3
REMARK    3  A    between atoms: N_6  and  C_7
REMARK                            x       y       z     vdW  Elec       q    Type
REMARK                         _______ _______ _______ _____ _____    ______ ____
ROOT
ATOM      1  C   UNL     1       2.114   4.254  19.067  0.00  0.00    +0.000 A 
ATOM      2  N   UNL     1       2.011   5.583  19.075  0.00  0.00    +0.000 NA
ATOM      3  C   UNL     1       2.823   6.277  18.263  0.00  0.00    +0.000 A 
ATOM      4  N   UNL     1       2.697   7.697  18.239  0.00  0.00    +0.000 N 
ATOM      5  C   UNL     1       3.761   5.636  17.447  0.00  0.00    +0.000 A 
ATOM      6  C   UNL     1       4.697   6.280  16.605  0.00  0.00    +0.000 A 
ATOM      7  C   UNL     1       5.566   5.523  15.836  0.00  0.00    +0.000 A 
ATOM      8  C   UNL     1       5.467   4.151  15.935  0.00  0.00    +0.000 A 
ATOM      9  N   UNL     1       4.591   3.523  16.749  0.00  0.00    +0.000 NA
ATOM     10  C   UNL     1       3.759   4.240  17.503  0.00  0.00    +0.000 A 
ATOM     11  N   UNL     1       2.951   3.563  18.299  0.00  0.00    +0.000 NA
ATOM     12  H   UNL     1       2.484   8.002  17.295  0.00  0.00    +0.000 HD
ENDROOT
BRANCH   4  13
ATOM     13  C   UNL     1       1.978   8.427  19.217  0.00  0.00    +0.000 A 
ATOM     14  C   UNL     1       1.904   7.962  20.539  0.00  0.00    +0.000 A 
ATOM     15  C   UNL     1       1.116   8.610  21.491  0.00  0.00    +0.000 A 
ATOM     16  C   UNL     1       0.402   9.747  21.127  0.00  0.00    +0.000 A 
ATOM     17  I   UNL     1      -0.852  10.656  22.512  0.00  0.00    +0.000 I 
ATOM     18  C   UNL     1       0.504  10.260  19.834  0.00  0.00    +0.000 A 
ATOM     19  C   UNL     1       1.299   9.605  18.883  0.00  0.00    +0.000 A 
ENDBRANCH   4  13
BRANCH   1  21
ATOM     20  C   UNL     1       2.172   3.238  21.607  0.00  0.00    +0.000 C 
ATOM     21  S   UNL     1       1.078   3.326  20.170  0.00  0.00    +0.000 S 
ENDBRANCH   1  21
TORSDOF 2
ENDMDL
MODEL 7
REMARK VINA RESULT:      -6.7      4.984      6.213
REMARK  Name = 
REMARK  3 active torsions:
REMARK  status: ('A' for Active; 'I' for Inactive)
REMARK    1  A    between atoms: C_1  and  S_2
REMARK    2  A    between atoms: S_2  and  C_3
REMARK    3  A    between atoms: N_6  and  C_7
REMARK                            x       y       z     vdW  Elec       q    Type
REMARK                         _______ _______ _______ _____ _____    ______ ____
ROOT
ATOM      1  C   UNL     1       2.214   4.666  19.264  0.00  0.00    +0.000 A 
ATOM      2  N   UNL     1       1.981   5.965  19.080  0.00  0.00    +0.000 NA
ATOM      3  C   UNL     1       2.764   6.623  18.213  0.00  0.00    +0.000 A 
ATOM      4  N   UNL     1       2.501   8.005  17.984  0.00  0.00    +0.000 N 
ATOM      5  C   UNL     1       3.806   5.979  17.537  0.00  0.00    +0.000 A 
ATOM      6  C   UNL     1       4.720   6.598  16.652  0.00  0.00    +0.000 A 
ATOM      7  C   UNL     1       5.702   5.839  16.035  0.00  0.00    +0.000 A 
ATOM      8  C   UNL     1       5.733   4.491  16.324  0.00  0.00    +0.000 A 
ATOM      9  N   UNL     1       4.879   3.890  17.180  0.00  0.00    +0.000 NA
ATOM     10  C   UNL     1       3.939   4.612  17.789  0.00  0.00    +0.000 A 
ATOM     11  N   UNL     1       3.157   3.968  18.639  0.00  0.00    +0.000 NA
ATOM     12  H   UNL     1       2.313   8.155  16.998  0.00  0.00    +0.000 HD
ENDROOT
BRANCH   4  13
ATOM     13  C   UNL     1       1.659   8.782  18.817  0.00  0.00    +0.000 A 
ATOM     14  C   UNL     1       0.848   9.786  18.266  0.00  0.00    +0.000 A 
ATOM     15  C   UNL     1       0.090  10.631  19.079  0.00  0.00    +0.000 A 
ATOM     16  C   UNL     1       0.128  10.464  20.460  0.00  0.00    +0.000 A 
ATOM     17  I   UNL     1      -0.917  11.782  21.679  0.00  0.00    +0.000 I 
ATOM     18  C   UNL     1       0.883   9.437  21.026  0.00  0.00    +0.000 A 
ATOM     19  C   UNL     1       1.640   8.592  20.203  0.00  0.00    +0.000 A 
ENDBRANCH   4  13
BRANCH   1  21
ATOM     20  C   UNL     1       2.489   2.773  21.222  0.00  0.00    +0.000 C 
ATOM     21  S   UNL     1       1.214   3.792  20.443  0.00  0.00    +0.000 S 
ENDBRANCH   1  21
TORSDOF 2
ENDMDL
MODEL 8
REMARK VINA RESULT:      -6.7      4.195      5.201
REMARK  Name = 
REMARK  3 active torsions:
REMARK  status: ('A' for Active; 'I' for Inactive)
REMARK    1  A    between atoms: C_1  and  S_2
REMARK    2  A    between atoms: S_2  and  C_3
REMARK    3  A    between atoms: N_6  and  C_7
REMARK                            x       y       z     vdW  Elec       q    Type
REMARK                         _______ _______ _______ _____ _____    ______ ____
ROOT
ATOM      1  C   UNL     1       3.358   3.963  18.887  0.00  0.00    +0.000 A 
ATOM      2  N   UNL     1       2.993   5.237  18.755  0.00  0.00    +0.000 NA
ATOM      3  C   UNL     1       3.535   5.942  17.751  0.00  0.00    +0.000 A 
ATOM      4  N   UNL     1       3.126   7.296  17.580  0.00  0.00    +0.000 N 
ATOM      5  C   UNL     1       4.468   5.370  16.879  0.00  0.00    +0.000 A 
ATOM      6  C   UNL     1       5.138   6.044  15.831  0.00  0.00    +0.000 A 
ATOM      7  C   UNL     1       6.032   5.353  15.029  0.00  0.00    +0.000 A 
ATOM      8  C   UNL     1       6.224   4.015  15.303  0.00  0.00    +0.000 A 
ATOM      9  N   UNL     1       5.607   3.363  16.312  0.00  0.00    +0.000 NA
ATOM     10  C   UNL     1       4.754   4.020  17.097  0.00  0.00    +0.000 A 
ATOM     11  N   UNL     1       4.209   3.330  18.084  0.00  0.00    +0.000 NA
ATOM     12  H   UNL     1       2.734   7.417  16.652  0.00  0.00    +0.000 HD
ENDROOT
BRANCH   4  13
ATOM     13  C   UNL     1       2.408   8.018  18.566  0.00  0.00    +0.000 A 
ATOM     14  C   UNL     1       2.220   7.476  19.846  0.00  0.00    +0.000 A 
ATOM     15  C   UNL     1       1.430   8.122  20.797  0.00  0.00    +0.000 A 
ATOM     16  C   UNL     1       0.829   9.335  20.475  0.00  0.00    +0.000 A 
ATOM     17  I   UNL     1      -0.430  10.252  21.850  0.00  0.00    +0.000 I 
ATOM     18  C   UNL     1       1.048   9.921  19.229  0.00  0.00    +0.000 A 
ATOM     19  C   UNL     1       1.844   9.267  18.279  0.00  0.00    +0.000 A 
ENDBRANCH   4  13
BRANCH   1  21
ATOM     20  C   UNL     1       1.095   3.877  20.423  0.00  0.00    +0.000 C 
ATOM     21  S   UNL     1       2.683   3.032  20.240  0.00  0.00    +0.000 S 
ENDBRANCH   1  21
TORSDOF 2
ENDMDL
MODEL 9
REMARK VINA RESULT:      -6.6      4.990      7.019
REMARK  Name = 
REMARK  3 active torsions:
REMARK  status: ('A' for Active; 'I' for Inactive)
REMARK    1  A    between atoms: C_1  and  S_2
REMARK    2  A    between atoms: S_2  and  C_3
REMARK    3  A    between atoms: N_6  and  C_7
REMARK                            x       y       z     vdW  Elec       q    Type
REMARK                         _______ _______ _______ _____ _____    ______ ____
ROOT
ATOM      1  C   UNL     1       4.071   6.027  18.060  0.00  0.00    +0.000 A 
ATOM      2  N   UNL     1       3.290   6.841  18.767  0.00  0.00    +0.000 NA
ATOM      3  C   UNL     1       2.647   6.327  19.826  0.00  0.00    +0.000 A 
ATOM      4  N   UNL     1       1.836   7.199  20.610  0.00  0.00    +0.000 N 
ATOM      5  C   UNL     1       2.773   4.978  20.171  0.00  0.00    +0.000 A 
ATOM      6  C   UNL     1       2.093   4.330  21.229  0.00  0.00    +0.000 A 
ATOM      7  C   UNL     1       2.319   2.985  21.472  0.00  0.00    +0.000 A 
ATOM      8  C   UNL     1       3.216   2.336  20.650  0.00  0.00    +0.000 A 
ATOM      9  N   UNL     1       3.858   2.936  19.625  0.00  0.00    +0.000 NA
ATOM     10  C   UNL     1       3.640   4.226  19.373  0.00  0.00    +0.000 A 
ATOM     11  N   UNL     1       4.276   4.742  18.336  0.00  0.00    +0.000 NA
ATOM     12  H   UNL     1       2.166   7.197  21.569  0.00  0.00    +0.000 HD
ENDROOT
BRANCH   4  13
ATOM     13  C   UNL     1       1.444   8.490  20.177  0.00  0.00    +0.000 A 
ATOM     14  C   UNL     1       0.969   9.434  21.101  0.00  0.00    +0.000 A 
ATOM     15  C   UNL     1       0.481  10.673  20.682  0.00  0.00    +0.000 A 
ATOM     16  C   UNL     1       0.481  10.984  19.327  0.00  0.00    +0.000 A 
ATOM     17  I   UNL     1      -0.338  12.784  18.690  0.00  0.00    +0.000 I 
ATOM     18  C   UNL     1       1.000  10.084  18.396  0.00  0.00    +0.000 A 
ATOM     19  C   UNL     1       1.490   8.842  18.823  0.00  0.00    +0.000 A 
ENDBRANCH   4  13
BRANCH   1  21
ATOM     20  C   UNL     1       6.564   6.858  17.294  0.00  0.00    +0.000 C 
ATOM     21  S   UNL     1       4.891   6.683  16.628  0.00  0.00    +0.000 S 
ENDBRANCH   1  21
TORSDOF 2
ENDMDL
