MODEL 1
REMARK VINA RESULT:      -6.8      0.000      0.000
REMARK  Name = 
REMARK  3 active torsions:
REMARK  status: ('A' for Active; 'I' for Inactive)
REMARK    1  A    between atoms: C_1  and  O_2
REMARK    2  A    between atoms: O_2  and  C_3
REMARK    3  A    between atoms: C_4  and  O_5
REMARK                            x       y       z     vdW  Elec       q    Type
REMARK                         _______ _______ _______ _____ _____    ______ ____
ROOT
ATOM      1  C   UNL     1       4.086   3.908  18.871  0.00  0.00    +0.000 A 
ATOM      2  C   UNL     1       3.392   3.351  17.781  0.00  0.00    +0.000 A 
ATOM      3  C   UNL     1       3.880   3.421  16.487  0.00  0.00    +0.000 A 
ATOM      4  C   UNL     1       5.081   4.089  16.267  0.00  0.00    +0.000 A 
ATOM      5  C   UNL     1       5.802   4.642  17.353  0.00  0.00    +0.000 A 
ATOM      6  C   UNL     1       7.012   5.331  17.113  0.00  0.00    +0.000 A 
ATOM      7  C   UNL     1       7.726   5.874  18.169  0.00  0.00    +0.000 A 
ATOM      8  C   UNL     1       7.224   5.687  19.436  0.00  0.00    +0.000 A 
ATOM      9  N   UNL     1       6.069   5.041  19.701  0.00  0.00    +0.000 NA
ATOM     10  C   UNL     1       5.333   4.535  18.681  0.00  0.00    +0.000 A 
ATOM     11  N   UNL     1       7.445   5.501  15.783  0.00  0.00    +0.000 N 
ATOM     12  C   UNL     1       6.749   4.936  14.744  0.00  0.00    +0.000 C 
ATOM     13  C   UNL     1       5.613   4.242  14.899  0.00  0.00    +0.000 C 
ATOM     14  H   UNL     1       8.347   5.919  15.601  0.00  0.00    +0.000 HD
ENDROOT
BRANCH   1  16
ATOM     15  C   UNL     1       2.623   4.878  20.479  0.00  0.00    +0.000 C 
ATOM     16  O   UNL     1       3.413   3.764  20.069  0.00  0.00    +0.000 OA
ENDBRANCH   1  16
BRANCH   2  17
ATOM     17  O   UNL     1       2.175   2.752  17.972  0.00  0.00    +0.000 OA
ATOM     18  H   UNL     1       2.106   2.616  18.938  0.00  0.00    +0.000 HD
ENDBRANCH   2  17
TORSDOF 2
ENDMDL
MODEL 2
REMARK VINA RESULT:      -6.5      2.258      2.727
REMARK  Name = 
REMARK  3 active torsions:
REMARK  status: ('A' for Active; 'I' for Inactive)
REMARK    1  A    between atoms: C_1  and  O_2
REMARK    2  A    between atoms: O_2  and  C_3
REMARK    3  A    between atoms: C_4  and  O_5
REMARK                            x       y       z     vdW  Elec       q    Type
REMARK                         _______ _______ _______ _____ _____    ______ ____
ROOT
ATOM      1  C   UNL     1       2.125   3.752  18.935  0.00  0.00    +0.000 A 
ATOM      2  C   UNL     1       2.715   2.627  18.330  0.00  0.00    +0.000 A 
ATOM      3  C   UNL     1       3.730   2.743  17.396  0.00  0.00    +0.000 A 
ATOM      4  C   UNL     1       4.152   4.017  17.031  0.00  0.00    +0.000 A 
ATOM      5  C   UNL     1       3.582   5.162  17.640  0.00  0.00    +0.000 A 
ATOM      6  C   UNL     1       4.009   6.451  17.249  0.00  0.00    +0.000 A 
ATOM      7  C   UNL     1       3.460   7.577  17.839  0.00  0.00    +0.000 A 
ATOM      8  C   UNL     1       2.520   7.380  18.824  0.00  0.00    +0.000 A 
ATOM      9  N   UNL     1       2.083   6.166  19.218  0.00  0.00    +0.000 NA
ATOM     10  C   UNL     1       2.578   5.050  18.627  0.00  0.00    +0.000 A 
ATOM     11  N   UNL     1       4.959   6.567  16.213  0.00  0.00    +0.000 N 
ATOM     12  C   UNL     1       5.521   5.448  15.652  0.00  0.00    +0.000 C 
ATOM     13  C   UNL     1       5.189   4.195  15.996  0.00  0.00    +0.000 C 
ATOM     14  H   UNL     1       5.333   7.477  15.979  0.00  0.00    +0.000 HD
ENDROOT
BRANCH   1  16
ATOM     15  C   UNL     1       1.483   3.282  21.178  0.00  0.00    +0.000 C 
ATOM     16  O   UNL     1       1.108   3.423  19.810  0.00  0.00    +0.000 OA
ENDBRANCH   1  16
BRANCH   2  17
ATOM     17  O   UNL     1       2.262   1.368  18.627  0.00  0.00    +0.000 OA
ATOM     18  H   UNL     1       1.490   1.505  19.212  0.00  0.00    +0.000 HD
ENDBRANCH   2  17
TORSDOF 2
ENDMDL
MODEL 3
REMARK VINA RESULT:      -6.4      3.072      4.587
REMARK  Name = 
REMARK  3 active torsions:
REMARK  status: ('A' for Active; 'I' for Inactive)
REMARK    1  A    between atoms: C_1  and  O_2
REMARK    2  A    between atoms: O_2  and  C_3
REMARK    3  A    between atoms: C_4  and  O_5
REMARK                            x       y       z     vdW  Elec       q    Type
REMARK                         _______ _______ _______ _____ _____    ______ ____
ROOT
ATOM      1  C   UNL     1       5.782   6.092  16.669  0.00  0.00    +0.000 A 
ATOM      2  C   UNL     1       6.213   4.801  16.313  0.00  0.00    +0.000 A 
ATOM      3  C   UNL     1       5.419   3.683  16.503  0.00  0.00    +0.000 A 
ATOM      4  C   UNL     1       4.169   3.851  17.090  0.00  0.00    +0.000 A 
ATOM      5  C   UNL     1       3.710   5.145  17.440  0.00  0.00    +0.000 A 
ATOM      6  C   UNL     1       2.444   5.299  18.049  0.00  0.00    +0.000 A 
ATOM      7  C   UNL     1       1.985   6.559  18.394  0.00  0.00    +0.000 A 
ATOM      8  C   UNL     1       2.793   7.631  18.093  0.00  0.00    +0.000 A 
ATOM      9  N   UNL     1       4.009   7.521  17.519  0.00  0.00    +0.000 NA
ATOM     10  C   UNL     1       4.496   6.294  17.208  0.00  0.00    +0.000 A 
ATOM     11  N   UNL     1       1.689   4.146  18.348  0.00  0.00    +0.000 N 
ATOM     12  C   UNL     1       2.136   2.903  17.979  0.00  0.00    +0.000 C 
ATOM     13  C   UNL     1       3.309   2.684  17.368  0.00  0.00    +0.000 C 
ATOM     14  H   UNL     1       0.749   4.245  18.709  0.00  0.00    +0.000 HD
ENDROOT
BRANCH   1  16
ATOM     15  C   UNL     1       7.521   7.452  17.557  0.00  0.00    +0.000 C 
ATOM     16  O   UNL     1       6.735   7.064  16.433  0.00  0.00    +0.000 OA
ENDBRANCH   1  16
BRANCH   2  17
ATOM     17  O   UNL     1       7.470   4.611  15.799  0.00  0.00    +0.000 OA
ATOM     18  H   UNL     1       7.343   4.548  14.831  0.00  0.00    +0.000 HD
ENDBRANCH   2  17
TORSDOF 2
ENDMDL
MODEL 4
REMARK VINA RESULT:      -6.2      2.825      5.112
REMARK  Name = 
REMARK  3 active torsions:
REMARK  status: ('A' for Active; 'I' for Inactive)
REMARK    1  A    between atoms: C_1  and  O_2
REMARK    2  A    between atoms: O_2  and  C_3
REMARK    3  A    between atoms: C_4  and  O_5
REMARK                            x       y       z     vdW  Elec       q    Type
REMARK                         _______ _______ _______ _____ _____    ______ ____
ROOT
ATOM      1  C   UNL     1       4.635   4.723  16.529  0.00  0.00    +0.000 A 
ATOM      2  C   UNL     1       4.626   6.125  16.642  0.00  0.00    +0.000 A 
ATOM      3  C   UNL     1       3.955   6.775  17.664  0.00  0.00    +0.000 A 
ATOM      4  C   UNL     1       3.250   6.008  18.586  0.00  0.00    +0.000 A 
ATOM      5  C   UNL     1       3.261   4.594  18.499  0.00  0.00    +0.000 A 
ATOM      6  C   UNL     1       2.528   3.828  19.433  0.00  0.00    +0.000 A 
ATOM      7  C   UNL     1       2.533   2.445  19.358  0.00  0.00    +0.000 A 
ATOM      8  C   UNL     1       3.295   1.868  18.369  0.00  0.00    +0.000 A 
ATOM      9  N   UNL     1       4.001   2.567  17.456  0.00  0.00    +0.000 NA
ATOM     10  C   UNL     1       3.980   3.923  17.485  0.00  0.00    +0.000 A 
ATOM     11  N   UNL     1       1.751   4.497  20.401  0.00  0.00    +0.000 N 
ATOM     12  C   UNL     1       1.773   5.867  20.489  0.00  0.00    +0.000 C 
ATOM     13  C   UNL     1       2.471   6.656  19.659  0.00  0.00    +0.000 C 
ATOM     14  H   UNL     1       1.288   3.965  21.125  0.00  0.00    +0.000 HD
ENDROOT
BRANCH   1  16
ATOM     15  C   UNL     1       6.714   4.002  15.621  0.00  0.00    +0.000 C 
ATOM     16  O   UNL     1       5.329   4.275  15.421  0.00  0.00    +0.000 OA
ENDBRANCH   1  16
BRANCH   2  17
ATOM     17  O   UNL     1       5.257   6.897  15.701  0.00  0.00    +0.000 OA
ATOM     18  H   UNL     1       6.135   6.483  15.578  0.00  0.00    +0.000 HD
ENDBRANCH   2  17
TORSDOF 2
ENDMDL
MODEL 5
REMARK VINA RESULT:      -6.2      2.665      4.253
REMARK  Name = 
REMARK  3 active torsions:
REMARK  status: ('A' for Active; 'I' for Inactive)
REMARK    1  A    between atoms: C_1  and  O_2
REMARK    2  A    between atoms: O_2  and  C_3
REMARK    3  A    between atoms: C_4  and  O_5
REMARK                            x       y       z     vdW  Elec       q    Type
REMARK                         _______ _______ _______ _____ _____    ______ ____
ROOT
ATOM      1  C   UNL     1       2.892   6.705  18.956  0.00  0.00    +0.000 A 
ATOM      2  C   UNL     1       2.201   6.187  20.066  0.00  0.00    +0.000 A 
ATOM      3  C   UNL     1       2.179   4.832  20.350  0.00  0.00    +0.000 A 
ATOM      4  C   UNL     1       2.841   3.963  19.489  0.00  0.00    +0.000 A 
ATOM      5  C   UNL     1       3.557   4.467  18.374  0.00  0.00    +0.000 A 
ATOM      6  C   UNL     1       4.212   3.573  17.500  0.00  0.00    +0.000 A 
ATOM      7  C   UNL     1       4.916   4.054  16.408  0.00  0.00    +0.000 A 
ATOM      8  C   UNL     1       4.968   5.419  16.240  0.00  0.00    +0.000 A 
ATOM      9  N   UNL     1       4.348   6.302  17.051  0.00  0.00    +0.000 NA
ATOM     10  C   UNL     1       3.621   5.852  18.104  0.00  0.00    +0.000 A 
ATOM     11  N   UNL     1       4.090   2.186  17.726  0.00  0.00    +0.000 N 
ATOM     12  C   UNL     1       3.415   1.716  18.825  0.00  0.00    +0.000 C 
ATOM     13  C   UNL     1       2.798   2.505  19.716  0.00  0.00    +0.000 C 
ATOM     14  H   UNL     1       4.618   1.539  17.158  0.00  0.00    +0.000 HD
ENDROOT
BRANCH   1  16
ATOM     15  C   UNL     1       1.824   8.521  17.848  0.00  0.00    +0.000 C 
ATOM     16  O   UNL     1       2.759   8.074  18.828  0.00  0.00    +0.000 OA
ENDBRANCH   1  16
BRANCH   2  17
ATOM     17  O   UNL     1       1.485   7.022  20.883  0.00  0.00    +0.000 OA
ATOM     18  H   UNL     1       1.272   6.486  21.673  0.00  0.00    +0.000 HD
ENDBRANCH   2  17
TORSDOF 2
ENDMDL
MODEL 6
REMARK VINA RESULT:      -6.1      2.752      4.958
REMARK  Name = 
REMARK  3 active torsions:
REMARK  status: ('A' for Active; 'I' for Inactive)
REMARK    1  A    between atoms: C_1  and  O_2
REMARK    2  A    between atoms: O_2  and  C_3
REMARK    3  A    between atoms: C_4  and  O_5
REMARK                            x       y       z     vdW  Elec       q    Type
REMARK                         _______ _______ _______ _____ _____    ______ ____
ROOT
ATOM      1  C   UNL     1       4.864   5.031  17.063  0.00  0.00    +0.000 A 
ATOM      2  C   UNL     1       4.624   6.369  16.703  0.00  0.00    +0.000 A 
ATOM      3  C   UNL     1       3.818   7.200  17.463  0.00  0.00    +0.000 A 
ATOM      4  C   UNL     1       3.212   6.677  18.600  0.00  0.00    +0.000 A 
ATOM      5  C   UNL     1       3.454   5.336  18.989  0.00  0.00    +0.000 A 
ATOM      6  C   UNL     1       2.820   4.813  20.137  0.00  0.00    +0.000 A 
ATOM      7  C   UNL     1       3.052   3.504  20.527  0.00  0.00    +0.000 A 
ATOM      8  C   UNL     1       3.934   2.766  19.773  0.00  0.00    +0.000 A 
ATOM      9  N   UNL     1       4.552   3.230  18.666  0.00  0.00    +0.000 NA
ATOM     10  C   UNL     1       4.311   4.496  18.243  0.00  0.00    +0.000 A 
ATOM     11  N   UNL     1       1.909   5.627  20.842  0.00  0.00    +0.000 N 
ATOM     12  C   UNL     1       1.706   6.932  20.468  0.00  0.00    +0.000 C 
ATOM     13  C   UNL     1       2.298   7.506  19.411  0.00  0.00    +0.000 C 
ATOM     14  H   UNL     1       1.511   5.296  21.710  0.00  0.00    +0.000 HD
ENDROOT
BRANCH   1  16
ATOM     15  C   UNL     1       7.064   4.393  16.416  0.00  0.00    +0.000 C 
ATOM     16  O   UNL     1       5.662   4.362  16.155  0.00  0.00    +0.000 OA
ENDBRANCH   1  16
BRANCH   2  17
ATOM     17  O   UNL     1       5.157   6.879  15.548  0.00  0.00    +0.000 OA
ATOM     18  H   UNL     1       4.389   7.058  14.969  0.00  0.00    +0.000 HD
ENDBRANCH   2  17
TORSDOF 2
ENDMDL
MODEL 7
REMARK VINA RESULT:      -6.1      2.796      4.934
REMARK  Name = 
REMARK  3 active torsions:
REMARK  status: ('A' for Active; 'I' for Inactive)
REMARK    1  A    between atoms: C_1  and  O_2
REMARK    2  A    between atoms: O_2  and  C_3
REMARK    3  A    between atoms: C_4  and  O_5
REMARK                            x       y       z     vdW  Elec       q    Type
REMARK                         _______ _______ _______ _____ _____    ______ ____
ROOT
ATOM      1  C   UNL     1       4.491   5.041  17.636  0.00  0.00    +0.000 A 
ATOM      2  C   UNL     1       4.595   3.705  17.207  0.00  0.00    +0.000 A 
ATOM      3  C   UNL     1       3.741   2.718  17.668  0.00  0.00    +0.000 A 
ATOM      4  C   UNL     1       2.772   3.064  18.604  0.00  0.00    +0.000 A 
ATOM      5  C   UNL     1       2.641   4.407  19.036  0.00  0.00    +0.000 A 
ATOM      6  C   UNL     1       1.662   4.741  19.999  0.00  0.00    +0.000 A 
ATOM      7  C   UNL     1       1.524   6.052  20.427  0.00  0.00    +0.000 A 
ATOM      8  C   UNL     1       2.350   6.993  19.858  0.00  0.00    +0.000 A 
ATOM      9  N   UNL     1       3.300   6.709  18.943  0.00  0.00    +0.000 NA
ATOM     10  C   UNL     1       3.479   5.427  18.537  0.00  0.00    +0.000 A 
ATOM     11  N   UNL     1       0.873   3.713  20.552  0.00  0.00    +0.000 N 
ATOM     12  C   UNL     1       0.994   2.421  20.103  0.00  0.00    +0.000 C 
ATOM     13  C   UNL     1       1.876   2.036  19.170  0.00  0.00    +0.000 C 
ATOM     14  H   UNL     1       0.116   3.947  21.180  0.00  0.00    +0.000 HD
ENDROOT
BRANCH   1  16
ATOM     15  C   UNL     1       5.075   6.585  15.922  0.00  0.00    +0.000 C 
ATOM     16  O   UNL     1       5.459   5.861  17.088  0.00  0.00    +0.000 OA
ENDBRANCH   1  16
BRANCH   2  17
ATOM     17  O   UNL     1       5.589   3.335  16.339  0.00  0.00    +0.000 OA
ATOM     18  H   UNL     1       5.607   4.036  15.657  0.00  0.00    +0.000 HD
ENDBRANCH   2  17
TORSDOF 2
ENDMDL
MODEL 8
REMARK VINA RESULT:      -5.9      2.965      4.950
REMARK  Name = 
REMARK  3 active torsions:
REMARK  status: ('A' for Active; 'I' for Inactive)
REMARK    1  A    between atoms: C_1  and  O_2
REMARK    2  A    between atoms: O_2  and  C_3
REMARK    3  A    between atoms: C_4  and  O_5
REMARK                            x       y       z     vdW  Elec       q    Type
REMARK                         _______ _______ _______ _____ _____    ______ ____
ROOT
ATOM      1  C   UNL     1       2.742   6.657  19.062  0.00  0.00    +0.000 A 
ATOM      2  C   UNL     1       1.938   6.507  20.206  0.00  0.00    +0.000 A 
ATOM      3  C   UNL     1       1.524   5.265  20.655  0.00  0.00    +0.000 A 
ATOM      4  C   UNL     1       1.899   4.139  19.928  0.00  0.00    +0.000 A 
ATOM      5  C   UNL     1       2.722   4.268  18.783  0.00  0.00    +0.000 A 
ATOM      6  C   UNL     1       3.083   3.118  18.046  0.00  0.00    +0.000 A 
ATOM      7  C   UNL     1       3.889   3.232  16.925  0.00  0.00    +0.000 A 
ATOM      8  C   UNL     1       4.335   4.491  16.592  0.00  0.00    +0.000 A 
ATOM      9  N   UNL     1       4.005   5.611  17.268  0.00  0.00    +0.000 NA
ATOM     10  C   UNL     1       3.185   5.528  18.345  0.00  0.00    +0.000 A 
ATOM     11  N   UNL     1       2.563   1.868  18.438  0.00  0.00    +0.000 N 
ATOM     12  C   UNL     1       1.788   1.756  19.565  0.00  0.00    +0.000 C 
ATOM     13  C   UNL     1       1.434   2.798  20.332  0.00  0.00    +0.000 C 
ATOM     14  H   UNL     1       2.876   1.028  17.971  0.00  0.00    +0.000 HD
ENDROOT
BRANCH   1  16
ATOM     15  C   UNL     1       2.191   8.572  17.760  0.00  0.00    +0.000 C 
ATOM     16  O   UNL     1       3.013   7.979  18.762  0.00  0.00    +0.000 OA
ENDBRANCH   1  16
BRANCH   2  17
ATOM     17  O   UNL     1       1.502   7.611  20.892  0.00  0.00    +0.000 OA
ATOM     18  H   UNL     1       0.772   7.289  21.458  0.00  0.00    +0.000 HD
ENDBRANCH   2  17
TORSDOF 2
ENDMDL
MODEL 9
REMARK VINA RESULT:      -5.9      2.421      4.484
REMARK  Name = 
REMARK  3 active torsions:
REMARK  status: ('A' for Active; 'I' for Inactive)
REMARK    1  A    between atoms: C_1  and  O_2
REMARK    2  A    between atoms: O_2  and  C_3
REMARK    3  A    between atoms: C_4  and  O_5
REMARK                            x       y       z     vdW  Elec       q    Type
REMARK                         _______ _______ _______ _____ _____    ______ ____
ROOT
ATOM      1  C   UNL     1       3.534   3.411  19.759  0.00  0.00    +0.000 A 
ATOM      2  C   UNL     1       2.680   3.550  20.868  0.00  0.00    +0.000 A 
ATOM      3  C   UNL     1       1.995   4.725  21.124  0.00  0.00    +0.000 A 
ATOM      4  C   UNL     1       2.184   5.803  20.265  0.00  0.00    +0.000 A 
ATOM      5  C   UNL     1       3.026   5.678  19.133  0.00  0.00    +0.000 A 
ATOM      6  C   UNL     1       3.222   6.785  18.278  0.00  0.00    +0.000 A 
ATOM      7  C   UNL     1       4.042   6.672  17.167  0.00  0.00    +0.000 A 
ATOM      8  C   UNL     1       4.619   5.447  16.928  0.00  0.00    +0.000 A 
ATOM      9  N   UNL     1       4.461   4.370  17.726  0.00  0.00    +0.000 NA
ATOM     10  C   UNL     1       3.694   4.468  18.841  0.00  0.00    +0.000 A 
ATOM     11  N   UNL     1       2.614   8.014  18.607  0.00  0.00    +0.000 N 
ATOM     12  C   UNL     1       1.780   8.112  19.692  0.00  0.00    +0.000 C 
ATOM     13  C   UNL     1       1.521   7.096  20.527  0.00  0.00    +0.000 C 
ATOM     14  H   UNL     1       2.678   8.791  17.963  0.00  0.00    +0.000 HD
ENDROOT
BRANCH   1  16
ATOM     15  C   UNL     1       3.683   1.289  18.690  0.00  0.00    +0.000 C 
ATOM     16  O   UNL     1       4.151   2.176  19.704  0.00  0.00    +0.000 OA
ENDBRANCH   1  16
BRANCH   2  17
ATOM     17  O   UNL     1       2.539   2.521  21.762  0.00  0.00    +0.000 OA
ATOM     18  H   UNL     1       1.744   2.745  22.286  0.00  0.00    +0.000 HD
ENDBRANCH   2  17
TORSDOF 2
ENDMDL
