MODEL 1
REMARK VINA RESULT:      -8.2      0.000      0.000
REMARK  Name = 
REMARK  7 active torsions:
REMARK  status: ('A' for Active; 'I' for Inactive)
REMARK    1  A    between atoms: C_1  and  C_2
REMARK    2  A    between atoms: C_2  and  C_3
REMARK    3  A    between atoms: N_8  and  C_9
REMARK    4  A    between atoms: C_12  and  N_13
REMARK    5  A    between atoms: C_14  and  C_16
REMARK    6  A    between atoms: C_19  and  N_20
REMARK    7  A    between atoms: C_25  and  N_26
REMARK                            x       y       z     vdW  Elec       q    Type
REMARK                         _______ _______ _______ _____ _____    ______ ____
ROOT
ATOM      1  N   UNL     1       1.503   8.994  18.811  0.00  0.00    +0.000 N 
ATOM      2  C   UNL     1       1.931   7.852  19.476  0.00  0.00    +0.000 C 
ATOM      3  O   UNL     1       1.535   7.449  20.567  0.00  0.00    +0.000 OA
ATOM      4  H   UNL     1       1.861   9.183  17.885  0.00  0.00    +0.000 HD
ENDROOT
BRANCH   1   8
ATOM      5  C   UNL     1      -1.415  11.766  20.306  0.00  0.00    +0.000 A 
ATOM      6  C   UNL     1      -1.600  11.094  19.098  0.00  0.00    +0.000 A 
ATOM      7  C   UNL     1      -0.660  10.179  18.611  0.00  0.00    +0.000 A 
ATOM      8  C   UNL     1       0.517   9.895  19.302  0.00  0.00    +0.000 A 
ATOM      9  C   UNL     1       0.714  10.545  20.524  0.00  0.00    +0.000 A 
ATOM     10  C   UNL     1      -0.242  11.459  21.010  0.00  0.00    +0.000 A 
BRANCH   5  16
ATOM     11  C   UNL     1      -5.851  13.943  22.603  0.00  0.00    +0.000 C 
ATOM     12  O   UNL     1      -6.891  14.047  21.952  0.00  0.00    +0.000 OA
ATOM     13  N   UNL     1      -4.787  13.170  22.171  0.00  0.00    +0.000 N 
ATOM     14  C   UNL     1      -4.827  12.564  20.836  0.00  0.00    +0.000 C 
ATOM     15  C   UNL     1      -3.586  12.965  20.022  0.00  0.00    +0.000 C 
ATOM     16  N   UNL     1      -2.352  12.667  20.769  0.00  0.00    +0.000 N 
ATOM     17  C   UNL     1      -2.286  13.196  22.146  0.00  0.00    +0.000 C 
ATOM     18  C   UNL     1      -3.571  12.851  22.932  0.00  0.00    +0.000 C 
BRANCH  11  20
ATOM     19  C   UNL     1      -6.236  16.106  23.856  0.00  0.00    +0.000 C 
ATOM     20  C   UNL     1      -5.655  14.701  23.906  0.00  0.00    +0.000 C 
ENDBRANCH  11  20
ENDBRANCH   5  16
ENDBRANCH   1   8
BRANCH   2  21
ATOM     21  C   UNL     1       2.959   6.995  18.835  0.00  0.00    +0.000 A 
ATOM     22  C   UNL     1       3.569   7.496  17.681  0.00  0.00    +0.000 A 
ATOM     23  C   UNL     1       4.441   6.707  16.926  0.00  0.00    +0.000 A 
ATOM     24  C   UNL     1       4.749   5.376  17.259  0.00  0.00    +0.000 A 
ATOM     25  C   UNL     1       4.112   4.900  18.428  0.00  0.00    +0.000 A 
ATOM     26  C   UNL     1       3.239   5.691  19.223  0.00  0.00    +0.000 A 
BRANCH  24  27
ATOM     27  N   UNL     1       5.605   4.708  16.410  0.00  0.00    +0.000 N 
ATOM     28  C   UNL     1       7.061   4.775  16.339  0.00  0.00    +0.000 C 
ATOM     29  C   UNL     1       7.330   4.843  14.842  0.00  0.00    +0.000 C 
ATOM     30  C   UNL     1       6.263   3.930  14.257  0.00  0.00    +0.000 C 
ATOM     31  C   UNL     1       5.060   4.108  15.183  0.00  0.00    +0.000 C 
ENDBRANCH  24  27
BRANCH  25  32
ATOM     32  N   UNL     1       4.346   3.562  18.941  0.00  0.00    +0.000 N 
ATOM     33  O   UNL     1       5.377   3.367  19.604  0.00  0.00    +0.000 OA
ATOM     34  O   UNL     1       3.462   2.723  18.744  0.00  0.00    +0.000 OA
ENDBRANCH  25  32
ENDBRANCH   2  21
TORSDOF 6
ENDMDL
MODEL 2
REMARK VINA RESULT:      -8.1      0.791      1.185
REMARK  Name = 
REMARK  7 active torsions:
REMARK  status: ('A' for Active; 'I' for Inactive)
REMARK    1  A    between atoms: C_1  and  C_2
REMARK    2  A    between atoms: C_2  and  C_3
REMARK    3  A    between atoms: N_8  and  C_9
REMARK    4  A    between atoms: C_12  and  N_13
REMARK    5  A    between atoms: C_14  and  C_16
REMARK    6  A    between atoms: C_19  and  N_20
REMARK    7  A    between atoms: C_25  and  N_26
REMARK                            x       y       z     vdW  Elec       q    Type
REMARK                         _______ _______ _______ _____ _____    ______ ____
ROOT
ATOM      1  N   UNL     1       1.182   9.130  18.461  0.00  0.00    +0.000 N 
ATOM      2  C   UNL     1       1.748   8.159  19.276  0.00  0.00    +0.000 C 
ATOM      3  O   UNL     1       1.442   7.911  20.439  0.00  0.00    +0.000 OA
ATOM      4  H   UNL     1       1.479   9.194  17.496  0.00  0.00    +0.000 HD
ENDROOT
BRANCH   1   8
ATOM      5  C   UNL     1      -2.031  11.720  19.645  0.00  0.00    +0.000 A 
ATOM      6  C   UNL     1      -0.816  11.706  20.330  0.00  0.00    +0.000 A 
ATOM      7  C   UNL     1       0.240  10.875  19.942  0.00  0.00    +0.000 A 
ATOM      8  C   UNL     1       0.134  10.009  18.855  0.00  0.00    +0.000 A 
ATOM      9  C   UNL     1      -1.069  10.020  18.143  0.00  0.00    +0.000 A 
ATOM     10  C   UNL     1      -2.125  10.867  18.538  0.00  0.00    +0.000 A 
BRANCH   5  16
ATOM     11  C   UNL     1      -6.680  13.568  21.807  0.00  0.00    +0.000 C 
ATOM     12  O   UNL     1      -7.724  13.507  21.158  0.00  0.00    +0.000 OA
ATOM     13  N   UNL     1      -5.538  12.885  21.426  0.00  0.00    +0.000 N 
ATOM     14  C   UNL     1      -5.511  12.177  20.142  0.00  0.00    +0.000 C 
ATOM     15  C   UNL     1      -4.321  12.649  19.288  0.00  0.00    +0.000 C 
ATOM     16  N   UNL     1      -3.062  12.546  20.045  0.00  0.00    +0.000 N 
ATOM     17  C   UNL     1      -3.054  13.184  21.377  0.00  0.00    +0.000 C 
ATOM     18  C   UNL     1      -4.293  12.761  22.199  0.00  0.00    +0.000 C 
BRANCH  11  20
ATOM     19  C   UNL     1      -7.451  13.955  24.184  0.00  0.00    +0.000 C 
ATOM     20  C   UNL     1      -6.569  14.441  23.046  0.00  0.00    +0.000 C 
ENDBRANCH  11  20
ENDBRANCH   5  16
ENDBRANCH   1   8
BRANCH   2  21
ATOM     21  C   UNL     1       2.828   7.303  18.723  0.00  0.00    +0.000 A 
ATOM     22  C   UNL     1       3.408   7.716  17.520  0.00  0.00    +0.000 A 
ATOM     23  C   UNL     1       4.328   6.907  16.848  0.00  0.00    +0.000 A 
ATOM     24  C   UNL     1       4.715   5.639  17.317  0.00  0.00    +0.000 A 
ATOM     25  C   UNL     1       4.105   5.251  18.531  0.00  0.00    +0.000 A 
ATOM     26  C   UNL     1       3.184   6.066  19.243  0.00  0.00    +0.000 A 
BRANCH  24  27
ATOM     27  N   UNL     1       5.611   4.939  16.538  0.00  0.00    +0.000 N 
ATOM     28  C   UNL     1       7.056   5.110  16.427  0.00  0.00    +0.000 C 
ATOM     29  C   UNL     1       7.300   5.010  14.927  0.00  0.00    +0.000 C 
ATOM     30  C   UNL     1       6.302   3.951  14.484  0.00  0.00    +0.000 C 
ATOM     31  C   UNL     1       5.101   4.149  15.408  0.00  0.00    +0.000 C 
ENDBRANCH  24  27
BRANCH  25  32
ATOM     32  N   UNL     1       4.419   3.990  19.181  0.00  0.00    +0.000 N 
ATOM     33  O   UNL     1       5.581   3.816  19.579  0.00  0.00    +0.000 OA
ATOM     34  O   UNL     1       3.484   3.204  19.359  0.00  0.00    +0.000 OA
ENDBRANCH  25  32
ENDBRANCH   2  21
TORSDOF 6
ENDMDL
MODEL 3
REMARK VINA RESULT:      -8.1      0.829      1.353
REMARK  Name = 
REMARK  7 active torsions:
REMARK  status: ('A' for Active; 'I' for Inactive)
REMARK    1  A    between atoms: C_1  and  C_2
REMARK    2  A    between atoms: C_2  and  C_3
REMARK    3  A    between atoms: N_8  and  C_9
REMARK    4  A    between atoms: C_12  and  N_13
REMARK    5  A    between atoms: C_14  and  C_16
REMARK    6  A    between atoms: C_19  and  N_20
REMARK    7  A    between atoms: C_25  and  N_26
REMARK                            x       y       z     vdW  Elec       q    Type
REMARK                         _______ _______ _______ _____ _____    ______ ____
ROOT
ATOM      1  N   UNL     1       1.375   9.244  18.801  0.00  0.00    +0.000 N 
ATOM      2  C   UNL     1       1.783   8.141  19.540  0.00  0.00    +0.000 C 
ATOM      3  O   UNL     1       1.381   7.819  20.656  0.00  0.00    +0.000 OA
ATOM      4  H   UNL     1       1.735   9.365  17.864  0.00  0.00    +0.000 HD
ENDROOT
BRANCH   1   8
ATOM      5  C   UNL     1      -1.605  12.053  20.090  0.00  0.00    +0.000 A 
ATOM      6  C   UNL     1      -0.398  11.907  20.773  0.00  0.00    +0.000 A 
ATOM      7  C   UNL     1       0.584  11.004  20.351  0.00  0.00    +0.000 A 
ATOM      8  C   UNL     1       0.405  10.193  19.231  0.00  0.00    +0.000 A 
ATOM      9  C   UNL     1      -0.791  10.336  18.522  0.00  0.00    +0.000 A 
ATOM     10  C   UNL     1      -1.770  11.255  18.950  0.00  0.00    +0.000 A 
BRANCH   5  16
ATOM     11  C   UNL     1      -5.016  14.907  23.238  0.00  0.00    +0.000 C 
ATOM     12  O   UNL     1      -6.123  14.446  23.520  0.00  0.00    +0.000 OA
ATOM     13  N   UNL     1      -4.019  14.132  22.674  0.00  0.00    +0.000 N 
ATOM     14  C   UNL     1      -4.316  12.756  22.263  0.00  0.00    +0.000 C 
ATOM     15  C   UNL     1      -3.953  12.542  20.784  0.00  0.00    +0.000 C 
ATOM     16  N   UNL     1      -2.562  12.948  20.523  0.00  0.00    +0.000 N 
ATOM     17  C   UNL     1      -2.188  14.303  20.977  0.00  0.00    +0.000 C 
ATOM     18  C   UNL     1      -2.624  14.533  22.442  0.00  0.00    +0.000 C 
BRANCH  11  20
ATOM     19  C   UNL     1      -4.519  16.730  24.920  0.00  0.00    +0.000 C 
ATOM     20  C   UNL     1      -4.696  16.378  23.451  0.00  0.00    +0.000 C 
ENDBRANCH  11  20
ENDBRANCH   5  16
ENDBRANCH   1   8
BRANCH   2  21
ATOM     21  C   UNL     1       2.795   7.225  18.957  0.00  0.00    +0.000 A 
ATOM     22  C   UNL     1       3.455   7.664  17.805  0.00  0.00    +0.000 A 
ATOM     23  C   UNL     1       4.317   6.818  17.102  0.00  0.00    +0.000 A 
ATOM     24  C   UNL     1       4.565   5.489  17.486  0.00  0.00    +0.000 A 
ATOM     25  C   UNL     1       3.878   5.077  18.651  0.00  0.00    +0.000 A 
ATOM     26  C   UNL     1       3.014   5.926  19.395  0.00  0.00    +0.000 A 
BRANCH  24  27
ATOM     27  N   UNL     1       5.418   4.762  16.685  0.00  0.00    +0.000 N 
ATOM     28  C   UNL     1       6.877   4.735  16.688  0.00  0.00    +0.000 C 
ATOM     29  C   UNL     1       7.224   4.775  15.205  0.00  0.00    +0.000 C 
ATOM     30  C   UNL     1       6.132   3.928  14.571  0.00  0.00    +0.000 C 
ATOM     31  C   UNL     1       4.898   4.189  15.435  0.00  0.00    +0.000 C 
ENDBRANCH  24  27
BRANCH  25  32
ATOM     32  N   UNL     1       4.047   3.748  19.214  0.00  0.00    +0.000 N 
ATOM     33  O   UNL     1       3.074   2.980  19.191  0.00  0.00    +0.000 OA
ATOM     34  O   UNL     1       5.177   3.449  19.612  0.00  0.00    +0.000 OA
ENDBRANCH  25  32
ENDBRANCH   2  21
TORSDOF 6
ENDMDL
MODEL 4
REMARK VINA RESULT:      -8.1      1.654      2.005
REMARK  Name = 
REMARK  7 active torsions:
REMARK  status: ('A' for Active; 'I' for Inactive)
REMARK    1  A    between atoms: C_1  and  C_2
REMARK    2  A    between atoms: C_2  and  C_3
REMARK    3  A    between atoms: N_8  and  C_9
REMARK    4  A    between atoms: C_12  and  N_13
REMARK    5  A    between atoms: C_14  and  C_16
REMARK    6  A    between atoms: C_19  and  N_20
REMARK    7  A    between atoms: C_25  and  N_26
REMARK                            x       y       z     vdW  Elec       q    Type
REMARK                         _______ _______ _______ _____ _____    ______ ____
ROOT
ATOM      1  N   UNL     1       1.619   8.520  20.329  0.00  0.00    +0.000 N 
ATOM      2  C   UNL     1       1.751   8.398  18.952  0.00  0.00    +0.000 C 
ATOM      3  O   UNL     1       1.194   9.086  18.099  0.00  0.00    +0.000 OA
ATOM      4  H   UNL     1       2.183   7.932  20.928  0.00  0.00    +0.000 HD
ENDROOT
BRANCH   1   8
ATOM      5  C   UNL     1      -0.820  11.406  22.367  0.00  0.00    +0.000 A 
ATOM      6  C   UNL     1      -0.156  11.721  21.181  0.00  0.00    +0.000 A 
ATOM      7  C   UNL     1       0.629  10.781  20.503  0.00  0.00    +0.000 A 
ATOM      8  C   UNL     1       0.799   9.483  20.982  0.00  0.00    +0.000 A 
ATOM      9  C   UNL     1       0.128   9.142  22.160  0.00  0.00    +0.000 A 
ATOM     10  C   UNL     1      -0.666  10.093  22.831  0.00  0.00    +0.000 A 
BRANCH   5  16
ATOM     11  C   UNL     1      -4.163  15.580  23.415  0.00  0.00    +0.000 C 
ATOM     12  O   UNL     1      -3.716  16.726  23.463  0.00  0.00    +0.000 OA
ATOM     13  N   UNL     1      -3.428  14.526  22.900  0.00  0.00    +0.000 N 
ATOM     14  C   UNL     1      -2.026  14.736  22.525  0.00  0.00    +0.000 C 
ATOM     15  C   UNL     1      -1.116  13.725  23.244  0.00  0.00    +0.000 C 
ATOM     16  N   UNL     1      -1.587  12.348  23.022  0.00  0.00    +0.000 N 
ATOM     17  C   UNL     1      -3.012  12.095  23.319  0.00  0.00    +0.000 C 
ATOM     18  C   UNL     1      -3.912  13.160  22.653  0.00  0.00    +0.000 C 
BRANCH  11  20
ATOM     19  C   UNL     1      -6.664  15.739  23.075  0.00  0.00    +0.000 C 
ATOM     20  C   UNL     1      -5.538  15.244  23.969  0.00  0.00    +0.000 C 
ENDBRANCH  11  20
ENDBRANCH   5  16
ENDBRANCH   1   8
BRANCH   2  21
ATOM     21  C   UNL     1       2.656   7.353  18.411  0.00  0.00    +0.000 A 
ATOM     22  C   UNL     1       3.764   7.793  17.681  0.00  0.00    +0.000 A 
ATOM     23  C   UNL     1       4.591   6.887  17.011  0.00  0.00    +0.000 A 
ATOM     24  C   UNL     1       4.365   5.500  17.012  0.00  0.00    +0.000 A 
ATOM     25  C   UNL     1       3.233   5.090  17.754  0.00  0.00    +0.000 A 
ATOM     26  C   UNL     1       2.390   5.990  18.461  0.00  0.00    +0.000 A 
BRANCH  24  27
ATOM     27  N   UNL     1       5.246   4.728  16.287  0.00  0.00    +0.000 N 
ATOM     28  C   UNL     1       6.655   4.455  16.552  0.00  0.00    +0.000 C 
ATOM     29  C   UNL     1       7.297   4.592  15.177  0.00  0.00    +0.000 C 
ATOM     30  C   UNL     1       6.243   4.014  14.245  0.00  0.00    +0.000 C 
ATOM     31  C   UNL     1       4.912   4.387  14.897  0.00  0.00    +0.000 C 
ENDBRANCH  24  27
BRANCH  25  32
ATOM     32  N   UNL     1       2.872   3.690  17.896  0.00  0.00    +0.000 N 
ATOM     33  O   UNL     1       3.427   3.036  18.792  0.00  0.00    +0.000 OA
ATOM     34  O   UNL     1       1.977   3.266  17.159  0.00  0.00    +0.000 OA
ENDBRANCH  25  32
ENDBRANCH   2  21
TORSDOF 6
ENDMDL
MODEL 5
REMARK VINA RESULT:      -8.1      0.607      1.199
REMARK  Name = 
REMARK  7 active torsions:
REMARK  status: ('A' for Active; 'I' for Inactive)
REMARK    1  A    between atoms: C_1  and  C_2
REMARK    2  A    between atoms: C_2  and  C_3
REMARK    3  A    between atoms: N_8  and  C_9
REMARK    4  A    between atoms: C_12  and  N_13
REMARK    5  A    between atoms: C_14  and  C_16
REMARK    6  A    between atoms: C_19  and  N_20
REMARK    7  A    between atoms: C_25  and  N_26
REMARK                            x       y       z     vdW  Elec       q    Type
REMARK                         _______ _______ _______ _____ _____    ______ ____
ROOT
ATOM      1  N   UNL     1       1.539   9.143  19.132  0.00  0.00    +0.000 N 
ATOM      2  C   UNL     1       1.869   7.934  19.731  0.00  0.00    +0.000 C 
ATOM      3  O   UNL     1       1.416   7.492  20.784  0.00  0.00    +0.000 OA
ATOM      4  H   UNL     1       1.935   9.365  18.228  0.00  0.00    +0.000 HD
ENDROOT
BRANCH   1   8
ATOM      5  C   UNL     1      -1.342  11.912  20.701  0.00  0.00    +0.000 A 
ATOM      6  C   UNL     1      -0.122  11.689  21.340  0.00  0.00    +0.000 A 
ATOM      7  C   UNL     1       0.828  10.799  20.828  0.00  0.00    +0.000 A 
ATOM      8  C   UNL     1       0.603  10.078  19.655  0.00  0.00    +0.000 A 
ATOM      9  C   UNL     1      -0.606  10.300  18.989  0.00  0.00    +0.000 A 
ATOM     10  C   UNL     1      -1.553  11.205  19.510  0.00  0.00    +0.000 A 
BRANCH   5  16
ATOM     11  C   UNL     1      -6.017  14.205  22.305  0.00  0.00    +0.000 C 
ATOM     12  O   UNL     1      -6.696  14.843  21.500  0.00  0.00    +0.000 OA
ATOM     13  N   UNL     1      -4.974  13.390  21.904  0.00  0.00    +0.000 N 
ATOM     14  C   UNL     1      -4.561  13.381  20.497  0.00  0.00    +0.000 C 
ATOM     15  C   UNL     1      -3.060  13.692  20.371  0.00  0.00    +0.000 C 
ATOM     16  N   UNL     1      -2.266  12.793  21.224  0.00  0.00    +0.000 N 
ATOM     17  C   UNL     1      -2.681  12.711  22.640  0.00  0.00    +0.000 C 
ATOM     18  C   UNL     1      -4.204  12.471  22.755  0.00  0.00    +0.000 C 
BRANCH  11  20
ATOM     19  C   UNL     1      -7.548  13.643  24.239  0.00  0.00    +0.000 C 
ATOM     20  C   UNL     1      -6.257  14.316  23.802  0.00  0.00    +0.000 C 
ENDBRANCH  11  20
ENDBRANCH   5  16
ENDBRANCH   1   8
BRANCH   2  21
ATOM     21  C   UNL     1       2.855   7.050  19.060  0.00  0.00    +0.000 A 
ATOM     22  C   UNL     1       3.503   7.566  17.935  0.00  0.00    +0.000 A 
ATOM     23  C   UNL     1       4.338   6.763  17.153  0.00  0.00    +0.000 A 
ATOM     24  C   UNL     1       4.568   5.403  17.429  0.00  0.00    +0.000 A 
ATOM     25  C   UNL     1       3.893   4.913  18.570  0.00  0.00    +0.000 A 
ATOM     26  C   UNL     1       3.057   5.716  19.392  0.00  0.00    +0.000 A 
BRANCH  24  27
ATOM     27  N   UNL     1       5.394   4.726  16.558  0.00  0.00    +0.000 N 
ATOM     28  C   UNL     1       6.852   4.658  16.545  0.00  0.00    +0.000 C 
ATOM     29  C   UNL     1       7.190   4.819  15.069  0.00  0.00    +0.000 C 
ATOM     30  C   UNL     1       6.069   4.063  14.372  0.00  0.00    +0.000 C 
ATOM     31  C   UNL     1       4.850   4.282  15.267  0.00  0.00    +0.000 C 
ENDBRANCH  24  27
BRANCH  25  32
ATOM     32  N   UNL     1       4.047   3.543  19.025  0.00  0.00    +0.000 N 
ATOM     33  O   UNL     1       3.172   2.723  18.706  0.00  0.00    +0.000 OA
ATOM     34  O   UNL     1       5.083   3.270  19.640  0.00  0.00    +0.000 OA
ENDBRANCH  25  32
ENDBRANCH   2  21
TORSDOF 6
ENDMDL
MODEL 6
REMARK VINA RESULT:      -8.0      1.680      2.115
REMARK  Name = 
REMARK  7 active torsions:
REMARK  status: ('A' for Active; 'I' for Inactive)
REMARK    1  A    between atoms: C_1  and  C_2
REMARK    2  A    between atoms: C_2  and  C_3
REMARK    3  A    between atoms: N_8  and  C_9
REMARK    4  A    between atoms: C_12  and  N_13
REMARK    5  A    between atoms: C_14  and  C_16
REMARK    6  A    between atoms: C_19  and  N_20
REMARK    7  A    between atoms: C_25  and  N_26
REMARK                            x       y       z     vdW  Elec       q    Type
REMARK                         _______ _______ _______ _____ _____    ______ ____
ROOT
ATOM      1  N   UNL     1       1.575   8.687  20.820  0.00  0.00    +0.000 N 
ATOM      2  C   UNL     1       1.671   8.510  19.446  0.00  0.00    +0.000 C 
ATOM      3  O   UNL     1       1.054   9.130  18.583  0.00  0.00    +0.000 OA
ATOM      4  H   UNL     1       2.186   8.156  21.426  0.00  0.00    +0.000 HD
ENDROOT
BRANCH   1   8
ATOM      5  C   UNL     1      -1.004  11.578  22.671  0.00  0.00    +0.000 A 
ATOM      6  C   UNL     1      -0.962  10.254  23.108  0.00  0.00    +0.000 A 
ATOM      7  C   UNL     1      -0.113   9.309  22.519  0.00  0.00    +0.000 A 
ATOM      8  C   UNL     1       0.728   9.637  21.457  0.00  0.00    +0.000 A 
ATOM      9  C   UNL     1       0.714  10.963  21.015  0.00  0.00    +0.000 A 
ATOM     10  C   UNL     1      -0.139  11.909  21.620  0.00  0.00    +0.000 A 
BRANCH   5  16
ATOM     11  C   UNL     1      -4.537  15.652  23.456  0.00  0.00    +0.000 C 
ATOM     12  O   UNL     1      -4.127  16.810  23.545  0.00  0.00    +0.000 OA
ATOM     13  N   UNL     1      -3.734  14.622  22.999  0.00  0.00    +0.000 N 
ATOM     14  C   UNL     1      -2.312  14.872  22.741  0.00  0.00    +0.000 C 
ATOM     15  C   UNL     1      -1.436  13.882  23.529  0.00  0.00    +0.000 C 
ATOM     16  N   UNL     1      -1.849  12.494  23.264  0.00  0.00    +0.000 N 
ATOM     17  C   UNL     1      -3.286  12.201  23.443  0.00  0.00    +0.000 C 
ATOM     18  C   UNL     1      -4.157  13.245  22.708  0.00  0.00    +0.000 C 
BRANCH  11  20
ATOM     19  C   UNL     1      -6.995  15.650  22.862  0.00  0.00    +0.000 C 
ATOM     20  C   UNL     1      -5.943  15.275  23.894  0.00  0.00    +0.000 C 
ENDBRANCH  11  20
ENDBRANCH   5  16
ENDBRANCH   1   8
BRANCH   2  21
ATOM     21  C   UNL     1       2.611   7.487  18.922  0.00  0.00    +0.000 A 
ATOM     22  C   UNL     1       3.425   7.868  17.851  0.00  0.00    +0.000 A 
ATOM     23  C   UNL     1       4.236   6.937  17.196  0.00  0.00    +0.000 A 
ATOM     24  C   UNL     1       4.279   5.578  17.551  0.00  0.00    +0.000 A 
ATOM     25  C   UNL     1       3.439   5.226  18.632  0.00  0.00    +0.000 A 
ATOM     26  C   UNL     1       2.623   6.159  19.327  0.00  0.00    +0.000 A 
BRANCH  24  27
ATOM     27  N   UNL     1       5.104   4.768  16.801  0.00  0.00    +0.000 N 
ATOM     28  C   UNL     1       6.518   4.466  17.002  0.00  0.00    +0.000 C 
ATOM     29  C   UNL     1       7.093   4.557  15.595  0.00  0.00    +0.000 C 
ATOM     30  C   UNL     1       5.980   3.985  14.729  0.00  0.00    +0.000 C 
ATOM     31  C   UNL     1       4.693   4.405  15.437  0.00  0.00    +0.000 C 
ENDBRANCH  24  27
BRANCH  25  32
ATOM     32  N   UNL     1       3.387   3.873  19.158  0.00  0.00    +0.000 N 
ATOM     33  O   UNL     1       2.392   3.183  18.886  0.00  0.00    +0.000 OA
ATOM     34  O   UNL     1       4.377   3.476  19.780  0.00  0.00    +0.000 OA
ENDBRANCH  25  32
ENDBRANCH   2  21
TORSDOF 6
ENDMDL
MODEL 7
REMARK VINA RESULT:      -7.9      1.360      1.669
REMARK  Name = 
REMARK  7 active torsions:
REMARK  status: ('A' for Active; 'I' for Inactive)
REMARK    1  A    between atoms: C_1  and  C_2
REMARK    2  A    between atoms: C_2  and  C_3
REMARK    3  A    between atoms: N_8  and  C_9
REMARK    4  A    between atoms: C_12  and  N_13
REMARK    5  A    between atoms: C_14  and  C_16
REMARK    6  A    between atoms: C_19  and  N_20
REMARK    7  A    between atoms: C_25  and  N_26
REMARK                            x       y       z     vdW  Elec       q    Type
REMARK                         _______ _______ _______ _____ _____    ______ ____
ROOT
ATOM      1  N   UNL     1       1.677   8.806  19.254  0.00  0.00    +0.000 N 
ATOM      2  C   UNL     1       1.940   7.520  19.706  0.00  0.00    +0.000 C 
ATOM      3  O   UNL     1       1.396   6.950  20.649  0.00  0.00    +0.000 OA
ATOM      4  H   UNL     1       2.149   9.140  18.424  0.00  0.00    +0.000 HD
ENDROOT
BRANCH   1   8
ATOM      5  C   UNL     1      -1.173  11.500  21.002  0.00  0.00    +0.000 A 
ATOM      6  C   UNL     1      -1.312  11.041  19.692  0.00  0.00    +0.000 A 
ATOM      7  C   UNL     1      -0.396  10.152  19.120  0.00  0.00    +0.000 A 
ATOM      8  C   UNL     1       0.713   9.684  19.824  0.00  0.00    +0.000 A 
ATOM      9  C   UNL     1       0.862  10.119  21.144  0.00  0.00    +0.000 A 
ATOM     10  C   UNL     1      -0.071  11.008  21.714  0.00  0.00    +0.000 A 
BRANCH   5  16
ATOM     11  C   UNL     1      -3.416  15.639  23.746  0.00  0.00    +0.000 C 
ATOM     12  O   UNL     1      -3.650  15.522  24.949  0.00  0.00    +0.000 OA
ATOM     13  N   UNL     1      -2.618  14.739  23.062  0.00  0.00    +0.000 N 
ATOM     14  C   UNL     1      -2.144  13.529  23.741  0.00  0.00    +0.000 C 
ATOM     15  C   UNL     1      -2.536  12.272  22.945  0.00  0.00    +0.000 C 
ATOM     16  N   UNL     1      -2.087  12.378  21.547  0.00  0.00    +0.000 N 
ATOM     17  C   UNL     1      -2.479  13.610  20.834  0.00  0.00    +0.000 C 
ATOM     18  C   UNL     1      -2.148  14.864  21.675  0.00  0.00    +0.000 C 
BRANCH  11  20
ATOM     19  C   UNL     1      -5.461  16.453  22.501  0.00  0.00    +0.000 C 
ATOM     20  C   UNL     1      -4.034  16.760  22.927  0.00  0.00    +0.000 C 
ENDBRANCH  11  20
ENDBRANCH   5  16
ENDBRANCH   1   8
BRANCH   2  21
ATOM     21  C   UNL     1       2.967   6.711  19.002  0.00  0.00    +0.000 A 
ATOM     22  C   UNL     1       3.581   7.298  17.891  0.00  0.00    +0.000 A 
ATOM     23  C   UNL     1       4.451   6.566  17.079  0.00  0.00    +0.000 A 
ATOM     24  C   UNL     1       4.754   5.213  17.307  0.00  0.00    +0.000 A 
ATOM     25  C   UNL     1       4.111   4.650  18.434  0.00  0.00    +0.000 A 
ATOM     26  C   UNL     1       3.240   5.380  19.287  0.00  0.00    +0.000 A 
BRANCH  24  27
ATOM     27  N   UNL     1       5.608   4.609  16.410  0.00  0.00    +0.000 N 
ATOM     28  C   UNL     1       7.065   4.669  16.353  0.00  0.00    +0.000 C 
ATOM     29  C   UNL     1       7.343   4.857  14.867  0.00  0.00    +0.000 C 
ATOM     30  C   UNL     1       6.271   4.005  14.204  0.00  0.00    +0.000 C 
ATOM     31  C   UNL     1       5.065   4.117  15.136  0.00  0.00    +0.000 C 
ENDBRANCH  24  27
BRANCH  25  32
ATOM     32  N   UNL     1       4.339   3.274  18.842  0.00  0.00    +0.000 N 
ATOM     33  O   UNL     1       5.210   3.060  19.699  0.00  0.00    +0.000 OA
ATOM     34  O   UNL     1       3.595   2.416  18.358  0.00  0.00    +0.000 OA
ENDBRANCH  25  32
ENDBRANCH   2  21
TORSDOF 6
ENDMDL
MODEL 8
REMARK VINA RESULT:      -7.9      1.323      1.937
REMARK  Name = 
REMARK  7 active torsions:
REMARK  status: ('A' for Active; 'I' for Inactive)
REMARK    1  A    between atoms: C_1  and  C_2
REMARK    2  A    between atoms: C_2  and  C_3
REMARK    3  A    between atoms: N_8  and  C_9
REMARK    4  A    between atoms: C_12  and  N_13
REMARK    5  A    between atoms: C_14  and  C_16
REMARK    6  A    between atoms: C_19  and  N_20
REMARK    7  A    between atoms: C_25  and  N_26
REMARK                            x       y       z     vdW  Elec       q    Type
REMARK                         _______ _______ _______ _____ _____    ______ ____
ROOT
ATOM      1  N   UNL     1       1.673   8.830  19.572  0.00  0.00    +0.000 N 
ATOM      2  C   UNL     1       1.896   7.518  19.969  0.00  0.00    +0.000 C 
ATOM      3  O   UNL     1       1.323   6.921  20.878  0.00  0.00    +0.000 OA
ATOM      4  H   UNL     1       2.165   9.187  18.765  0.00  0.00    +0.000 HD
ENDROOT
BRANCH   1   8
ATOM      5  C   UNL     1      -1.246  11.440  21.334  0.00  0.00    +0.000 A 
ATOM      6  C   UNL     1      -0.275  10.804  22.108  0.00  0.00    +0.000 A 
ATOM      7  C   UNL     1       0.688   9.963  21.540  0.00  0.00    +0.000 A 
ATOM      8  C   UNL     1       0.724   9.707  20.170  0.00  0.00    +0.000 A 
ATOM      9  C   UNL     1      -0.229  10.348  19.373  0.00  0.00    +0.000 A 
ATOM     10  C   UNL     1      -1.190  11.199  19.954  0.00  0.00    +0.000 A 
BRANCH   5  16
ATOM     11  C   UNL     1      -3.731  15.755  23.546  0.00  0.00    +0.000 C 
ATOM     12  O   UNL     1      -3.603  15.987  24.748  0.00  0.00    +0.000 OA
ATOM     13  N   UNL     1      -2.926  14.846  22.883  0.00  0.00    +0.000 N 
ATOM     14  C   UNL     1      -1.982  14.023  23.646  0.00  0.00    +0.000 C 
ATOM     15  C   UNL     1      -2.212  12.529  23.361  0.00  0.00    +0.000 C 
ATOM     16  N   UNL     1      -2.189  12.264  21.913  0.00  0.00    +0.000 N 
ATOM     17  C   UNL     1      -3.072  13.110  21.086  0.00  0.00    +0.000 C 
ATOM     18  C   UNL     1      -2.887  14.605  21.433  0.00  0.00    +0.000 C 
BRANCH  11  20
ATOM     19  C   UNL     1      -6.205  16.235  23.326  0.00  0.00    +0.000 C 
ATOM     20  C   UNL     1      -4.822  16.423  22.724  0.00  0.00    +0.000 C 
ENDBRANCH  11  20
ENDBRANCH   5  16
ENDBRANCH   1   8
BRANCH   2  21
ATOM     21  C   UNL     1       2.911   6.714  19.242  0.00  0.00    +0.000 A 
ATOM     22  C   UNL     1       3.485   7.298  18.109  0.00  0.00    +0.000 A 
ATOM     23  C   UNL     1       4.339   6.569  17.278  0.00  0.00    +0.000 A 
ATOM     24  C   UNL     1       4.664   5.221  17.509  0.00  0.00    +0.000 A 
ATOM     25  C   UNL     1       4.062   4.661  18.659  0.00  0.00    +0.000 A 
ATOM     26  C   UNL     1       3.207   5.389  19.531  0.00  0.00    +0.000 A 
BRANCH  24  27
ATOM     27  N   UNL     1       5.499   4.619  16.592  0.00  0.00    +0.000 N 
ATOM     28  C   UNL     1       6.957   4.622  16.543  0.00  0.00    +0.000 C 
ATOM     29  C   UNL     1       7.251   4.857  15.067  0.00  0.00    +0.000 C 
ATOM     30  C   UNL     1       6.150   4.075  14.367  0.00  0.00    +0.000 C 
ATOM     31  C   UNL     1       4.944   4.199  15.298  0.00  0.00    +0.000 C 
ENDBRANCH  24  27
BRANCH  25  32
ATOM     32  N   UNL     1       4.318   3.292  19.072  0.00  0.00    +0.000 N 
ATOM     33  O   UNL     1       3.554   2.408  18.656  0.00  0.00    +0.000 OA
ATOM     34  O   UNL     1       5.329   3.093  19.753  0.00  0.00    +0.000 OA
ENDBRANCH  25  32
ENDBRANCH   2  21
TORSDOF 6
ENDMDL
MODEL 9
REMARK VINA RESULT:      -7.8      1.472      1.848
REMARK  Name = 
REMARK  7 active torsions:
REMARK  status: ('A' for Active; 'I' for Inactive)
REMARK    1  A    between atoms: C_1  and  C_2
REMARK    2  A    between atoms: C_2  and  C_3
REMARK    3  A    between atoms: N_8  and  C_9
REMARK    4  A    between atoms: C_12  and  N_13
REMARK    5  A    between atoms: C_14  and  C_16
REMARK    6  A    between atoms: C_19  and  N_20
REMARK    7  A    between atoms: C_25  and  N_26
REMARK                            x       y       z     vdW  Elec       q    Type
REMARK                         _______ _______ _______ _____ _____    ______ ____
ROOT
ATOM      1  N   UNL     1       1.804   8.687  20.470  0.00  0.00    +0.000 N 
ATOM      2  C   UNL     1       1.648   7.308  20.413  0.00  0.00    +0.000 C 
ATOM      3  O   UNL     1       0.726   6.656  20.897  0.00  0.00    +0.000 OA
ATOM      4  H   UNL     1       2.577   9.112  19.975  0.00  0.00    +0.000 HD
ENDROOT
BRANCH   1   8
ATOM      5  C   UNL     1      -0.878  11.381  22.464  0.00  0.00    +0.000 A 
ATOM      6  C   UNL     1      -0.504  11.577  21.135  0.00  0.00    +0.000 A 
ATOM      7  C   UNL     1       0.359  10.695  20.473  0.00  0.00    +0.000 A 
ATOM      8  C   UNL     1       0.899   9.579  21.110  0.00  0.00    +0.000 A 
ATOM      9  C   UNL     1       0.522   9.354  22.438  0.00  0.00    +0.000 A 
ATOM     10  C   UNL     1      -0.353  10.244  23.092  0.00  0.00    +0.000 A 
BRANCH   5  16
ATOM     11  C   UNL     1      -4.457  15.374  23.436  0.00  0.00    +0.000 C 
ATOM     12  O   UNL     1      -4.062  16.534  23.562  0.00  0.00    +0.000 OA
ATOM     13  N   UNL     1      -3.645  14.373  22.933  0.00  0.00    +0.000 N 
ATOM     14  C   UNL     1      -2.230  14.652  22.669  0.00  0.00    +0.000 C 
ATOM     15  C   UNL     1      -1.332  13.646  23.410  0.00  0.00    +0.000 C 
ATOM     16  N   UNL     1      -1.729  12.263  23.099  0.00  0.00    +0.000 N 
ATOM     17  C   UNL     1      -3.159  11.943  23.282  0.00  0.00    +0.000 C 
ATOM     18  C   UNL     1      -4.053  13.001  22.596  0.00  0.00    +0.000 C 
BRANCH  11  20
ATOM     19  C   UNL     1      -6.914  15.972  23.469  0.00  0.00    +0.000 C 
ATOM     20  C   UNL     1      -5.853  14.962  23.875  0.00  0.00    +0.000 C 
ENDBRANCH  11  20
ENDBRANCH   5  16
ENDBRANCH   1   8
BRANCH   2  21
ATOM     21  C   UNL     1       2.668   6.502  19.696  0.00  0.00    +0.000 A 
ATOM     22  C   UNL     1       3.319   7.117  18.623  0.00  0.00    +0.000 A 
ATOM     23  C   UNL     1       4.187   6.397  17.799  0.00  0.00    +0.000 A 
ATOM     24  C   UNL     1       4.451   5.028  17.977  0.00  0.00    +0.000 A 
ATOM     25  C   UNL     1       3.772   4.436  19.067  0.00  0.00    +0.000 A 
ATOM     26  C   UNL     1       2.902   5.153  19.932  0.00  0.00    +0.000 A 
BRANCH  24  27
ATOM     27  N   UNL     1       5.308   4.439  17.072  0.00  0.00    +0.000 N 
ATOM     28  C   UNL     1       6.767   4.441  17.060  0.00  0.00    +0.000 C 
ATOM     29  C   UNL     1       7.098   4.699  15.596  0.00  0.00    +0.000 C 
ATOM     30  C   UNL     1       6.015   3.931  14.856  0.00  0.00    +0.000 C 
ATOM     31  C   UNL     1       4.786   4.041  15.757  0.00  0.00    +0.000 C 
ENDBRANCH  24  27
BRANCH  25  32
ATOM     32  N   UNL     1       3.957   3.040  19.422  0.00  0.00    +0.000 N 
ATOM     33  O   UNL     1       5.007   2.724  20.002  0.00  0.00    +0.000 OA
ATOM     34  O   UNL     1       3.018   2.273  19.186  0.00  0.00    +0.000 OA
ENDBRANCH  25  32
ENDBRANCH   2  21
TORSDOF 6
ENDMDL
