MODEL 1
REMARK VINA RESULT:      -8.7      0.000      0.000
REMARK  Name = 
REMARK  7 active torsions:
REMARK  status: ('A' for Active; 'I' for Inactive)
REMARK    1  A    between atoms: C_1  and  C_2
REMARK    2  A    between atoms: C_5  and  C_6
REMARK    3  A    between atoms: C_6  and  O_8
REMARK    4  A    between atoms: C_9  and  C_10
REMARK    5  A    between atoms: N_12  and  C_13
REMARK    6  A    between atoms: C_16  and  C_17
REMARK    7  A    between atoms: C_22  and  C_23
REMARK                            x       y       z     vdW  Elec       q    Type
REMARK                         _______ _______ _______ _____ _____    ______ ____
ROOT
ATOM      1  C   UNL     1       2.298   7.807  18.500  0.00  0.00    +0.000 A 
ATOM      2  C   UNL     1       1.729   8.907  17.854  0.00  0.00    +0.000 A 
ATOM      3  C   UNL     1       0.933   9.825  18.554  0.00  0.00    +0.000 A 
ATOM      4  C   UNL     1       0.693   9.657  19.921  0.00  0.00    +0.000 A 
ATOM      5  C   UNL     1       1.278   8.551  20.562  0.00  0.00    +0.000 A 
ATOM      6  C   UNL     1       2.057   7.627  19.860  0.00  0.00    +0.000 A 
ENDROOT
BRANCH   4   7
ATOM      7  C   UNL     1      -0.211  10.519  20.699  0.00  0.00    +0.000 A 
ATOM      8  N   UNL     1      -0.951  11.449  20.132  0.00  0.00    +0.000 NA
ATOM      9  C   UNL     1      -1.666  12.145  21.078  0.00  0.00    +0.000 A 
ATOM     10  C   UNL     1      -2.517  13.230  20.806  0.00  0.00    +0.000 A 
ATOM     11  C   UNL     1      -3.196  13.858  21.851  0.00  0.00    +0.000 A 
ATOM     12  C   UNL     1      -3.047  13.415  23.168  0.00  0.00    +0.000 A 
ATOM     13  C   UNL     1      -3.790  14.107  24.274  0.00  0.00    +0.000 C 
ATOM     14  C   UNL     1      -2.189  12.337  23.457  0.00  0.00    +0.000 A 
ATOM     15  C   UNL     1      -1.505  11.717  22.394  0.00  0.00    +0.000 A 
ATOM     16  S   UNL     1      -0.391  10.398  22.407  0.00  0.00    +0.000 S 
ENDBRANCH   4   7
BRANCH   1  19
ATOM     17  C   UNL     1       2.839   5.485  17.790  0.00  0.00    +0.000 C 
ATOM     18  O   UNL     1       1.865   4.951  18.327  0.00  0.00    +0.000 OA
ATOM     19  N   UNL     1       3.084   6.838  17.836  0.00  0.00    +0.000 N 
ATOM     20  H   UNL     1       3.872   7.206  17.298  0.00  0.00    +0.000 HD
BRANCH  17  26
ATOM     21  C   UNL     1       6.903   7.019  17.708  0.00  0.00    +0.000 C 
ATOM     22  C   UNL     1       6.010   5.819  17.835  0.00  0.00    +0.000 C 
ATOM     23  C   UNL     1       5.984   5.065  18.950  0.00  0.00    +0.000 C 
ATOM     24  C   UNL     1       5.089   3.871  19.128  0.00  0.00    +0.000 C 
ATOM     25  C   UNL     1       4.463   3.426  17.804  0.00  0.00    +0.000 C 
ATOM     26  C   UNL     1       3.884   4.635  17.035  0.00  0.00    +0.000 C 
ATOM     27  C   UNL     1       5.081   5.551  16.662  0.00  0.00    +0.000 C 
BRANCH  25  28
ATOM     28  C   UNL     1       3.491   2.281  17.982  0.00  0.00    +0.000 C 
ATOM     29  O   UNL     1       3.646   1.362  18.773  0.00  0.00    +0.000 OA
BRANCH  28  30
ATOM     30  O   UNL     1       2.388   2.366  17.211  0.00  0.00    +0.000 OA
ATOM     31  H   UNL     1       1.719   1.671  17.362  0.00  0.00    +0.000 HD
ENDBRANCH  28  30
ENDBRANCH  25  28
ENDBRANCH  17  26
ENDBRANCH   1  19
TORSDOF 5
ENDMDL
MODEL 2
REMARK VINA RESULT:      -8.7      1.032      1.515
REMARK  Name = 
REMARK  7 active torsions:
REMARK  status: ('A' for Active; 'I' for Inactive)
REMARK    1  A    between atoms: C_1  and  C_2
REMARK    2  A    between atoms: C_5  and  C_6
REMARK    3  A    between atoms: C_6  and  O_8
REMARK    4  A    between atoms: C_9  and  C_10
REMARK    5  A    between atoms: N_12  and  C_13
REMARK    6  A    between atoms: C_16  and  C_17
REMARK    7  A    between atoms: C_22  and  C_23
REMARK                            x       y       z     vdW  Elec       q    Type
REMARK                         _______ _______ _______ _____ _____    ______ ____
ROOT
ATOM      1  C   UNL     1       2.256   7.605  18.819  0.00  0.00    +0.000 A 
ATOM      2  C   UNL     1       2.003   7.450  20.184  0.00  0.00    +0.000 A 
ATOM      3  C   UNL     1       1.328   8.439  20.912  0.00  0.00    +0.000 A 
ATOM      4  C   UNL     1       0.891   9.608  20.283  0.00  0.00    +0.000 A 
ATOM      5  C   UNL     1       1.143   9.750  18.907  0.00  0.00    +0.000 A 
ATOM      6  C   UNL     1       1.831   8.771  18.185  0.00  0.00    +0.000 A 
ENDROOT
BRANCH   4   7
ATOM      7  C   UNL     1       0.267  10.734  20.999  0.00  0.00    +0.000 A 
ATOM      8  N   UNL     1      -0.758  10.564  21.807  0.00  0.00    +0.000 NA
ATOM      9  C   UNL     1      -1.184  11.772  22.310  0.00  0.00    +0.000 A 
ATOM     10  C   UNL     1      -2.285  11.943  23.167  0.00  0.00    +0.000 A 
ATOM     11  C   UNL     1      -2.621  13.221  23.617  0.00  0.00    +0.000 A 
ATOM     12  C   UNL     1      -1.869  14.334  23.233  0.00  0.00    +0.000 A 
ATOM     13  C   UNL     1      -2.250  15.697  23.734  0.00  0.00    +0.000 C 
ATOM     14  C   UNL     1      -0.770  14.180  22.366  0.00  0.00    +0.000 A 
ATOM     15  C   UNL     1      -0.447  12.886  21.914  0.00  0.00    +0.000 A 
ATOM     16  S   UNL     1       0.811  12.361  20.855  0.00  0.00    +0.000 S 
ENDBRANCH   4   7
BRANCH   1  19
ATOM     17  C   UNL     1       2.675   5.307  17.966  0.00  0.00    +0.000 C 
ATOM     18  O   UNL     1       1.741   4.769  18.567  0.00  0.00    +0.000 OA
ATOM     19  N   UNL     1       2.956   6.652  18.046  0.00  0.00    +0.000 N 
ATOM     20  H   UNL     1       3.699   7.027  17.454  0.00  0.00    +0.000 HD
BRANCH  17  26
ATOM     21  C   UNL     1       6.696   6.862  17.423  0.00  0.00    +0.000 C 
ATOM     22  C   UNL     1       5.828   5.655  17.640  0.00  0.00    +0.000 C 
ATOM     23  C   UNL     1       5.936   4.890  18.741  0.00  0.00    +0.000 C 
ATOM     24  C   UNL     1       5.073   3.689  19.009  0.00  0.00    +0.000 C 
ATOM     25  C   UNL     1       4.296   3.255  17.763  0.00  0.00    +0.000 C 
ATOM     26  C   UNL     1       3.627   4.471  17.082  0.00  0.00    +0.000 C 
ATOM     27  C   UNL     1       4.768   5.397  16.581  0.00  0.00    +0.000 C 
BRANCH  25  28
ATOM     28  C   UNL     1       3.356   2.104  18.041  0.00  0.00    +0.000 C 
ATOM     29  O   UNL     1       3.563   1.231  18.872  0.00  0.00    +0.000 OA
BRANCH  28  30
ATOM     30  O   UNL     1       2.222   2.128  17.313  0.00  0.00    +0.000 OA
ATOM     31  H   UNL     1       1.393   2.133  17.831  0.00  0.00    +0.000 HD
ENDBRANCH  28  30
ENDBRANCH  25  28
ENDBRANCH  17  26
ENDBRANCH   1  19
TORSDOF 5
ENDMDL
MODEL 3
REMARK VINA RESULT:      -8.6      1.013      1.366
REMARK  Name = 
REMARK  7 active torsions:
REMARK  status: ('A' for Active; 'I' for Inactive)
REMARK    1  A    between atoms: C_1  and  C_2
REMARK    2  A    between atoms: C_5  and  C_6
REMARK    3  A    between atoms: C_6  and  O_8
REMARK    4  A    between atoms: C_9  and  C_10
REMARK    5  A    between atoms: N_12  and  C_13
REMARK    6  A    between atoms: C_16  and  C_17
REMARK    7  A    between atoms: C_22  and  C_23
REMARK                            x       y       z     vdW  Elec       q    Type
REMARK                         _______ _______ _______ _____ _____    ______ ____
ROOT
ATOM      1  C   UNL     1       2.485   7.453  18.522  0.00  0.00    +0.000 A 
ATOM      2  C   UNL     1       2.019   8.506  17.731  0.00  0.00    +0.000 A 
ATOM      3  C   UNL     1       1.208   9.513  18.273  0.00  0.00    +0.000 A 
ATOM      4  C   UNL     1       0.850   9.486  19.623  0.00  0.00    +0.000 A 
ATOM      5  C   UNL     1       1.333   8.427  20.412  0.00  0.00    +0.000 A 
ATOM      6  C   UNL     1       2.127   7.413  19.868  0.00  0.00    +0.000 A 
ENDROOT
BRANCH   4   7
ATOM      7  C   UNL     1      -0.077  10.450  20.239  0.00  0.00    +0.000 A 
ATOM      8  N   UNL     1      -0.310  10.463  21.535  0.00  0.00    +0.000 NA
ATOM      9  C   UNL     1      -1.247  11.420  21.849  0.00  0.00    +0.000 A 
ATOM     10  C   UNL     1      -1.750  11.662  23.139  0.00  0.00    +0.000 A 
ATOM     11  C   UNL     1      -2.698  12.666  23.337  0.00  0.00    +0.000 A 
ATOM     12  C   UNL     1      -3.150  13.443  22.268  0.00  0.00    +0.000 A 
ATOM     13  C   UNL     1      -4.170  14.519  22.508  0.00  0.00    +0.000 C 
ATOM     14  C   UNL     1      -2.664  13.206  20.967  0.00  0.00    +0.000 A 
ATOM     15  C   UNL     1      -1.713  12.185  20.781  0.00  0.00    +0.000 A 
ATOM     16  S   UNL     1      -0.935  11.640  19.339  0.00  0.00    +0.000 S 
ENDBRANCH   4   7
BRANCH   1  19
ATOM     17  C   UNL     1       2.853   5.121  17.737  0.00  0.00    +0.000 C 
ATOM     18  O   UNL     1       1.685   4.748  17.879  0.00  0.00    +0.000 OA
ATOM     19  N   UNL     1       3.281   6.398  18.021  0.00  0.00    +0.000 N 
ATOM     20  H   UNL     1       4.248   6.645  17.800  0.00  0.00    +0.000 HD
BRANCH  17  26
ATOM     21  C   UNL     1       6.875   6.713  17.330  0.00  0.00    +0.000 C 
ATOM     22  C   UNL     1       6.011   5.557  17.747  0.00  0.00    +0.000 C 
ATOM     23  C   UNL     1       5.979   5.115  19.018  0.00  0.00    +0.000 C 
ATOM     24  C   UNL     1       5.112   3.979  19.482  0.00  0.00    +0.000 C 
ATOM     25  C   UNL     1       4.530   3.188  18.307  0.00  0.00    +0.000 C 
ATOM     26  C   UNL     1       3.939   4.140  17.243  0.00  0.00    +0.000 C 
ATOM     27  C   UNL     1       5.119   4.968  16.667  0.00  0.00    +0.000 C 
BRANCH  25  28
ATOM     28  C   UNL     1       3.586   2.097  18.757  0.00  0.00    +0.000 C 
ATOM     29  O   UNL     1       2.648   2.270  19.523  0.00  0.00    +0.000 OA
BRANCH  28  30
ATOM     30  O   UNL     1       3.833   0.889  18.211  0.00  0.00    +0.000 OA
ATOM     31  H   UNL     1       4.392   0.295  18.747  0.00  0.00    +0.000 HD
ENDBRANCH  28  30
ENDBRANCH  25  28
ENDBRANCH  17  26
ENDBRANCH   1  19
TORSDOF 5
ENDMDL
MODEL 4
REMARK VINA RESULT:      -8.4      0.909      1.273
REMARK  Name = 
REMARK  7 active torsions:
REMARK  status: ('A' for Active; 'I' for Inactive)
REMARK    1  A    between atoms: C_1  and  C_2
REMARK    2  A    between atoms: C_5  and  C_6
REMARK    3  A    between atoms: C_6  and  O_8
REMARK    4  A    between atoms: C_9  and  C_10
REMARK    5  A    between atoms: N_12  and  C_13
REMARK    6  A    between atoms: C_16  and  C_17
REMARK    7  A    between atoms: C_22  and  C_23
REMARK                            x       y       z     vdW  Elec       q    Type
REMARK                         _______ _______ _______ _____ _____    ______ ____
ROOT
ATOM      1  C   UNL     1       2.249   7.760  18.776  0.00  0.00    +0.000 A 
ATOM      2  C   UNL     1       1.960   7.591  20.132  0.00  0.00    +0.000 A 
ATOM      3  C   UNL     1       1.265   8.572  20.852  0.00  0.00    +0.000 A 
ATOM      4  C   UNL     1       0.842   9.747  20.223  0.00  0.00    +0.000 A 
ATOM      5  C   UNL     1       1.131   9.903  18.856  0.00  0.00    +0.000 A 
ATOM      6  C   UNL     1       1.839   8.931  18.143  0.00  0.00    +0.000 A 
ENDROOT
BRANCH   4   7
ATOM      7  C   UNL     1       0.198  10.864  20.933  0.00  0.00    +0.000 A 
ATOM      8  N   UNL     1       0.164  12.081  20.434  0.00  0.00    +0.000 NA
ATOM      9  C   UNL     1      -0.447  12.948  21.310  0.00  0.00    +0.000 A 
ATOM     10  C   UNL     1      -0.605  14.328  21.097  0.00  0.00    +0.000 A 
ATOM     11  C   UNL     1      -1.248  15.109  22.059  0.00  0.00    +0.000 A 
ATOM     12  C   UNL     1      -1.746  14.533  23.231  0.00  0.00    +0.000 A 
ATOM     13  C   UNL     1      -2.435  15.395  24.249  0.00  0.00    +0.000 C 
ATOM     14  C   UNL     1      -1.585  13.154  23.463  0.00  0.00    +0.000 A 
ATOM     15  C   UNL     1      -0.928  12.379  22.487  0.00  0.00    +0.000 A 
ATOM     16  S   UNL     1      -0.565  10.692  22.467  0.00  0.00    +0.000 S 
ENDBRANCH   4   7
BRANCH   1  19
ATOM     17  C   UNL     1       2.737   5.459  17.966  0.00  0.00    +0.000 C 
ATOM     18  O   UNL     1       1.834   4.902  18.595  0.00  0.00    +0.000 OA
ATOM     19  N   UNL     1       2.970   6.815  18.012  0.00  0.00    +0.000 N 
ATOM     20  H   UNL     1       3.690   7.203  17.399  0.00  0.00    +0.000 HD
BRANCH  17  26
ATOM     21  C   UNL     1       6.772   7.013  17.534  0.00  0.00    +0.000 C 
ATOM     22  C   UNL     1       5.897   5.805  17.710  0.00  0.00    +0.000 C 
ATOM     23  C   UNL     1       5.981   5.017  18.797  0.00  0.00    +0.000 C 
ATOM     24  C   UNL     1       5.110   3.814  19.024  0.00  0.00    +0.000 C 
ATOM     25  C   UNL     1       4.357   3.408  17.754  0.00  0.00    +0.000 C 
ATOM     26  C   UNL     1       3.704   4.639  17.085  0.00  0.00    +0.000 C 
ATOM     27  C   UNL     1       4.858   5.571  16.625  0.00  0.00    +0.000 C 
BRANCH  25  28
ATOM     28  C   UNL     1       3.409   2.254  17.990  0.00  0.00    +0.000 C 
ATOM     29  O   UNL     1       3.616   1.342  18.779  0.00  0.00    +0.000 OA
BRANCH  28  30
ATOM     30  O   UNL     1       2.267   2.321  17.277  0.00  0.00    +0.000 OA
ATOM     31  H   UNL     1       1.592   1.652  17.504  0.00  0.00    +0.000 HD
ENDBRANCH  28  30
ENDBRANCH  25  28
ENDBRANCH  17  26
ENDBRANCH   1  19
TORSDOF 5
ENDMDL
MODEL 5
REMARK VINA RESULT:      -8.2      2.050      3.024
REMARK  Name = 
REMARK  7 active torsions:
REMARK  status: ('A' for Active; 'I' for Inactive)
REMARK    1  A    between atoms: C_1  and  C_2
REMARK    2  A    between atoms: C_5  and  C_6
REMARK    3  A    between atoms: C_6  and  O_8
REMARK    4  A    between atoms: C_9  and  C_10
REMARK    5  A    between atoms: N_12  and  C_13
REMARK    6  A    between atoms: C_16  and  C_17
REMARK    7  A    between atoms: C_22  and  C_23
REMARK                            x       y       z     vdW  Elec       q    Type
REMARK                         _______ _______ _______ _____ _____    ______ ____
ROOT
ATOM      1  C   UNL     1       2.530   6.945  19.564  0.00  0.00    +0.000 A 
ATOM      2  C   UNL     1       2.291   7.910  18.582  0.00  0.00    +0.000 A 
ATOM      3  C   UNL     1       1.476   9.020  18.841  0.00  0.00    +0.000 A 
ATOM      4  C   UNL     1       0.884   9.187  20.096  0.00  0.00    +0.000 A 
ATOM      5  C   UNL     1       1.138   8.215  21.080  0.00  0.00    +0.000 A 
ATOM      6  C   UNL     1       1.937   7.099  20.815  0.00  0.00    +0.000 A 
ENDROOT
BRANCH   4   7
ATOM      7  C   UNL     1      -0.063  10.269  20.412  0.00  0.00    +0.000 A 
ATOM      8  N   UNL     1      -0.325  10.628  21.651  0.00  0.00    +0.000 NA
ATOM      9  C   UNL     1      -1.274  11.623  21.678  0.00  0.00    +0.000 A 
ATOM     10  C   UNL     1      -1.807  12.196  22.845  0.00  0.00    +0.000 A 
ATOM     11  C   UNL     1      -2.766  13.205  22.748  0.00  0.00    +0.000 A 
ATOM     12  C   UNL     1      -3.199  13.661  21.500  0.00  0.00    +0.000 A 
ATOM     13  C   UNL     1      -4.230  14.749  21.422  0.00  0.00    +0.000 C 
ATOM     14  C   UNL     1      -2.683  13.089  20.321  0.00  0.00    +0.000 A 
ATOM     15  C   UNL     1      -1.721  12.067  20.435  0.00  0.00    +0.000 A 
ATOM     16  S   UNL     1      -0.908  11.164  19.208  0.00  0.00    +0.000 S 
ENDBRANCH   4   7
BRANCH   1  19
ATOM     17  C   UNL     1       4.523   5.749  18.678  0.00  0.00    +0.000 C 
ATOM     18  O   UNL     1       5.070   6.743  18.193  0.00  0.00    +0.000 OA
ATOM     19  N   UNL     1       3.321   5.794  19.346  0.00  0.00    +0.000 N 
ATOM     20  H   UNL     1       2.978   4.937  19.784  0.00  0.00    +0.000 HD
BRANCH  17  26
ATOM     21  C   UNL     1       1.795   2.380  18.384  0.00  0.00    +0.000 C 
ATOM     22  C   UNL     1       3.068   3.018  17.908  0.00  0.00    +0.000 C 
ATOM     23  C   UNL     1       3.241   3.391  16.626  0.00  0.00    +0.000 C 
ATOM     24  C   UNL     1       4.488   4.054  16.113  0.00  0.00    +0.000 C 
ATOM     25  C   UNL     1       5.639   3.960  17.118  0.00  0.00    +0.000 C 
ATOM     26  C   UNL     1       5.163   4.350  18.536  0.00  0.00    +0.000 C 
ATOM     27  C   UNL     1       4.118   3.288  18.973  0.00  0.00    +0.000 C 
BRANCH  25  28
ATOM     28  C   UNL     1       6.873   4.699  16.652  0.00  0.00    +0.000 C 
ATOM     29  O   UNL     1       8.017   4.391  16.955  0.00  0.00    +0.000 OA
BRANCH  28  30
ATOM     30  O   UNL     1       6.620   5.732  15.823  0.00  0.00    +0.000 OA
ATOM     31  H   UNL     1       7.189   6.516  15.946  0.00  0.00    +0.000 HD
ENDBRANCH  28  30
ENDBRANCH  25  28
ENDBRANCH  17  26
ENDBRANCH   1  19
TORSDOF 5
ENDMDL
MODEL 6
REMARK VINA RESULT:      -8.2      2.232      3.241
REMARK  Name = 
REMARK  7 active torsions:
REMARK  status: ('A' for Active; 'I' for Inactive)
REMARK    1  A    between atoms: C_1  and  C_2
REMARK    2  A    between atoms: C_5  and  C_6
REMARK    3  A    between atoms: C_6  and  O_8
REMARK    4  A    between atoms: C_9  and  C_10
REMARK    5  A    between atoms: N_12  and  C_13
REMARK    6  A    between atoms: C_16  and  C_17
REMARK    7  A    between atoms: C_22  and  C_23
REMARK                            x       y       z     vdW  Elec       q    Type
REMARK                         _______ _______ _______ _____ _____    ______ ____
ROOT
ATOM      1  C   UNL     1       3.340   7.015  18.727  0.00  0.00    +0.000 A 
ATOM      2  C   UNL     1       2.606   6.888  19.909  0.00  0.00    +0.000 A 
ATOM      3  C   UNL     1       1.560   7.771  20.209  0.00  0.00    +0.000 A 
ATOM      4  C   UNL     1       1.227   8.802  19.326  0.00  0.00    +0.000 A 
ATOM      5  C   UNL     1       1.966   8.915  18.136  0.00  0.00    +0.000 A 
ATOM      6  C   UNL     1       3.021   8.045  17.845  0.00  0.00    +0.000 A 
ENDROOT
BRANCH   4   7
ATOM      7  C   UNL     1       0.211   9.827  19.619  0.00  0.00    +0.000 A 
ATOM      8  N   UNL     1       0.085  10.364  20.814  0.00  0.00    +0.000 NA
ATOM      9  C   UNL     1      -0.963  11.254  20.838  0.00  0.00    +0.000 A 
ATOM     10  C   UNL     1      -1.390  11.964  21.973  0.00  0.00    +0.000 A 
ATOM     11  C   UNL     1      -2.468  12.845  21.875  0.00  0.00    +0.000 A 
ATOM     12  C   UNL     1      -3.125  13.038  20.658  0.00  0.00    +0.000 A 
ATOM     13  C   UNL     1      -4.280  13.994  20.578  0.00  0.00    +0.000 C 
ATOM     14  C   UNL     1      -2.716  12.326  19.514  0.00  0.00    +0.000 A 
ATOM     15  C   UNL     1      -1.631  11.435  19.629  0.00  0.00    +0.000 A 
ATOM     16  S   UNL     1      -0.898  10.419  18.442  0.00  0.00    +0.000 S 
ENDBRANCH   4   7
BRANCH   1  19
ATOM     17  C   UNL     1       4.338   4.979  17.704  0.00  0.00    +0.000 C 
ATOM     18  O   UNL     1       3.278   4.511  17.279  0.00  0.00    +0.000 OA
ATOM     19  N   UNL     1       4.421   6.169  18.389  0.00  0.00    +0.000 N 
ATOM     20  H   UNL     1       5.347   6.522  18.636  0.00  0.00    +0.000 HD
BRANCH  17  26
ATOM     21  C   UNL     1       5.432   4.003  13.614  0.00  0.00    +0.000 C 
ATOM     22  C   UNL     1       5.891   4.468  14.966  0.00  0.00    +0.000 C 
ATOM     23  C   UNL     1       6.438   5.683  15.153  0.00  0.00    +0.000 C 
ATOM     24  C   UNL     1       6.888   6.196  16.492  0.00  0.00    +0.000 C 
ATOM     25  C   UNL     1       6.953   5.081  17.539  0.00  0.00    +0.000 C 
ATOM     26  C   UNL     1       5.669   4.221  17.505  0.00  0.00    +0.000 C 
ATOM     27  C   UNL     1       5.629   3.517  16.122  0.00  0.00    +0.000 C 
BRANCH  25  28
ATOM     28  C   UNL     1       7.318   5.598  18.911  0.00  0.00    +0.000 C 
ATOM     29  O   UNL     1       6.885   5.139  19.959  0.00  0.00    +0.000 OA
BRANCH  28  30
ATOM     30  O   UNL     1       8.212   6.607  18.903  0.00  0.00    +0.000 OA
ATOM     31  H   UNL     1       7.840   7.494  18.734  0.00  0.00    +0.000 HD
ENDBRANCH  28  30
ENDBRANCH  25  28
ENDBRANCH  17  26
ENDBRANCH   1  19
TORSDOF 5
ENDMDL
MODEL 7
REMARK VINA RESULT:      -8.2      1.101      1.717
REMARK  Name = 
REMARK  7 active torsions:
REMARK  status: ('A' for Active; 'I' for Inactive)
REMARK    1  A    between atoms: C_1  and  C_2
REMARK    2  A    between atoms: C_5  and  C_6
REMARK    3  A    between atoms: C_6  and  O_8
REMARK    4  A    between atoms: C_9  and  C_10
REMARK    5  A    between atoms: N_12  and  C_13
REMARK    6  A    between atoms: C_16  and  C_17
REMARK    7  A    between atoms: C_22  and  C_23
REMARK                            x       y       z     vdW  Elec       q    Type
REMARK                         _______ _______ _______ _____ _____    ______ ____
ROOT
ATOM      1  C   UNL     1       2.353   7.528  18.679  0.00  0.00    +0.000 A 
ATOM      2  C   UNL     1       2.008   7.557  20.032  0.00  0.00    +0.000 A 
ATOM      3  C   UNL     1       1.236   8.601  20.560  0.00  0.00    +0.000 A 
ATOM      4  C   UNL     1       0.789   9.639  19.737  0.00  0.00    +0.000 A 
ATOM      5  C   UNL     1       1.134   9.594  18.375  0.00  0.00    +0.000 A 
ATOM      6  C   UNL     1       1.920   8.562  17.852  0.00  0.00    +0.000 A 
ENDROOT
BRANCH   4   7
ATOM      7  C   UNL     1       0.062  10.817  20.235  0.00  0.00    +0.000 A 
ATOM      8  N   UNL     1      -0.069  11.064  21.522  0.00  0.00    +0.000 NA
ATOM      9  C   UNL     1      -0.830  12.192  21.725  0.00  0.00    +0.000 A 
ATOM     10  C   UNL     1      -1.193  12.702  22.983  0.00  0.00    +0.000 A 
ATOM     11  C   UNL     1      -1.968  13.859  23.065  0.00  0.00    +0.000 A 
ATOM     12  C   UNL     1      -2.382  14.525  21.909  0.00  0.00    +0.000 A 
ATOM     13  C   UNL     1      -3.213  15.770  22.024  0.00  0.00    +0.000 C 
ATOM     14  C   UNL     1      -2.036  14.020  20.641  0.00  0.00    +0.000 A 
ATOM     15  C   UNL     1      -1.259  12.847  20.573  0.00  0.00    +0.000 A 
ATOM     16  S   UNL     1      -0.681  11.975  19.200  0.00  0.00    +0.000 S 
ENDBRANCH   4   7
BRANCH   1  19
ATOM     17  C   UNL     1       2.754   5.229  17.818  0.00  0.00    +0.000 C 
ATOM     18  O   UNL     1       1.613   4.808  18.026  0.00  0.00    +0.000 OA
ATOM     19  N   UNL     1       3.153   6.515  18.103  0.00  0.00    +0.000 N 
ATOM     20  H   UNL     1       4.093   6.802  17.827  0.00  0.00    +0.000 HD
BRANCH  17  26
ATOM     21  C   UNL     1       6.699   6.961  17.258  0.00  0.00    +0.000 C 
ATOM     22  C   UNL     1       5.894   5.764  17.677  0.00  0.00    +0.000 C 
ATOM     23  C   UNL     1       5.943   5.278  18.931  0.00  0.00    +0.000 C 
ATOM     24  C   UNL     1       5.137   4.099  19.399  0.00  0.00    +0.000 C 
ATOM     25  C   UNL     1       4.517   3.331  18.229  0.00  0.00    +0.000 C 
ATOM     26  C   UNL     1       3.841   4.301  17.232  0.00  0.00    +0.000 C 
ATOM     27  C   UNL     1       4.963   5.184  16.625  0.00  0.00    +0.000 C 
BRANCH  25  28
ATOM     28  C   UNL     1       3.631   2.196  18.689  0.00  0.00    +0.000 C 
ATOM     29  O   UNL     1       2.802   2.287  19.584  0.00  0.00    +0.000 OA
BRANCH  28  30
ATOM     30  O   UNL     1       3.795   1.050  17.997  0.00  0.00    +0.000 OA
ATOM     31  H   UNL     1       3.875   0.242  18.540  0.00  0.00    +0.000 HD
ENDBRANCH  28  30
ENDBRANCH  25  28
ENDBRANCH  17  26
ENDBRANCH   1  19
TORSDOF 5
ENDMDL
MODEL 8
REMARK VINA RESULT:      -8.2      1.078      1.517
REMARK  Name = 
REMARK  7 active torsions:
REMARK  status: ('A' for Active; 'I' for Inactive)
REMARK    1  A    between atoms: C_1  and  C_2
REMARK    2  A    between atoms: C_5  and  C_6
REMARK    3  A    between atoms: C_6  and  O_8
REMARK    4  A    between atoms: C_9  and  C_10
REMARK    5  A    between atoms: N_12  and  C_13
REMARK    6  A    between atoms: C_16  and  C_17
REMARK    7  A    between atoms: C_22  and  C_23
REMARK                            x       y       z     vdW  Elec       q    Type
REMARK                         _______ _______ _______ _____ _____    ______ ____
ROOT
ATOM      1  C   UNL     1       2.422   6.786  19.328  0.00  0.00    +0.000 A 
ATOM      2  C   UNL     1       2.235   7.959  18.594  0.00  0.00    +0.000 A 
ATOM      3  C   UNL     1       1.491   9.027  19.113  0.00  0.00    +0.000 A 
ATOM      4  C   UNL     1       0.918   8.940  20.385  0.00  0.00    +0.000 A 
ATOM      5  C   UNL     1       1.120   7.758  21.119  0.00  0.00    +0.000 A 
ATOM      6  C   UNL     1       1.848   6.686  20.594  0.00  0.00    +0.000 A 
ENDROOT
BRANCH   4   7
ATOM      7  C   UNL     1       0.042   9.976  20.956  0.00  0.00    +0.000 A 
ATOM      8  N   UNL     1      -0.535  10.893  20.207  0.00  0.00    +0.000 NA
ATOM      9  C   UNL     1      -1.258  11.768  20.983  0.00  0.00    +0.000 A 
ATOM     10  C   UNL     1      -1.957  12.886  20.496  0.00  0.00    +0.000 A 
ATOM     11  C   UNL     1      -2.661  13.704  21.382  0.00  0.00    +0.000 A 
ATOM     12  C   UNL     1      -2.688  13.419  22.749  0.00  0.00    +0.000 A 
ATOM     13  C   UNL     1      -3.455  14.313  23.680  0.00  0.00    +0.000 C 
ATOM     14  C   UNL     1      -1.984  12.309  23.253  0.00  0.00    +0.000 A 
ATOM     15  C   UNL     1      -1.272  11.497  22.350  0.00  0.00    +0.000 A 
ATOM     16  S   UNL     1      -0.314  10.090  22.637  0.00  0.00    +0.000 S 
ENDBRANCH   4   7
BRANCH   1  19
ATOM     17  C   UNL     1       2.650   4.690  18.007  0.00  0.00    +0.000 C 
ATOM     18  O   UNL     1       1.497   4.685  17.566  0.00  0.00    +0.000 OA
ATOM     19  N   UNL     1       3.139   5.670  18.840  0.00  0.00    +0.000 N 
ATOM     20  H   UNL     1       4.128   5.639  19.096  0.00  0.00    +0.000 HD
BRANCH  17  26
ATOM     21  C   UNL     1       5.752   5.606  15.107  0.00  0.00    +0.000 C 
ATOM     22  C   UNL     1       5.387   4.911  16.387  0.00  0.00    +0.000 C 
ATOM     23  C   UNL     1       5.953   5.240  17.563  0.00  0.00    +0.000 C 
ATOM     24  C   UNL     1       5.599   4.587  18.869  0.00  0.00    +0.000 C 
ATOM     25  C   UNL     1       4.780   3.310  18.665  0.00  0.00    +0.000 C 
ATOM     26  C   UNL     1       3.630   3.549  17.660  0.00  0.00    +0.000 C 
ATOM     27  C   UNL     1       4.285   3.868  16.289  0.00  0.00    +0.000 C 
BRANCH  25  28
ATOM     28  C   UNL     1       4.342   2.691  19.973  0.00  0.00    +0.000 C 
ATOM     29  O   UNL     1       3.333   3.014  20.585  0.00  0.00    +0.000 OA
BRANCH  28  30
ATOM     30  O   UNL     1       5.144   1.701  20.414  0.00  0.00    +0.000 OA
ATOM     31  H   UNL     1       5.012   1.440  21.345  0.00  0.00    +0.000 HD
ENDBRANCH  28  30
ENDBRANCH  25  28
ENDBRANCH  17  26
ENDBRANCH   1  19
TORSDOF 5
ENDMDL
MODEL 9
REMARK VINA RESULT:      -8.2      1.539      1.834
REMARK  Name = 
REMARK  7 active torsions:
REMARK  status: ('A' for Active; 'I' for Inactive)
REMARK    1  A    between atoms: C_1  and  C_2
REMARK    2  A    between atoms: C_5  and  C_6
REMARK    3  A    between atoms: C_6  and  O_8
REMARK    4  A    between atoms: C_9  and  C_10
REMARK    5  A    between atoms: N_12  and  C_13
REMARK    6  A    between atoms: C_16  and  C_17
REMARK    7  A    between atoms: C_22  and  C_23
REMARK                            x       y       z     vdW  Elec       q    Type
REMARK                         _______ _______ _______ _____ _____    ______ ____
ROOT
ATOM      1  C   UNL     1       1.970   7.626  18.934  0.00  0.00    +0.000 A 
ATOM      2  C   UNL     1       1.656   8.785  18.220  0.00  0.00    +0.000 A 
ATOM      3  C   UNL     1       1.160   9.923  18.870  0.00  0.00    +0.000 A 
ATOM      4  C   UNL     1       0.970   9.923  20.255  0.00  0.00    +0.000 A 
ATOM      5  C   UNL     1       1.299   8.755  20.965  0.00  0.00    +0.000 A 
ATOM      6  C   UNL     1       1.777   7.614  20.314  0.00  0.00    +0.000 A 
ENDROOT
BRANCH   4   7
ATOM      7  C   UNL     1       0.360  11.042  20.993  0.00  0.00    +0.000 A 
ATOM      8  N   UNL     1      -0.656  10.866  21.811  0.00  0.00    +0.000 NA
ATOM      9  C   UNL     1      -1.070  12.068  22.335  0.00  0.00    +0.000 A 
ATOM     10  C   UNL     1      -2.159  12.234  23.208  0.00  0.00    +0.000 A 
ATOM     11  C   UNL     1      -2.484  13.506  23.679  0.00  0.00    +0.000 A 
ATOM     12  C   UNL     1      -1.733  14.622  23.300  0.00  0.00    +0.000 A 
ATOM     13  C   UNL     1      -2.101  15.980  23.822  0.00  0.00    +0.000 C 
ATOM     14  C   UNL     1      -0.646  14.474  22.417  0.00  0.00    +0.000 A 
ATOM     15  C   UNL     1      -0.333  13.185  21.944  0.00  0.00    +0.000 A 
ATOM     16  S   UNL     1       0.908  12.668  20.862  0.00  0.00    +0.000 S 
ENDBRANCH   4   7
BRANCH   1  19
ATOM     17  C   UNL     1       3.634   6.302  17.644  0.00  0.00    +0.000 C 
ATOM     18  O   UNL     1       4.448   7.218  17.498  0.00  0.00    +0.000 OA
ATOM     19  N   UNL     1       2.447   6.444  18.325  0.00  0.00    +0.000 N 
ATOM     20  H   UNL     1       1.867   5.614  18.465  0.00  0.00    +0.000 HD
BRANCH  17  26
ATOM     21  C   UNL     1       7.700   4.794  17.905  0.00  0.00    +0.000 C 
ATOM     22  C   UNL     1       6.233   4.487  17.989  0.00  0.00    +0.000 C 
ATOM     23  C   UNL     1       5.663   4.044  19.125  0.00  0.00    +0.000 C 
ATOM     24  C   UNL     1       4.196   3.747  19.259  0.00  0.00    +0.000 C 
ATOM     25  C   UNL     1       3.497   3.696  17.898  0.00  0.00    +0.000 C 
ATOM     26  C   UNL     1       3.897   4.910  17.029  0.00  0.00    +0.000 C 
ATOM     27  C   UNL     1       5.417   4.781  16.741  0.00  0.00    +0.000 C 
BRANCH  25  28
ATOM     28  C   UNL     1       2.005   3.487  18.024  0.00  0.00    +0.000 C 
ATOM     29  O   UNL     1       1.170   4.032  17.314  0.00  0.00    +0.000 OA
BRANCH  28  30
ATOM     30  O   UNL     1       1.647   2.602  18.976  0.00  0.00    +0.000 OA
ATOM     31  H   UNL     1       0.873   2.047  18.762  0.00  0.00    +0.000 HD
ENDBRANCH  28  30
ENDBRANCH  25  28
ENDBRANCH  17  26
ENDBRANCH   1  19
TORSDOF 5
ENDMDL
