MODEL 1
REMARK VINA RESULT:      -6.7      0.000      0.000
REMARK  Name = 
REMARK  18 active torsions:
REMARK  status: ('A' for Active; 'I' for Inactive)
REMARK    1  A    between atoms: C_1  and  C_2
REMARK    2  A    between atoms: C_2  and  C_3
REMARK    3  A    between atoms: C_2  and  C_4
REMARK    4  A    between atoms: C_2  and  C_25
REMARK    5  A    between atoms: C_4  and  C_5
REMARK    6  A    between atoms: C_5  and  C_6
REMARK    7  A    between atoms: C_6  and  O_7
REMARK    8  A    between atoms: O_7  and  C_8
REMARK    9  A    between atoms: C_11  and  S_12
REMARK   10  A    between atoms: S_12  and  C_14
REMARK   11  A    between atoms: C_14  and  C_15
REMARK   12  A    between atoms: C_15  and  C_16
REMARK   13  A    between atoms: C_16  and  C_17
REMARK   14  A    between atoms: C_17  and  C_18
REMARK   15  A    between atoms: C_17  and  C_19
REMARK   16  A    between atoms: C_17  and  C_20
REMARK   17  A    between atoms: C_20  and  O_22
REMARK   18  A    between atoms: C_25  and  O_27
REMARK                            x       y       z     vdW  Elec       q    Type
REMARK                         _______ _______ _______ _____ _____    ______ ____
ROOT
ATOM      1  C   UNL     1       2.412   7.368  19.133  0.00  0.00    +0.000 A 
ATOM      2  C   UNL     1       1.893   7.505  20.422  0.00  0.00    +0.000 A 
ATOM      3  C   UNL     1       1.170   8.643  20.779  0.00  0.00    +0.000 A 
ATOM      4  C   UNL     1       0.956   9.664  19.854  0.00  0.00    +0.000 A 
ATOM      5  C   UNL     1       1.486   9.541  18.565  0.00  0.00    +0.000 A 
ATOM      6  C   UNL     1       2.203   8.392  18.206  0.00  0.00    +0.000 A 
ENDROOT
BRANCH   4   7
ATOM      7  S   UNL     1      -0.002  11.097  20.388  0.00  0.00    +0.000 S 
ATOM      8  O   UNL     1       0.821  11.768  21.543  0.00  0.00    +0.000 OA
BRANCH   7   9
ATOM      9  C   UNL     1       0.176  12.156  18.912  0.00  0.00    +0.000 C 
BRANCH   9  10
ATOM     10  C   UNL     1      -1.098  12.186  18.072  0.00  0.00    +0.000 C 
BRANCH  10  11
ATOM     11  C   UNL     1      -2.092  11.098  18.499  0.00  0.00    +0.000 C 
BRANCH  11  12
ATOM     12  C   UNL     1      -3.182  10.740  17.440  0.00  0.00    +0.000 C 
ATOM     13  C   UNL     1      -2.608  10.874  16.017  0.00  0.00    +0.000 C 
ATOM     14  C   UNL     1      -3.700   9.313  17.678  0.00  0.00    +0.000 C 
BRANCH  12  15
ATOM     15  C   UNL     1      -4.350  11.728  17.601  0.00  0.00    +0.000 C 
ATOM     16  O   UNL     1      -5.167  11.976  16.726  0.00  0.00    +0.000 OA
BRANCH  15  17
ATOM     17  O   UNL     1      -4.423  12.330  18.810  0.00  0.00    +0.000 OA
ATOM     18  H   UNL     1      -4.048  13.228  18.857  0.00  0.00    +0.000 HD
ENDBRANCH  15  17
ENDBRANCH  12  15
ENDBRANCH  11  12
ENDBRANCH  10  11
ENDBRANCH   9  10
ENDBRANCH   7   9
ENDBRANCH   4   7
BRANCH   1  19
ATOM     19  O   UNL     1       3.133   6.288  18.691  0.00  0.00    +0.000 OA
BRANCH  19  20
ATOM     20  C   UNL     1       2.376   5.292  17.998  0.00  0.00    +0.000 C 
BRANCH  20  21
ATOM     21  C   UNL     1       3.323   4.349  17.267  0.00  0.00    +0.000 C 
BRANCH  21  22
ATOM     22  C   UNL     1       4.784   4.749  17.519  0.00  0.00    +0.000 C 
BRANCH  22  24
ATOM     23  C   UNL     1       5.470   4.226  15.140  0.00  0.00    +0.000 C 
ATOM     24  C   UNL     1       5.568   5.258  16.276  0.00  0.00    +0.000 C 
ATOM     25  C   UNL     1       5.010   6.618  15.830  0.00  0.00    +0.000 C 
BRANCH  24  26
ATOM     26  C   UNL     1       7.044   5.429  16.671  0.00  0.00    +0.000 C 
ATOM     27  O   UNL     1       7.658   6.488  16.607  0.00  0.00    +0.000 OA
BRANCH  26  28
ATOM     28  O   UNL     1       7.642   4.304  17.127  0.00  0.00    +0.000 OA
ATOM     29  H   UNL     1       8.483   4.443  17.599  0.00  0.00    +0.000 HD
ENDBRANCH  26  28
ENDBRANCH  24  26
ENDBRANCH  22  24
ENDBRANCH  21  22
ENDBRANCH  20  21
ENDBRANCH  19  20
ENDBRANCH   1  19
TORSDOF 14
ENDMDL
MODEL 2
REMARK VINA RESULT:      -6.6      2.558      9.595
REMARK  Name = 
REMARK  18 active torsions:
REMARK  status: ('A' for Active; 'I' for Inactive)
REMARK    1  A    between atoms: C_1  and  C_2
REMARK    2  A    between atoms: C_2  and  C_3
REMARK    3  A    between atoms: C_2  and  C_4
REMARK    4  A    between atoms: C_2  and  C_25
REMARK    5  A    between atoms: C_4  and  C_5
REMARK    6  A    between atoms: C_5  and  C_6
REMARK    7  A    between atoms: C_6  and  O_7
REMARK    8  A    between atoms: O_7  and  C_8
REMARK    9  A    between atoms: C_11  and  S_12
REMARK   10  A    between atoms: S_12  and  C_14
REMARK   11  A    between atoms: C_14  and  C_15
REMARK   12  A    between atoms: C_15  and  C_16
REMARK   13  A    between atoms: C_16  and  C_17
REMARK   14  A    between atoms: C_17  and  C_18
REMARK   15  A    between atoms: C_17  and  C_19
REMARK   16  A    between atoms: C_17  and  C_20
REMARK   17  A    between atoms: C_20  and  O_22
REMARK   18  A    between atoms: C_25  and  O_27
REMARK                            x       y       z     vdW  Elec       q    Type
REMARK                         _______ _______ _______ _____ _____    ______ ____
ROOT
ATOM      1  C   UNL     1       1.161   9.907  19.123  0.00  0.00    +0.000 A 
ATOM      2  C   UNL     1       1.813   9.273  18.063  0.00  0.00    +0.000 A 
ATOM      3  C   UNL     1       2.363   8.002  18.227  0.00  0.00    +0.000 A 
ATOM      4  C   UNL     1       2.273   7.345  19.454  0.00  0.00    +0.000 A 
ATOM      5  C   UNL     1       1.635   7.980  20.524  0.00  0.00    +0.000 A 
ATOM      6  C   UNL     1       1.074   9.253  20.354  0.00  0.00    +0.000 A 
ENDROOT
BRANCH   4   7
ATOM      7  S   UNL     1       2.996   5.697  19.581  0.00  0.00    +0.000 S 
ATOM      8  O   UNL     1       1.932   4.807  20.315  0.00  0.00    +0.000 OA
BRANCH   7   9
ATOM      9  C   UNL     1       2.980   5.215  17.820  0.00  0.00    +0.000 C 
BRANCH   9  10
ATOM     10  C   UNL     1       4.389   4.993  17.275  0.00  0.00    +0.000 C 
BRANCH  10  11
ATOM     11  C   UNL     1       5.459   5.188  18.357  0.00  0.00    +0.000 C 
BRANCH  11  12
ATOM     12  C   UNL     1       6.745   5.939  17.892  0.00  0.00    +0.000 C 
ATOM     13  C   UNL     1       6.389   7.352  17.395  0.00  0.00    +0.000 C 
ATOM     14  C   UNL     1       7.759   6.016  19.046  0.00  0.00    +0.000 C 
BRANCH  12  15
ATOM     15  C   UNL     1       7.372   5.147  16.731  0.00  0.00    +0.000 C 
ATOM     16  O   UNL     1       7.267   5.454  15.553  0.00  0.00    +0.000 OA
BRANCH  15  17
ATOM     17  O   UNL     1       8.067   4.048  17.103  0.00  0.00    +0.000 OA
ATOM     18  H   UNL     1       7.533   3.296  17.415  0.00  0.00    +0.000 HD
ENDBRANCH  15  17
ENDBRANCH  12  15
ENDBRANCH  11  12
ENDBRANCH  10  11
ENDBRANCH   9  10
ENDBRANCH   7   9
ENDBRANCH   4   7
BRANCH   1  19
ATOM     19  O   UNL     1       0.590  11.153  19.056  0.00  0.00    +0.000 OA
BRANCH  19  20
ATOM     20  C   UNL     1      -0.731  11.189  18.509  0.00  0.00    +0.000 C 
BRANCH  20  21
ATOM     21  C   UNL     1      -1.745  11.347  19.636  0.00  0.00    +0.000 C 
BRANCH  21  22
ATOM     22  C   UNL     1      -1.785  12.802  20.126  0.00  0.00    +0.000 C 
BRANCH  22  24
ATOM     23  C   UNL     1      -1.501  14.493  21.986  0.00  0.00    +0.000 C 
ATOM     24  C   UNL     1      -1.664  12.999  21.664  0.00  0.00    +0.000 C 
ATOM     25  C   UNL     1      -2.906  12.421  22.361  0.00  0.00    +0.000 C 
BRANCH  24  26
ATOM     26  C   UNL     1      -0.420  12.241  22.153  0.00  0.00    +0.000 C 
ATOM     27  O   UNL     1      -0.447  11.302  22.939  0.00  0.00    +0.000 OA
BRANCH  26  28
ATOM     28  O   UNL     1       0.750  12.678  21.630  0.00  0.00    +0.000 OA
ATOM     29  H   UNL     1       1.496  12.055  21.703  0.00  0.00    +0.000 HD
ENDBRANCH  26  28
ENDBRANCH  24  26
ENDBRANCH  22  24
ENDBRANCH  21  22
ENDBRANCH  20  21
ENDBRANCH  19  20
ENDBRANCH   1  19
TORSDOF 14
ENDMDL
MODEL 3
REMARK VINA RESULT:      -6.6      6.464      9.094
REMARK  Name = 
REMARK  18 active torsions:
REMARK  status: ('A' for Active; 'I' for Inactive)
REMARK    1  A    between atoms: C_1  and  C_2
REMARK    2  A    between atoms: C_2  and  C_3
REMARK    3  A    between atoms: C_2  and  C_4
REMARK    4  A    between atoms: C_2  and  C_25
REMARK    5  A    between atoms: C_4  and  C_5
REMARK    6  A    between atoms: C_5  and  C_6
REMARK    7  A    between atoms: C_6  and  O_7
REMARK    8  A    between atoms: O_7  and  C_8
REMARK    9  A    between atoms: C_11  and  S_12
REMARK   10  A    between atoms: S_12  and  C_14
REMARK   11  A    between atoms: C_14  and  C_15
REMARK   12  A    between atoms: C_15  and  C_16
REMARK   13  A    between atoms: C_16  and  C_17
REMARK   14  A    between atoms: C_17  and  C_18
REMARK   15  A    between atoms: C_17  and  C_19
REMARK   16  A    between atoms: C_17  and  C_20
REMARK   17  A    between atoms: C_20  and  O_22
REMARK   18  A    between atoms: C_25  and  O_27
REMARK                            x       y       z     vdW  Elec       q    Type
REMARK                         _______ _______ _______ _____ _____    ______ ____
ROOT
ATOM      1  C   UNL     1       7.811   7.327  18.105  0.00  0.00    +0.000 A 
ATOM      2  C   UNL     1       6.900   7.749  17.134  0.00  0.00    +0.000 A 
ATOM      3  C   UNL     1       6.102   6.824  16.461  0.00  0.00    +0.000 A 
ATOM      4  C   UNL     1       6.203   5.462  16.746  0.00  0.00    +0.000 A 
ATOM      5  C   UNL     1       7.124   5.031  17.706  0.00  0.00    +0.000 A 
ATOM      6  C   UNL     1       7.917   5.963  18.388  0.00  0.00    +0.000 A 
ENDROOT
BRANCH   4   7
ATOM      7  S   UNL     1       5.124   4.331  15.844  0.00  0.00    +0.000 S 
ATOM      8  O   UNL     1       6.066   3.269  15.175  0.00  0.00    +0.000 OA
BRANCH   7   9
ATOM      9  C   UNL     1       4.294   3.510  17.247  0.00  0.00    +0.000 C 
BRANCH   9  10
ATOM     10  C   UNL     1       2.989   4.206  17.626  0.00  0.00    +0.000 C 
BRANCH  10  11
ATOM     11  C   UNL     1       2.903   4.480  19.133  0.00  0.00    +0.000 C 
BRANCH  11  12
ATOM     12  C   UNL     1       2.485   3.257  20.009  0.00  0.00    +0.000 C 
ATOM     13  C   UNL     1       3.722   2.420  20.383  0.00  0.00    +0.000 C 
ATOM     14  C   UNL     1       1.759   3.738  21.275  0.00  0.00    +0.000 C 
BRANCH  12  15
ATOM     15  C   UNL     1       1.523   2.383  19.185  0.00  0.00    +0.000 C 
ATOM     16  O   UNL     1       0.337   2.631  19.023  0.00  0.00    +0.000 OA
BRANCH  15  17
ATOM     17  O   UNL     1       2.085   1.284  18.633  0.00  0.00    +0.000 OA
ATOM     18  H   UNL     1       2.970   1.410  18.247  0.00  0.00    +0.000 HD
ENDBRANCH  15  17
ENDBRANCH  12  15
ENDBRANCH  11  12
ENDBRANCH  10  11
ENDBRANCH   9  10
ENDBRANCH   7   9
ENDBRANCH   4   7
BRANCH   1  19
ATOM     19  O   UNL     1       8.636   8.160  18.817  0.00  0.00    +0.000 OA
BRANCH  19  20
ATOM     20  C   UNL     1       8.609   9.533  18.415  0.00  0.00    +0.000 C 
BRANCH  20  21
ATOM     21  C   UNL     1       9.408  10.370  19.405  0.00  0.00    +0.000 C 
BRANCH  21  22
ATOM     22  C   UNL     1       9.298  11.863  19.063  0.00  0.00    +0.000 C 
BRANCH  22  24
ATOM     23  C   UNL     1      10.768  13.708  19.979  0.00  0.00    +0.000 C 
ATOM     24  C   UNL     1      10.646  12.619  18.900  0.00  0.00    +0.000 C 
ATOM     25  C   UNL     1      11.814  11.625  18.992  0.00  0.00    +0.000 C 
BRANCH  24  26
ATOM     26  C   UNL     1      10.664  13.283  17.514  0.00  0.00    +0.000 C 
ATOM     27  O   UNL     1      11.487  13.037  16.640  0.00  0.00    +0.000 OA
BRANCH  26  28
ATOM     28  O   UNL     1       9.670  14.176  17.301  0.00  0.00    +0.000 OA
ATOM     29  H   UNL     1       9.681  14.610  16.429  0.00  0.00    +0.000 HD
ENDBRANCH  26  28
ENDBRANCH  24  26
ENDBRANCH  22  24
ENDBRANCH  21  22
ENDBRANCH  20  21
ENDBRANCH  19  20
ENDBRANCH   1  19
TORSDOF 14
ENDMDL
MODEL 4
REMARK VINA RESULT:      -6.6      3.168      3.809
REMARK  Name = 
REMARK  18 active torsions:
REMARK  status: ('A' for Active; 'I' for Inactive)
REMARK    1  A    between atoms: C_1  and  C_2
REMARK    2  A    between atoms: C_2  and  C_3
REMARK    3  A    between atoms: C_2  and  C_4
REMARK    4  A    between atoms: C_2  and  C_25
REMARK    5  A    between atoms: C_4  and  C_5
REMARK    6  A    between atoms: C_5  and  C_6
REMARK    7  A    between atoms: C_6  and  O_7
REMARK    8  A    between atoms: O_7  and  C_8
REMARK    9  A    between atoms: C_11  and  S_12
REMARK   10  A    between atoms: S_12  and  C_14
REMARK   11  A    between atoms: C_14  and  C_15
REMARK   12  A    between atoms: C_15  and  C_16
REMARK   13  A    between atoms: C_16  and  C_17
REMARK   14  A    between atoms: C_17  and  C_18
REMARK   15  A    between atoms: C_17  and  C_19
REMARK   16  A    between atoms: C_17  and  C_20
REMARK   17  A    between atoms: C_20  and  O_22
REMARK   18  A    between atoms: C_25  and  O_27
REMARK                            x       y       z     vdW  Elec       q    Type
REMARK                         _______ _______ _______ _____ _____    ______ ____
ROOT
ATOM      1  C   UNL     1       1.889   8.425  18.947  0.00  0.00    +0.000 A 
ATOM      2  C   UNL     1       1.928   7.714  20.149  0.00  0.00    +0.000 A 
ATOM      3  C   UNL     1       1.208   8.157  21.259  0.00  0.00    +0.000 A 
ATOM      4  C   UNL     1       0.440   9.319  21.186  0.00  0.00    +0.000 A 
ATOM      5  C   UNL     1       0.408  10.044  19.991  0.00  0.00    +0.000 A 
ATOM      6  C   UNL     1       1.125   9.591  18.874  0.00  0.00    +0.000 A 
ENDROOT
BRANCH   4   7
ATOM      7  S   UNL     1      -0.475   9.817  22.659  0.00  0.00    +0.000 S 
ATOM      8  O   UNL     1       0.522   9.676  23.862  0.00  0.00    +0.000 OA
BRANCH   7   9
ATOM      9  C   UNL     1      -0.663  11.601  22.320  0.00  0.00    +0.000 C 
BRANCH   9  10
ATOM     10  C   UNL     1      -1.702  12.251  23.229  0.00  0.00    +0.000 C 
BRANCH  10  11
ATOM     11  C   UNL     1      -3.046  12.447  22.515  0.00  0.00    +0.000 C 
BRANCH  11  12
ATOM     12  C   UNL     1      -4.137  13.194  23.345  0.00  0.00    +0.000 C 
ATOM     13  C   UNL     1      -4.397  12.457  24.671  0.00  0.00    +0.000 C 
ATOM     14  C   UNL     1      -3.696  14.642  23.613  0.00  0.00    +0.000 C 
BRANCH  12  15
ATOM     15  C   UNL     1      -5.436  13.214  22.522  0.00  0.00    +0.000 C 
ATOM     16  O   UNL     1      -6.206  14.163  22.474  0.00  0.00    +0.000 OA
BRANCH  15  17
ATOM     17  O   UNL     1      -5.690  12.078  21.832  0.00  0.00    +0.000 OA
ATOM     18  H   UNL     1      -6.308  12.168  21.085  0.00  0.00    +0.000 HD
ENDBRANCH  15  17
ENDBRANCH  12  15
ENDBRANCH  11  12
ENDBRANCH  10  11
ENDBRANCH   9  10
ENDBRANCH   7   9
ENDBRANCH   4   7
BRANCH   1  19
ATOM     19  O   UNL     1       2.562   8.067  17.807  0.00  0.00    +0.000 OA
BRANCH  19  20
ATOM     20  C   UNL     1       3.316   6.856  17.899  0.00  0.00    +0.000 C 
BRANCH  20  21
ATOM     21  C   UNL     1       4.536   6.944  16.989  0.00  0.00    +0.000 C 
BRANCH  21  22
ATOM     22  C   UNL     1       5.151   5.553  16.775  0.00  0.00    +0.000 C 
BRANCH  22  24
ATOM     23  C   UNL     1       7.121   5.075  15.262  0.00  0.00    +0.000 C 
ATOM     24  C   UNL     1       6.702   5.510  16.676  0.00  0.00    +0.000 C 
ATOM     25  C   UNL     1       7.284   6.891  17.018  0.00  0.00    +0.000 C 
BRANCH  24  26
ATOM     26  C   UNL     1       7.224   4.483  17.693  0.00  0.00    +0.000 C 
ATOM     27  O   UNL     1       8.388   4.102  17.756  0.00  0.00    +0.000 OA
BRANCH  26  28
ATOM     28  O   UNL     1       6.293   4.019  18.557  0.00  0.00    +0.000 OA
ATOM     29  H   UNL     1       6.436   4.259  19.490  0.00  0.00    +0.000 HD
ENDBRANCH  26  28
ENDBRANCH  24  26
ENDBRANCH  22  24
ENDBRANCH  21  22
ENDBRANCH  20  21
ENDBRANCH  19  20
ENDBRANCH   1  19
TORSDOF 14
ENDMDL
MODEL 5
REMARK VINA RESULT:      -6.4      5.094      9.130
REMARK  Name = 
REMARK  18 active torsions:
REMARK  status: ('A' for Active; 'I' for Inactive)
REMARK    1  A    between atoms: C_1  and  C_2
REMARK    2  A    between atoms: C_2  and  C_3
REMARK    3  A    between atoms: C_2  and  C_4
REMARK    4  A    between atoms: C_2  and  C_25
REMARK    5  A    between atoms: C_4  and  C_5
REMARK    6  A    between atoms: C_5  and  C_6
REMARK    7  A    between atoms: C_6  and  O_7
REMARK    8  A    between atoms: O_7  and  C_8
REMARK    9  A    between atoms: C_11  and  S_12
REMARK   10  A    between atoms: S_12  and  C_14
REMARK   11  A    between atoms: C_14  and  C_15
REMARK   12  A    between atoms: C_15  and  C_16
REMARK   13  A    between atoms: C_16  and  C_17
REMARK   14  A    between atoms: C_17  and  C_18
REMARK   15  A    between atoms: C_17  and  C_19
REMARK   16  A    between atoms: C_17  and  C_20
REMARK   17  A    between atoms: C_20  and  O_22
REMARK   18  A    between atoms: C_25  and  O_27
REMARK                            x       y       z     vdW  Elec       q    Type
REMARK                         _______ _______ _______ _____ _____    ______ ____
ROOT
ATOM      1  C   UNL     1       3.279   6.640  19.024  0.00  0.00    +0.000 A 
ATOM      2  C   UNL     1       4.227   5.734  19.505  0.00  0.00    +0.000 A 
ATOM      3  C   UNL     1       5.348   5.408  18.742  0.00  0.00    +0.000 A 
ATOM      4  C   UNL     1       5.538   5.979  17.483  0.00  0.00    +0.000 A 
ATOM      5  C   UNL     1       4.585   6.875  16.988  0.00  0.00    +0.000 A 
ATOM      6  C   UNL     1       3.465   7.210  17.763  0.00  0.00    +0.000 A 
ENDROOT
BRANCH   4   7
ATOM      7  S   UNL     1       7.020   5.517  16.564  0.00  0.00    +0.000 S 
ATOM      8  O   UNL     1       8.087   5.098  17.636  0.00  0.00    +0.000 OA
BRANCH   7   9
ATOM      9  C   UNL     1       6.426   3.986  15.767  0.00  0.00    +0.000 C 
BRANCH   9  10
ATOM     10  C   UNL     1       5.763   4.263  14.420  0.00  0.00    +0.000 C 
BRANCH  10  11
ATOM     11  C   UNL     1       5.702   3.005  13.543  0.00  0.00    +0.000 C 
BRANCH  11  12
ATOM     12  C   UNL     1       5.944   3.246  12.019  0.00  0.00    +0.000 C 
ATOM     13  C   UNL     1       4.612   3.544  11.307  0.00  0.00    +0.000 C 
ATOM     14  C   UNL     1       6.932   4.406  11.818  0.00  0.00    +0.000 C 
BRANCH  12  15
ATOM     15  C   UNL     1       6.552   1.965  11.421  0.00  0.00    +0.000 C 
ATOM     16  O   UNL     1       7.667   1.900  10.925  0.00  0.00    +0.000 OA
BRANCH  15  17
ATOM     17  O   UNL     1       5.751   0.876  11.476  0.00  0.00    +0.000 OA
ATOM     18  H   UNL     1       5.010   0.866  10.845  0.00  0.00    +0.000 HD
ENDBRANCH  15  17
ENDBRANCH  12  15
ENDBRANCH  11  12
ENDBRANCH  10  11
ENDBRANCH   9  10
ENDBRANCH   7   9
ENDBRANCH   4   7
BRANCH   1  19
ATOM     19  O   UNL     1       2.149   7.022  19.702  0.00  0.00    +0.000 OA
BRANCH  19  20
ATOM     20  C   UNL     1       1.791   6.187  20.807  0.00  0.00    +0.000 C 
BRANCH  20  21
ATOM     21  C   UNL     1       0.822   5.109  20.338  0.00  0.00    +0.000 C 
BRANCH  21  22
ATOM     22  C   UNL     1       1.483   3.724  20.401  0.00  0.00    +0.000 C 
BRANCH  22  24
ATOM     23  C   UNL     1       0.656   1.841  18.927  0.00  0.00    +0.000 C 
ATOM     24  C   UNL     1       1.662   3.000  19.037  0.00  0.00    +0.000 C 
ATOM     25  C   UNL     1       1.470   4.001  17.888  0.00  0.00    +0.000 C 
BRANCH  24  26
ATOM     26  C   UNL     1       3.089   2.433  18.973  0.00  0.00    +0.000 C 
ATOM     27  O   UNL     1       3.799   2.237  19.952  0.00  0.00    +0.000 OA
BRANCH  26  28
ATOM     28  O   UNL     1       3.525   2.136  17.727  0.00  0.00    +0.000 OA
ATOM     29  H   UNL     1       3.618   2.898  17.127  0.00  0.00    +0.000 HD
ENDBRANCH  26  28
ENDBRANCH  24  26
ENDBRANCH  22  24
ENDBRANCH  21  22
ENDBRANCH  20  21
ENDBRANCH  19  20
ENDBRANCH   1  19
TORSDOF 14
ENDMDL
MODEL 6
REMARK VINA RESULT:      -6.4      2.069      9.251
REMARK  Name = 
REMARK  18 active torsions:
REMARK  status: ('A' for Active; 'I' for Inactive)
REMARK    1  A    between atoms: C_1  and  C_2
REMARK    2  A    between atoms: C_2  and  C_3
REMARK    3  A    between atoms: C_2  and  C_4
REMARK    4  A    between atoms: C_2  and  C_25
REMARK    5  A    between atoms: C_4  and  C_5
REMARK    6  A    between atoms: C_5  and  C_6
REMARK    7  A    between atoms: C_6  and  O_7
REMARK    8  A    between atoms: O_7  and  C_8
REMARK    9  A    between atoms: C_11  and  S_12
REMARK   10  A    between atoms: S_12  and  C_14
REMARK   11  A    between atoms: C_14  and  C_15
REMARK   12  A    between atoms: C_15  and  C_16
REMARK   13  A    between atoms: C_16  and  C_17
REMARK   14  A    between atoms: C_17  and  C_18
REMARK   15  A    between atoms: C_17  and  C_19
REMARK   16  A    between atoms: C_17  and  C_20
REMARK   17  A    between atoms: C_20  and  O_22
REMARK   18  A    between atoms: C_25  and  O_27
REMARK                            x       y       z     vdW  Elec       q    Type
REMARK                         _______ _______ _______ _____ _____    ______ ____
ROOT
ATOM      1  C   UNL     1       1.293   9.181  19.771  0.00  0.00    +0.000 A 
ATOM      2  C   UNL     1       1.045   8.516  20.974  0.00  0.00    +0.000 A 
ATOM      3  C   UNL     1       1.405   7.178  21.132  0.00  0.00    +0.000 A 
ATOM      4  C   UNL     1       2.016   6.482  20.090  0.00  0.00    +0.000 A 
ATOM      5  C   UNL     1       2.254   7.136  18.877  0.00  0.00    +0.000 A 
ATOM      6  C   UNL     1       1.901   8.484  18.725  0.00  0.00    +0.000 A 
ENDROOT
BRANCH   4   7
ATOM      7  S   UNL     1       2.465   4.758  20.378  0.00  0.00    +0.000 S 
ATOM      8  O   UNL     1       1.189   3.910  20.037  0.00  0.00    +0.000 OA
BRANCH   7   9
ATOM      9  C   UNL     1       3.655   4.516  19.015  0.00  0.00    +0.000 C 
BRANCH   9  10
ATOM     10  C   UNL     1       5.002   5.171  19.307  0.00  0.00    +0.000 C 
BRANCH  10  11
ATOM     11  C   UNL     1       6.054   4.816  18.248  0.00  0.00    +0.000 C 
BRANCH  11  12
ATOM     12  C   UNL     1       6.408   5.965  17.252  0.00  0.00    +0.000 C 
ATOM     13  C   UNL     1       5.146   6.770  16.893  0.00  0.00    +0.000 C 
ATOM     14  C   UNL     1       7.476   6.885  17.867  0.00  0.00    +0.000 C 
BRANCH  12  15
ATOM     15  C   UNL     1       6.976   5.331  15.970  0.00  0.00    +0.000 C 
ATOM     16  O   UNL     1       7.864   4.491  15.953  0.00  0.00    +0.000 OA
BRANCH  15  17
ATOM     17  O   UNL     1       6.418   5.775  14.821  0.00  0.00    +0.000 OA
ATOM     18  H   UNL     1       6.237   5.094  14.149  0.00  0.00    +0.000 HD
ENDBRANCH  15  17
ENDBRANCH  12  15
ENDBRANCH  11  12
ENDBRANCH  10  11
ENDBRANCH   9  10
ENDBRANCH   7   9
ENDBRANCH   4   7
BRANCH   1  19
ATOM     19  O   UNL     1       0.976  10.493  19.524  0.00  0.00    +0.000 OA
BRANCH  19  20
ATOM     20  C   UNL     1      -0.423  10.792  19.530  0.00  0.00    +0.000 C 
BRANCH  20  21
ATOM     21  C   UNL     1      -1.024  10.444  18.174  0.00  0.00    +0.000 C 
BRANCH  21  22
ATOM     22  C   UNL     1      -2.162  11.414  17.823  0.00  0.00    +0.000 C 
BRANCH  22  24
ATOM     23  C   UNL     1      -3.637   9.359  17.866  0.00  0.00    +0.000 C 
ATOM     24  C   UNL     1      -3.456  10.760  17.260  0.00  0.00    +0.000 C 
ATOM     25  C   UNL     1      -4.667  11.652  17.572  0.00  0.00    +0.000 C 
BRANCH  24  26
ATOM     26  C   UNL     1      -3.310  10.632  15.735  0.00  0.00    +0.000 C 
ATOM     27  O   UNL     1      -3.070   9.583  15.149  0.00  0.00    +0.000 OA
BRANCH  26  28
ATOM     28  O   UNL     1      -3.484  11.787  15.051  0.00  0.00    +0.000 OA
ATOM     29  H   UNL     1      -3.185  11.770  14.124  0.00  0.00    +0.000 HD
ENDBRANCH  26  28
ENDBRANCH  24  26
ENDBRANCH  22  24
ENDBRANCH  21  22
ENDBRANCH  20  21
ENDBRANCH  19  20
ENDBRANCH   1  19
TORSDOF 14
ENDMDL
MODEL 7
REMARK VINA RESULT:      -6.4      2.536      9.182
REMARK  Name = 
REMARK  18 active torsions:
REMARK  status: ('A' for Active; 'I' for Inactive)
REMARK    1  A    between atoms: C_1  and  C_2
REMARK    2  A    between atoms: C_2  and  C_3
REMARK    3  A    between atoms: C_2  and  C_4
REMARK    4  A    between atoms: C_2  and  C_25
REMARK    5  A    between atoms: C_4  and  C_5
REMARK    6  A    between atoms: C_5  and  C_6
REMARK    7  A    between atoms: C_6  and  O_7
REMARK    8  A    between atoms: O_7  and  C_8
REMARK    9  A    between atoms: C_11  and  S_12
REMARK   10  A    between atoms: S_12  and  C_14
REMARK   11  A    between atoms: C_14  and  C_15
REMARK   12  A    between atoms: C_15  and  C_16
REMARK   13  A    between atoms: C_16  and  C_17
REMARK   14  A    between atoms: C_17  and  C_18
REMARK   15  A    between atoms: C_17  and  C_19
REMARK   16  A    between atoms: C_17  and  C_20
REMARK   17  A    between atoms: C_20  and  O_22
REMARK   18  A    between atoms: C_25  and  O_27
REMARK                            x       y       z     vdW  Elec       q    Type
REMARK                         _______ _______ _______ _____ _____    ______ ____
ROOT
ATOM      1  C   UNL     1       1.813   8.169  19.533  0.00  0.00    +0.000 A 
ATOM      2  C   UNL     1       2.125   7.632  18.282  0.00  0.00    +0.000 A 
ATOM      3  C   UNL     1       2.323   6.259  18.129  0.00  0.00    +0.000 A 
ATOM      4  C   UNL     1       2.216   5.402  19.224  0.00  0.00    +0.000 A 
ATOM      5  C   UNL     1       1.919   5.935  20.482  0.00  0.00    +0.000 A 
ATOM      6  C   UNL     1       1.711   7.313  20.632  0.00  0.00    +0.000 A 
ENDROOT
BRANCH   4   7
ATOM      7  S   UNL     1       2.470   3.639  18.940  0.00  0.00    +0.000 S 
ATOM      8  O   UNL     1       1.040   3.004  18.816  0.00  0.00    +0.000 OA
BRANCH   7   9
ATOM      9  C   UNL     1       3.184   3.695  17.261  0.00  0.00    +0.000 C 
BRANCH   9  10
ATOM     10  C   UNL     1       4.705   3.565  17.280  0.00  0.00    +0.000 C 
BRANCH  10  11
ATOM     11  C   UNL     1       5.377   4.800  17.894  0.00  0.00    +0.000 C 
BRANCH  11  12
ATOM     12  C   UNL     1       6.216   5.663  16.899  0.00  0.00    +0.000 C 
ATOM     13  C   UNL     1       5.307   6.253  15.806  0.00  0.00    +0.000 C 
ATOM     14  C   UNL     1       6.942   6.786  17.658  0.00  0.00    +0.000 C 
BRANCH  12  15
ATOM     15  C   UNL     1       7.263   4.752  16.238  0.00  0.00    +0.000 C 
ATOM     16  O   UNL     1       7.355   4.570  15.032  0.00  0.00    +0.000 OA
BRANCH  15  17
ATOM     17  O   UNL     1       8.107   4.137  17.098  0.00  0.00    +0.000 OA
ATOM     18  H   UNL     1       9.032   4.442  17.073  0.00  0.00    +0.000 HD
ENDBRANCH  15  17
ENDBRANCH  12  15
ENDBRANCH  11  12
ENDBRANCH  10  11
ENDBRANCH   9  10
ENDBRANCH   7   9
ENDBRANCH   4   7
BRANCH   1  19
ATOM     19  O   UNL     1       1.602   9.502  19.780  0.00  0.00    +0.000 OA
BRANCH  19  20
ATOM     20  C   UNL     1       0.849   9.790  20.961  0.00  0.00    +0.000 C 
BRANCH  20  21
ATOM     21  C   UNL     1      -0.638   9.810  20.625  0.00  0.00    +0.000 C 
BRANCH  21  22
ATOM     22  C   UNL     1      -0.858  10.267  19.176  0.00  0.00    +0.000 C 
BRANCH  22  24
ATOM     23  C   UNL     1      -2.591  11.674  17.985  0.00  0.00    +0.000 C 
ATOM     24  C   UNL     1      -1.438  11.699  19.001  0.00  0.00    +0.000 C 
ATOM     25  C   UNL     1      -1.916  12.235  20.359  0.00  0.00    +0.000 C 
BRANCH  24  26
ATOM     26  C   UNL     1      -0.321  12.611  18.469  0.00  0.00    +0.000 C 
ATOM     27  O   UNL     1      -0.433  13.821  18.312  0.00  0.00    +0.000 OA
BRANCH  26  28
ATOM     28  O   UNL     1       0.842  11.978  18.190  0.00  0.00    +0.000 OA
ATOM     29  H   UNL     1       0.972  11.128  18.647  0.00  0.00    +0.000 HD
ENDBRANCH  26  28
ENDBRANCH  24  26
ENDBRANCH  22  24
ENDBRANCH  21  22
ENDBRANCH  20  21
ENDBRANCH  19  20
ENDBRANCH   1  19
TORSDOF 14
ENDMDL
MODEL 8
REMARK VINA RESULT:      -6.4      3.189      8.986
REMARK  Name = 
REMARK  18 active torsions:
REMARK  status: ('A' for Active; 'I' for Inactive)
REMARK    1  A    between atoms: C_1  and  C_2
REMARK    2  A    between atoms: C_2  and  C_3
REMARK    3  A    between atoms: C_2  and  C_4
REMARK    4  A    between atoms: C_2  and  C_25
REMARK    5  A    between atoms: C_4  and  C_5
REMARK    6  A    between atoms: C_5  and  C_6
REMARK    7  A    between atoms: C_6  and  O_7
REMARK    8  A    between atoms: O_7  and  C_8
REMARK    9  A    between atoms: C_11  and  S_12
REMARK   10  A    between atoms: S_12  and  C_14
REMARK   11  A    between atoms: C_14  and  C_15
REMARK   12  A    between atoms: C_15  and  C_16
REMARK   13  A    between atoms: C_16  and  C_17
REMARK   14  A    between atoms: C_17  and  C_18
REMARK   15  A    between atoms: C_17  and  C_19
REMARK   16  A    between atoms: C_17  and  C_20
REMARK   17  A    between atoms: C_20  and  O_22
REMARK   18  A    between atoms: C_25  and  O_27
REMARK                            x       y       z     vdW  Elec       q    Type
REMARK                         _______ _______ _______ _____ _____    ______ ____
ROOT
ATOM      1  C   UNL     1       1.708   8.796  19.104  0.00  0.00    +0.000 A 
ATOM      2  C   UNL     1       1.554   8.157  20.336  0.00  0.00    +0.000 A 
ATOM      3  C   UNL     1       1.905   6.815  20.487  0.00  0.00    +0.000 A 
ATOM      4  C   UNL     1       2.412   6.090  19.408  0.00  0.00    +0.000 A 
ATOM      5  C   UNL     1       2.554   6.720  18.168  0.00  0.00    +0.000 A 
ATOM      6  C   UNL     1       2.211   8.071  18.021  0.00  0.00    +0.000 A 
ENDROOT
BRANCH   4   7
ATOM      7  S   UNL     1       2.857   4.364  19.689  0.00  0.00    +0.000 S 
ATOM      8  O   UNL     1       1.762   3.506  18.964  0.00  0.00    +0.000 OA
BRANCH   7   9
ATOM      9  C   UNL     1       4.375   4.268  18.679  0.00  0.00    +0.000 C 
BRANCH   9  10
ATOM     10  C   UNL     1       4.065   4.130  17.191  0.00  0.00    +0.000 C 
BRANCH  10  11
ATOM     11  C   UNL     1       5.322   3.814  16.370  0.00  0.00    +0.000 C 
BRANCH  11  12
ATOM     12  C   UNL     1       6.131   5.060  15.889  0.00  0.00    +0.000 C 
ATOM     13  C   UNL     1       5.192   6.264  15.692  0.00  0.00    +0.000 C 
ATOM     14  C   UNL     1       7.233   5.398  16.905  0.00  0.00    +0.000 C 
BRANCH  12  15
ATOM     15  C   UNL     1       6.787   4.715  14.541  0.00  0.00    +0.000 C 
ATOM     16  O   UNL     1       6.401   3.827  13.794  0.00  0.00    +0.000 OA
BRANCH  15  17
ATOM     17  O   UNL     1       7.857   5.476  14.218  0.00  0.00    +0.000 OA
ATOM     18  H   UNL     1       8.177   5.388  13.302  0.00  0.00    +0.000 HD
ENDBRANCH  15  17
ENDBRANCH  12  15
ENDBRANCH  11  12
ENDBRANCH  10  11
ENDBRANCH   9  10
ENDBRANCH   7   9
ENDBRANCH   4   7
BRANCH   1  19
ATOM     19  O   UNL     1       1.391  10.109  18.860  0.00  0.00    +0.000 OA
BRANCH  19  20
ATOM     20  C   UNL     1       0.036  10.470  19.141  0.00  0.00    +0.000 C 
BRANCH  20  21
ATOM     21  C   UNL     1       0.012  11.736  19.988  0.00  0.00    +0.000 C 
BRANCH  21  22
ATOM     22  C   UNL     1       1.424  12.325  20.120  0.00  0.00    +0.000 C 
BRANCH  22  24
ATOM     23  C   UNL     1       0.348  14.161  18.751  0.00  0.00    +0.000 C 
ATOM     24  C   UNL     1       1.657  13.685  19.402  0.00  0.00    +0.000 C 
ATOM     25  C   UNL     1       2.176  14.723  20.410  0.00  0.00    +0.000 C 
BRANCH  24  26
ATOM     26  C   UNL     1       2.716  13.480  18.307  0.00  0.00    +0.000 C 
ATOM     27  O   UNL     1       3.701  14.192  18.157  0.00  0.00    +0.000 OA
BRANCH  26  28
ATOM     28  O   UNL     1       2.496  12.416  17.500  0.00  0.00    +0.000 OA
ATOM     29  H   UNL     1       3.296  12.011  17.120  0.00  0.00    +0.000 HD
ENDBRANCH  26  28
ENDBRANCH  24  26
ENDBRANCH  22  24
ENDBRANCH  21  22
ENDBRANCH  20  21
ENDBRANCH  19  20
ENDBRANCH   1  19
TORSDOF 14
ENDMDL
MODEL 9
REMARK VINA RESULT:      -6.4      2.546      9.400
REMARK  Name = 
REMARK  18 active torsions:
REMARK  status: ('A' for Active; 'I' for Inactive)
REMARK    1  A    between atoms: C_1  and  C_2
REMARK    2  A    between atoms: C_2  and  C_3
REMARK    3  A    between atoms: C_2  and  C_4
REMARK    4  A    between atoms: C_2  and  C_25
REMARK    5  A    between atoms: C_4  and  C_5
REMARK    6  A    between atoms: C_5  and  C_6
REMARK    7  A    between atoms: C_6  and  O_7
REMARK    8  A    between atoms: O_7  and  C_8
REMARK    9  A    between atoms: C_11  and  S_12
REMARK   10  A    between atoms: S_12  and  C_14
REMARK   11  A    between atoms: C_14  and  C_15
REMARK   12  A    between atoms: C_15  and  C_16
REMARK   13  A    between atoms: C_16  and  C_17
REMARK   14  A    between atoms: C_17  and  C_18
REMARK   15  A    between atoms: C_17  and  C_19
REMARK   16  A    between atoms: C_17  and  C_20
REMARK   17  A    between atoms: C_20  and  O_22
REMARK   18  A    between atoms: C_25  and  O_27
REMARK                            x       y       z     vdW  Elec       q    Type
REMARK                         _______ _______ _______ _____ _____    ______ ____
ROOT
ATOM      1  C   UNL     1       2.050   7.347  18.635  0.00  0.00    +0.000 A 
ATOM      2  C   UNL     1       1.903   6.298  17.725  0.00  0.00    +0.000 A 
ATOM      3  C   UNL     1       1.855   4.976  18.168  0.00  0.00    +0.000 A 
ATOM      4  C   UNL     1       1.957   4.681  19.527  0.00  0.00    +0.000 A 
ATOM      5  C   UNL     1       2.120   5.725  20.443  0.00  0.00    +0.000 A 
ATOM      6  C   UNL     1       2.157   7.053  19.996  0.00  0.00    +0.000 A 
ENDROOT
BRANCH   4   7
ATOM      7  S   UNL     1       1.870   2.948  20.021  0.00  0.00    +0.000 S 
ATOM      8  O   UNL     1       1.232   2.179  18.811  0.00  0.00    +0.000 OA
BRANCH   7   9
ATOM      9  C   UNL     1       3.650   2.542  20.040  0.00  0.00    +0.000 C 
BRANCH   9  10
ATOM     10  C   UNL     1       4.362   3.029  18.781  0.00  0.00    +0.000 C 
BRANCH  10  11
ATOM     11  C   UNL     1       5.301   4.207  19.074  0.00  0.00    +0.000 C 
BRANCH  11  12
ATOM     12  C   UNL     1       5.921   4.891  17.815  0.00  0.00    +0.000 C 
ATOM     13  C   UNL     1       5.644   4.048  16.557  0.00  0.00    +0.000 C 
ATOM     14  C   UNL     1       5.347   6.308  17.649  0.00  0.00    +0.000 C 
BRANCH  12  15
ATOM     15  C   UNL     1       7.442   4.992  18.023  0.00  0.00    +0.000 C 
ATOM     16  O   UNL     1       7.985   5.814  18.746  0.00  0.00    +0.000 OA
BRANCH  15  17
ATOM     17  O   UNL     1       8.171   4.088  17.330  0.00  0.00    +0.000 OA
ATOM     18  H   UNL     1       9.133   4.119  17.478  0.00  0.00    +0.000 HD
ENDBRANCH  15  17
ENDBRANCH  12  15
ENDBRANCH  11  12
ENDBRANCH  10  11
ENDBRANCH   9  10
ENDBRANCH   7   9
ENDBRANCH   4   7
BRANCH   1  19
ATOM     19  O   UNL     1       2.107   8.674  18.294  0.00  0.00    +0.000 OA
BRANCH  19  20
ATOM     20  C   UNL     1       1.405   9.559  19.171  0.00  0.00    +0.000 C 
BRANCH  20  21
ATOM     21  C   UNL     1       0.154  10.081  18.475  0.00  0.00    +0.000 C 
BRANCH  21  22
ATOM     22  C   UNL     1      -0.919  10.460  19.505  0.00  0.00    +0.000 C 
BRANCH  22  24
ATOM     23  C   UNL     1      -2.943  11.294  18.236  0.00  0.00    +0.000 C 
ATOM     24  C   UNL     1      -1.781  11.706  19.154  0.00  0.00    +0.000 C 
ATOM     25  C   UNL     1      -2.305  12.356  20.444  0.00  0.00    +0.000 C 
BRANCH  24  26
ATOM     26  C   UNL     1      -0.890  12.716  18.413  0.00  0.00    +0.000 C 
ATOM     27  O   UNL     1      -0.010  13.382  18.945  0.00  0.00    +0.000 OA
BRANCH  26  28
ATOM     28  O   UNL     1      -1.133  12.818  17.086  0.00  0.00    +0.000 OA
ATOM     29  H   UNL     1      -1.785  13.497  16.834  0.00  0.00    +0.000 HD
ENDBRANCH  26  28
ENDBRANCH  24  26
ENDBRANCH  22  24
ENDBRANCH  21  22
ENDBRANCH  20  21
ENDBRANCH  19  20
ENDBRANCH   1  19
TORSDOF 14
ENDMDL
