MODEL 1
REMARK VINA RESULT:      -9.5      0.000      0.000
REMARK  Name = 
REMARK  5 active torsions:
REMARK  status: ('A' for Active; 'I' for Inactive)
REMARK    1  A    between atoms: C_1  and  C_2
REMARK    2  A    between atoms: C_2  and  N_3
REMARK    3  A    between atoms: C_2  and  C_27
REMARK    4  A    between atoms: C_6  and  C_7
REMARK    5  A    between atoms: C_16  and  C_17
REMARK                            x       y       z     vdW  Elec       q    Type
REMARK                         _______ _______ _______ _____ _____    ______ ____
ROOT
ATOM      1  C   UNL     1       3.581   6.098  18.042  0.00  0.00    +0.000 A 
ATOM      2  N   UNL     1       4.237   6.578  16.948  0.00  0.00    +0.000 NA
ATOM      3  C   UNL     1       4.929   5.709  16.191  0.00  0.00    +0.000 A 
ATOM      4  C   UNL     1       5.553   6.142  15.028  0.00  0.00    +0.000 A 
ATOM      5  C   UNL     1       6.296   5.275  14.227  0.00  0.00    +0.000 A 
ATOM      6  C   UNL     1       6.421   3.940  14.600  0.00  0.00    +0.000 A 
ATOM      7  C   UNL     1       5.787   3.491  15.756  0.00  0.00    +0.000 A 
ATOM      8  C   UNL     1       5.025   4.346  16.550  0.00  0.00    +0.000 A 
ATOM      9  N   UNL     1       4.377   3.860  17.621  0.00  0.00    +0.000 NA
ATOM     10  C   UNL     1       3.608   4.719  18.349  0.00  0.00    +0.000 A 
ENDROOT
BRANCH   1  14
ATOM     11  N   UNL     1       0.575   9.925  17.909  0.00  0.00    +0.000 N 
ATOM     12  C   UNL     1       1.231   8.970  18.694  0.00  0.00    +0.000 A 
ATOM     13  C   UNL     1       2.198   8.181  18.078  0.00  0.00    +0.000 A 
ATOM     14  C   UNL     1       2.809   7.131  18.778  0.00  0.00    +0.000 A 
ATOM     15  C   UNL     1       2.561   7.065  20.153  0.00  0.00    +0.000 A 
ATOM     16  C   UNL     1       1.596   7.897  20.697  0.00  0.00    +0.000 A 
ATOM     17  N   UNL     1       0.917   8.823  19.994  0.00  0.00    +0.000 NA
ATOM     18  H   UNL     1       1.169  10.751  17.874  0.00  0.00    +0.000 HD
BRANCH  11  20
ATOM     19  C   UNL     1      -1.758  10.160  17.123  0.00  0.00    +0.000 C 
ATOM     20  C   UNL     1      -0.791  10.270  18.313  0.00  0.00    +0.000 C 
BRANCH  20  21
ATOM     21  C   UNL     1      -0.831  11.722  18.784  0.00  0.00    +0.000 A 
ATOM     22  C   UNL     1       0.248  12.576  18.496  0.00  0.00    +0.000 A 
ATOM     23  C   UNL     1       0.303  13.859  19.044  0.00  0.00    +0.000 A 
ATOM     24  C   UNL     1      -0.718  14.308  19.879  0.00  0.00    +0.000 A 
ATOM     25  C   UNL     1      -1.804  13.480  20.158  0.00  0.00    +0.000 A 
ATOM     26  C   UNL     1      -1.859  12.196  19.617  0.00  0.00    +0.000 A 
ENDBRANCH  20  21
ENDBRANCH  11  20
ENDBRANCH   1  14
BRANCH  10  27
ATOM     27  C   UNL     1       2.801   4.031  19.394  0.00  0.00    +0.000 A 
ATOM     28  C   UNL     1       3.429   3.452  20.518  0.00  0.00    +0.000 A 
ATOM     29  C   UNL     1       2.685   2.829  21.529  0.00  0.00    +0.000 A 
ATOM     30  C   UNL     1       1.301   2.798  21.440  0.00  0.00    +0.000 A 
ATOM     31  F   UNL     1       0.586   2.231  22.421  0.00  0.00    +0.000 F 
ATOM     32  C   UNL     1       0.650   3.332  20.340  0.00  0.00    +0.000 A 
ATOM     33  C   UNL     1       1.400   3.902  19.310  0.00  0.00    +0.000 A 
ENDBRANCH  10  27
TORSDOF 4
ENDMDL
MODEL 2
REMARK VINA RESULT:      -9.3      2.982      9.059
REMARK  Name = 
REMARK  5 active torsions:
REMARK  status: ('A' for Active; 'I' for Inactive)
REMARK    1  A    between atoms: C_1  and  C_2
REMARK    2  A    between atoms: C_2  and  N_3
REMARK    3  A    between atoms: C_2  and  C_27
REMARK    4  A    between atoms: C_6  and  C_7
REMARK    5  A    between atoms: C_16  and  C_17
REMARK                            x       y       z     vdW  Elec       q    Type
REMARK                         _______ _______ _______ _____ _____    ______ ____
ROOT
ATOM      1  C   UNL     1       0.805  12.126  19.542  0.00  0.00    +0.000 A 
ATOM      2  N   UNL     1       1.930  12.815  19.881  0.00  0.00    +0.000 NA
ATOM      3  C   UNL     1       1.981  14.127  19.594  0.00  0.00    +0.000 A 
ATOM      4  C   UNL     1       3.079  14.883  19.986  0.00  0.00    +0.000 A 
ATOM      5  C   UNL     1       3.177  16.242  19.689  0.00  0.00    +0.000 A 
ATOM      6  C   UNL     1       2.154  16.862  18.979  0.00  0.00    +0.000 A 
ATOM      7  C   UNL     1       1.042  16.118  18.593  0.00  0.00    +0.000 A 
ATOM      8  C   UNL     1       0.925  14.764  18.905  0.00  0.00    +0.000 A 
ATOM      9  N   UNL     1      -0.191  14.097  18.572  0.00  0.00    +0.000 NA
ATOM     10  C   UNL     1      -0.286  12.785  18.930  0.00  0.00    +0.000 A 
ENDROOT
BRANCH   1  14
ATOM     11  N   UNL     1       2.059   7.534  18.523  0.00  0.00    +0.000 N 
ATOM     12  C   UNL     1       1.556   8.434  19.469  0.00  0.00    +0.000 A 
ATOM     13  C   UNL     1       1.231   9.715  19.032  0.00  0.00    +0.000 A 
ATOM     14  C   UNL     1       0.832  10.697  19.949  0.00  0.00    +0.000 A 
ATOM     15  C   UNL     1       0.574  10.270  21.255  0.00  0.00    +0.000 A 
ATOM     16  C   UNL     1       0.908   8.974  21.610  0.00  0.00    +0.000 A 
ATOM     17  N   UNL     1       1.412   8.065  20.754  0.00  0.00    +0.000 NA
ATOM     18  H   UNL     1       1.264   7.123  18.040  0.00  0.00    +0.000 HD
BRANCH  11  20
ATOM     19  C   UNL     1       4.127   6.262  18.052  0.00  0.00    +0.000 C 
ATOM     20  C   UNL     1       2.965   6.499  19.030  0.00  0.00    +0.000 C 
BRANCH  20  21
ATOM     21  C   UNL     1       2.210   5.178  19.151  0.00  0.00    +0.000 A 
ATOM     22  C   UNL     1       1.812   4.718  20.419  0.00  0.00    +0.000 A 
ATOM     23  C   UNL     1       1.257   3.446  20.570  0.00  0.00    +0.000 A 
ATOM     24  C   UNL     1       1.086   2.620  19.461  0.00  0.00    +0.000 A 
ATOM     25  C   UNL     1       1.457   3.070  18.195  0.00  0.00    +0.000 A 
ATOM     26  C   UNL     1       2.018   4.337  18.041  0.00  0.00    +0.000 A 
ENDBRANCH  20  21
ENDBRANCH  11  20
ENDBRANCH   1  14
BRANCH  10  27
ATOM     27  C   UNL     1      -1.633  12.209  18.671  0.00  0.00    +0.000 A 
ATOM     28  C   UNL     1      -2.699  12.449  19.566  0.00  0.00    +0.000 A 
ATOM     29  C   UNL     1      -3.983  11.944  19.324  0.00  0.00    +0.000 A 
ATOM     30  C   UNL     1      -4.224  11.212  18.170  0.00  0.00    +0.000 A 
ATOM     31  F   UNL     1      -5.459  10.756  17.920  0.00  0.00    +0.000 F 
ATOM     32  C   UNL     1      -3.199  10.934  17.280  0.00  0.00    +0.000 A 
ATOM     33  C   UNL     1      -1.910  11.392  17.556  0.00  0.00    +0.000 A 
ENDBRANCH  10  27
TORSDOF 4
ENDMDL
MODEL 3
REMARK VINA RESULT:      -8.9      3.093      9.019
REMARK  Name = 
REMARK  5 active torsions:
REMARK  status: ('A' for Active; 'I' for Inactive)
REMARK    1  A    between atoms: C_1  and  C_2
REMARK    2  A    between atoms: C_2  and  N_3
REMARK    3  A    between atoms: C_2  and  C_27
REMARK    4  A    between atoms: C_6  and  C_7
REMARK    5  A    between atoms: C_16  and  C_17
REMARK                            x       y       z     vdW  Elec       q    Type
REMARK                         _______ _______ _______ _____ _____    ______ ____
ROOT
ATOM      1  C   UNL     1       1.038  12.325  19.732  0.00  0.00    +0.000 A 
ATOM      2  N   UNL     1       2.124  12.677  18.988  0.00  0.00    +0.000 NA
ATOM      3  C   UNL     1       2.263  13.967  18.639  0.00  0.00    +0.000 A 
ATOM      4  C   UNL     1       3.391  14.381  17.942  0.00  0.00    +0.000 A 
ATOM      5  C   UNL     1       3.561  15.708  17.544  0.00  0.00    +0.000 A 
ATOM      6  C   UNL     1       2.578  16.644  17.849  0.00  0.00    +0.000 A 
ATOM      7  C   UNL     1       1.450  16.243  18.560  0.00  0.00    +0.000 A 
ATOM      8  C   UNL     1       1.281  14.924  18.980  0.00  0.00    +0.000 A 
ATOM      9  N   UNL     1       0.211  14.591  19.719  0.00  0.00    +0.000 NA
ATOM     10  C   UNL     1       0.102  13.301  20.145  0.00  0.00    +0.000 A 
ENDROOT
BRANCH   1  14
ATOM     11  N   UNL     1       2.046   7.705  18.576  0.00  0.00    +0.000 N 
ATOM     12  C   UNL     1       1.610   8.605  19.555  0.00  0.00    +0.000 A 
ATOM     13  C   UNL     1       1.336   9.910  19.156  0.00  0.00    +0.000 A 
ATOM     14  C   UNL     1       1.007  10.888  20.106  0.00  0.00    +0.000 A 
ATOM     15  C   UNL     1       0.763  10.442  21.408  0.00  0.00    +0.000 A 
ATOM     16  C   UNL     1       1.044   9.123  21.725  0.00  0.00    +0.000 A 
ATOM     17  N   UNL     1       1.481   8.212  20.835  0.00  0.00    +0.000 NA
ATOM     18  H   UNL     1       1.219   7.344  18.105  0.00  0.00    +0.000 HD
BRANCH  11  20
ATOM     19  C   UNL     1       4.036   6.348  18.019  0.00  0.00    +0.000 C 
ATOM     20  C   UNL     1       2.914   6.617  19.035  0.00  0.00    +0.000 C 
BRANCH  20  21
ATOM     21  C   UNL     1       2.100   5.331  19.148  0.00  0.00    +0.000 A 
ATOM     22  C   UNL     1       1.702   4.868  20.414  0.00  0.00    +0.000 A 
ATOM     23  C   UNL     1       1.090   3.622  20.555  0.00  0.00    +0.000 A 
ATOM     24  C   UNL     1       0.862   2.824  19.436  0.00  0.00    +0.000 A 
ATOM     25  C   UNL     1       1.232   3.277  18.171  0.00  0.00    +0.000 A 
ATOM     26  C   UNL     1       1.849   4.519  18.027  0.00  0.00    +0.000 A 
ENDBRANCH  20  21
ENDBRANCH  11  20
ENDBRANCH   1  14
BRANCH  10  27
ATOM     27  C   UNL     1      -1.020  13.099  21.102  0.00  0.00    +0.000 A 
ATOM     28  C   UNL     1      -2.287  12.680  20.640  0.00  0.00    +0.000 A 
ATOM     29  C   UNL     1      -3.348  12.452  21.527  0.00  0.00    +0.000 A 
ATOM     30  C   UNL     1      -3.148  12.617  22.890  0.00  0.00    +0.000 A 
ATOM     31  F   UNL     1      -4.152  12.369  23.742  0.00  0.00    +0.000 F 
ATOM     32  C   UNL     1      -1.927  13.052  23.379  0.00  0.00    +0.000 A 
ATOM     33  C   UNL     1      -0.892  13.332  22.485  0.00  0.00    +0.000 A 
ENDBRANCH  10  27
TORSDOF 4
ENDMDL
MODEL 4
REMARK VINA RESULT:      -8.8      2.829      8.957
REMARK  Name = 
REMARK  5 active torsions:
REMARK  status: ('A' for Active; 'I' for Inactive)
REMARK    1  A    between atoms: C_1  and  C_2
REMARK    2  A    between atoms: C_2  and  N_3
REMARK    3  A    between atoms: C_2  and  C_27
REMARK    4  A    between atoms: C_6  and  C_7
REMARK    5  A    between atoms: C_16  and  C_17
REMARK                            x       y       z     vdW  Elec       q    Type
REMARK                         _______ _______ _______ _____ _____    ______ ____
ROOT
ATOM      1  C   UNL     1       0.958  11.805  19.114  0.00  0.00    +0.000 A 
ATOM      2  N   UNL     1       2.061  12.538  19.436  0.00  0.00    +0.000 NA
ATOM      3  C   UNL     1       2.002  13.872  19.284  0.00  0.00    +0.000 A 
ATOM      4  C   UNL     1       3.078  14.663  19.667  0.00  0.00    +0.000 A 
ATOM      5  C   UNL     1       3.062  16.049  19.507  0.00  0.00    +0.000 A 
ATOM      6  C   UNL     1       1.944  16.659  18.947  0.00  0.00    +0.000 A 
ATOM      7  C   UNL     1       0.855  15.878  18.573  0.00  0.00    +0.000 A 
ATOM      8  C   UNL     1       0.853  14.495  18.749  0.00  0.00    +0.000 A 
ATOM      9  N   UNL     1      -0.242  13.784  18.436  0.00  0.00    +0.000 NA
ATOM     10  C   UNL     1      -0.221  12.440  18.661  0.00  0.00    +0.000 A 
ENDROOT
BRANCH   1  14
ATOM     11  N   UNL     1       2.787   7.514  17.722  0.00  0.00    +0.000 N 
ATOM     12  C   UNL     1       2.117   8.242  18.711  0.00  0.00    +0.000 A 
ATOM     13  C   UNL     1       1.686   9.526  18.387  0.00  0.00    +0.000 A 
ATOM     14  C   UNL     1       1.112  10.349  19.366  0.00  0.00    +0.000 A 
ATOM     15  C   UNL     1       0.804   9.749  20.591  0.00  0.00    +0.000 A 
ATOM     16  C   UNL     1       1.251   8.460  20.833  0.00  0.00    +0.000 A 
ATOM     17  N   UNL     1       1.916   7.713  19.931  0.00  0.00    +0.000 NA
ATOM     18  H   UNL     1       2.081   7.083  17.130  0.00  0.00    +0.000 HD
BRANCH  11  20
ATOM     19  C   UNL     1       5.092   6.664  17.437  0.00  0.00    +0.000 C 
ATOM     20  C   UNL     1       3.760   6.524  18.193  0.00  0.00    +0.000 C 
BRANCH  20  21
ATOM     21  C   UNL     1       3.234   5.119  17.910  0.00  0.00    +0.000 A 
ATOM     22  C   UNL     1       1.874   4.832  18.114  0.00  0.00    +0.000 A 
ATOM     23  C   UNL     1       1.401   3.522  18.008  0.00  0.00    +0.000 A 
ATOM     24  C   UNL     1       2.277   2.486  17.690  0.00  0.00    +0.000 A 
ATOM     25  C   UNL     1       3.625   2.758  17.465  0.00  0.00    +0.000 A 
ATOM     26  C   UNL     1       4.101   4.063  17.577  0.00  0.00    +0.000 A 
ENDBRANCH  20  21
ENDBRANCH  11  20
ENDBRANCH   1  14
BRANCH  10  27
ATOM     27  C   UNL     1      -1.545  11.795  18.448  0.00  0.00    +0.000 A 
ATOM     28  C   UNL     1      -1.668  10.676  17.596  0.00  0.00    +0.000 A 
ATOM     29  C   UNL     1      -2.899  10.033  17.407  0.00  0.00    +0.000 A 
ATOM     30  C   UNL     1      -4.019  10.488  18.088  0.00  0.00    +0.000 A 
ATOM     31  F   UNL     1      -5.191   9.857  17.935  0.00  0.00    +0.000 F 
ATOM     32  C   UNL     1      -3.945  11.599  18.913  0.00  0.00    +0.000 A 
ATOM     33  C   UNL     1      -2.727  12.267  19.052  0.00  0.00    +0.000 A 
ENDBRANCH  10  27
TORSDOF 4
ENDMDL
MODEL 5
REMARK VINA RESULT:      -8.7      2.875      8.903
REMARK  Name = 
REMARK  5 active torsions:
REMARK  status: ('A' for Active; 'I' for Inactive)
REMARK    1  A    between atoms: C_1  and  C_2
REMARK    2  A    between atoms: C_2  and  N_3
REMARK    3  A    between atoms: C_2  and  C_27
REMARK    4  A    between atoms: C_6  and  C_7
REMARK    5  A    between atoms: C_16  and  C_17
REMARK                            x       y       z     vdW  Elec       q    Type
REMARK                         _______ _______ _______ _____ _____    ______ ____
ROOT
ATOM      1  C   UNL     1       0.980  11.630  19.218  0.00  0.00    +0.000 A 
ATOM      2  N   UNL     1       2.068  12.368  19.577  0.00  0.00    +0.000 NA
ATOM      3  C   UNL     1       2.021  13.699  19.394  0.00  0.00    +0.000 A 
ATOM      4  C   UNL     1       3.079  14.496  19.813  0.00  0.00    +0.000 A 
ATOM      5  C   UNL     1       3.076  15.878  19.623  0.00  0.00    +0.000 A 
ATOM      6  C   UNL     1       1.989  16.478  18.995  0.00  0.00    +0.000 A 
ATOM      7  C   UNL     1       0.916  15.691  18.585  0.00  0.00    +0.000 A 
ATOM      8  C   UNL     1       0.901  14.312  18.790  0.00  0.00    +0.000 A 
ATOM      9  N   UNL     1      -0.179  13.597  18.439  0.00  0.00    +0.000 NA
ATOM     10  C   UNL     1      -0.173  12.258  18.693  0.00  0.00    +0.000 A 
ENDROOT
BRANCH   1  14
ATOM     11  N   UNL     1       2.821   7.297  17.982  0.00  0.00    +0.000 N 
ATOM     12  C   UNL     1       2.127   8.052  18.933  0.00  0.00    +0.000 A 
ATOM     13  C   UNL     1       1.714   9.331  18.567  0.00  0.00    +0.000 A 
ATOM     14  C   UNL     1       1.117  10.180  19.508  0.00  0.00    +0.000 A 
ATOM     15  C   UNL     1       0.770   9.611  20.737  0.00  0.00    +0.000 A 
ATOM     16  C   UNL     1       1.201   8.326  21.022  0.00  0.00    +0.000 A 
ATOM     17  N   UNL     1       1.887   7.554  20.159  0.00  0.00    +0.000 NA
ATOM     18  H   UNL     1       2.130   6.857  17.379  0.00  0.00    +0.000 HD
BRANCH  11  20
ATOM     19  C   UNL     1       5.106   6.383  17.740  0.00  0.00    +0.000 C 
ATOM     20  C   UNL     1       3.774   6.313  18.504  0.00  0.00    +0.000 C 
BRANCH  20  21
ATOM     21  C   UNL     1       3.217   4.906  18.297  0.00  0.00    +0.000 A 
ATOM     22  C   UNL     1       4.095   3.845  18.014  0.00  0.00    +0.000 A 
ATOM     23  C   UNL     1       3.599   2.586  17.673  0.00  0.00    +0.000 A 
ATOM     24  C   UNL     1       2.225   2.367  17.616  0.00  0.00    +0.000 A 
ATOM     25  C   UNL     1       1.341   3.403  17.913  0.00  0.00    +0.000 A 
ATOM     26  C   UNL     1       1.833   4.664  18.248  0.00  0.00    +0.000 A 
ENDBRANCH  20  21
ENDBRANCH  11  20
ENDBRANCH   1  14
BRANCH  10  27
ATOM     27  C   UNL     1      -1.487  11.611  18.429  0.00  0.00    +0.000 A 
ATOM     28  C   UNL     1      -2.667  12.123  19.012  0.00  0.00    +0.000 A 
ATOM     29  C   UNL     1      -3.919  11.550  18.750  0.00  0.00    +0.000 A 
ATOM     30  C   UNL     1      -4.009  10.472  17.882  0.00  0.00    +0.000 A 
ATOM     31  F   UNL     1      -5.208   9.943  17.605  0.00  0.00    +0.000 F 
ATOM     32  C   UNL     1      -2.872   9.925  17.310  0.00  0.00    +0.000 A 
ATOM     33  C   UNL     1      -1.623  10.466  17.620  0.00  0.00    +0.000 A 
ENDBRANCH  10  27
TORSDOF 4
ENDMDL
MODEL 6
REMARK VINA RESULT:      -8.7      3.039      9.063
REMARK  Name = 
REMARK  5 active torsions:
REMARK  status: ('A' for Active; 'I' for Inactive)
REMARK    1  A    between atoms: C_1  and  C_2
REMARK    2  A    between atoms: C_2  and  N_3
REMARK    3  A    between atoms: C_2  and  C_27
REMARK    4  A    between atoms: C_6  and  C_7
REMARK    5  A    between atoms: C_16  and  C_17
REMARK                            x       y       z     vdW  Elec       q    Type
REMARK                         _______ _______ _______ _____ _____    ______ ____
ROOT
ATOM      1  C   UNL     1       0.771  12.163  19.918  0.00  0.00    +0.000 A 
ATOM      2  N   UNL     1       1.865  12.849  20.352  0.00  0.00    +0.000 NA
ATOM      3  C   UNL     1       1.920  14.171  20.115  0.00  0.00    +0.000 A 
ATOM      4  C   UNL     1       2.983  14.922  20.604  0.00  0.00    +0.000 A 
ATOM      5  C   UNL     1       3.085  16.292  20.361  0.00  0.00    +0.000 A 
ATOM      6  C   UNL     1       2.102  16.928  19.609  0.00  0.00    +0.000 A 
ATOM      7  C   UNL     1       1.025  16.188  19.128  0.00  0.00    +0.000 A 
ATOM      8  C   UNL     1       0.903  14.823  19.383  0.00  0.00    +0.000 A 
ATOM      9  N   UNL     1      -0.183  14.159  18.957  0.00  0.00    +0.000 NA
ATOM     10  C   UNL     1      -0.285  12.834  19.261  0.00  0.00    +0.000 A 
ENDROOT
BRANCH   1  14
ATOM     11  N   UNL     1       2.126   7.620  18.813  0.00  0.00    +0.000 N 
ATOM     12  C   UNL     1       1.560   8.482  19.759  0.00  0.00    +0.000 A 
ATOM     13  C   UNL     1       1.249   9.776  19.349  0.00  0.00    +0.000 A 
ATOM     14  C   UNL     1       0.788  10.721  20.275  0.00  0.00    +0.000 A 
ATOM     15  C   UNL     1       0.458  10.246  21.548  0.00  0.00    +0.000 A 
ATOM     16  C   UNL     1       0.783   8.940  21.876  0.00  0.00    +0.000 A 
ATOM     17  N   UNL     1       1.344   8.066  21.019  0.00  0.00    +0.000 NA
ATOM     18  H   UNL     1       1.364   7.221  18.270  0.00  0.00    +0.000 HD
BRANCH  11  20
ATOM     19  C   UNL     1       4.259   6.421  18.451  0.00  0.00    +0.000 C 
ATOM     20  C   UNL     1       3.010   6.574  19.335  0.00  0.00    +0.000 C 
BRANCH  20  21
ATOM     21  C   UNL     1       2.282   5.233  19.310  0.00  0.00    +0.000 A 
ATOM     22  C   UNL     1       2.054   4.588  18.082  0.00  0.00    +0.000 A 
ATOM     23  C   UNL     1       1.261   3.441  18.019  0.00  0.00    +0.000 A 
ATOM     24  C   UNL     1       0.691   2.919  19.179  0.00  0.00    +0.000 A 
ATOM     25  C   UNL     1       0.925   3.535  20.407  0.00  0.00    +0.000 A 
ATOM     26  C   UNL     1       1.711   4.685  20.473  0.00  0.00    +0.000 A 
ENDBRANCH  20  21
ENDBRANCH  11  20
ENDBRANCH   1  14
BRANCH  10  27
ATOM     27  C   UNL     1      -1.607  12.256  18.897  0.00  0.00    +0.000 A 
ATOM     28  C   UNL     1      -1.721  11.356  17.815  0.00  0.00    +0.000 A 
ATOM     29  C   UNL     1      -2.950  10.774  17.476  0.00  0.00    +0.000 A 
ATOM     30  C   UNL     1      -4.077  11.068  18.230  0.00  0.00    +0.000 A 
ATOM     31  F   UNL     1      -5.247  10.489  17.927  0.00  0.00    +0.000 F 
ATOM     32  C   UNL     1      -4.011  11.966  19.282  0.00  0.00    +0.000 A 
ATOM     33  C   UNL     1      -2.796  12.584  19.579  0.00  0.00    +0.000 A 
ENDBRANCH  10  27
TORSDOF 4
ENDMDL
MODEL 7
REMARK VINA RESULT:      -8.7      3.477     10.114
REMARK  Name = 
REMARK  5 active torsions:
REMARK  status: ('A' for Active; 'I' for Inactive)
REMARK    1  A    between atoms: C_1  and  C_2
REMARK    2  A    between atoms: C_2  and  N_3
REMARK    3  A    between atoms: C_2  and  C_27
REMARK    4  A    between atoms: C_6  and  C_7
REMARK    5  A    between atoms: C_16  and  C_17
REMARK                            x       y       z     vdW  Elec       q    Type
REMARK                         _______ _______ _______ _____ _____    ______ ____
ROOT
ATOM      1  C   UNL     1      -2.590  12.222  20.359  0.00  0.00    +0.000 A 
ATOM      2  N   UNL     1      -2.900  12.638  21.619  0.00  0.00    +0.000 NA
ATOM      3  C   UNL     1      -4.194  12.841  21.919  0.00  0.00    +0.000 A 
ATOM      4  C   UNL     1      -4.560  13.196  23.212  0.00  0.00    +0.000 A 
ATOM      5  C   UNL     1      -5.890  13.435  23.557  0.00  0.00    +0.000 A 
ATOM      6  C   UNL     1      -6.880  13.319  22.586  0.00  0.00    +0.000 A 
ATOM      7  C   UNL     1      -6.526  12.950  21.291  0.00  0.00    +0.000 A 
ATOM      8  C   UNL     1      -5.202  12.688  20.942  0.00  0.00    +0.000 A 
ATOM      9  N   UNL     1      -4.910  12.271  19.700  0.00  0.00    +0.000 NA
ATOM     10  C   UNL     1      -3.609  11.986  19.408  0.00  0.00    +0.000 A 
ENDROOT
BRANCH   1  14
ATOM     11  N   UNL     1       1.107   9.064  20.118  0.00  0.00    +0.000 N 
ATOM     12  C   UNL     1       0.669  10.380  19.930  0.00  0.00    +0.000 A 
ATOM     13  C   UNL     1      -0.597  10.713  20.405  0.00  0.00    +0.000 A 
ATOM     14  C   UNL     1      -1.140  11.979  20.148  0.00  0.00    +0.000 A 
ATOM     15  C   UNL     1      -0.278  12.932  19.596  0.00  0.00    +0.000 A 
ATOM     16  C   UNL     1       0.974  12.528  19.164  0.00  0.00    +0.000 A 
ATOM     17  N   UNL     1       1.449  11.275  19.298  0.00  0.00    +0.000 NA
ATOM     18  H   UNL     1       1.488   9.001  21.059  0.00  0.00    +0.000 HD
BRANCH  11  20
ATOM     19  C   UNL     1       1.514   8.744  17.700  0.00  0.00    +0.000 C 
ATOM     20  C   UNL     1       2.055   8.548  19.126  0.00  0.00    +0.000 C 
BRANCH  20  21
ATOM     21  C   UNL     1       2.236   7.046  19.329  0.00  0.00    +0.000 A 
ATOM     22  C   UNL     1       2.637   6.241  18.249  0.00  0.00    +0.000 A 
ATOM     23  C   UNL     1       2.663   4.851  18.371  0.00  0.00    +0.000 A 
ATOM     24  C   UNL     1       2.296   4.246  19.571  0.00  0.00    +0.000 A 
ATOM     25  C   UNL     1       1.915   5.031  20.658  0.00  0.00    +0.000 A 
ATOM     26  C   UNL     1       1.882   6.420  20.538  0.00  0.00    +0.000 A 
ENDBRANCH  20  21
ENDBRANCH  11  20
ENDBRANCH   1  14
BRANCH  10  27
ATOM     27  C   UNL     1      -3.439  11.363  18.067  0.00  0.00    +0.000 A 
ATOM     28  C   UNL     1      -4.317  11.688  17.010  0.00  0.00    +0.000 A 
ATOM     29  C   UNL     1      -4.154  11.139  15.731  0.00  0.00    +0.000 A 
ATOM     30  C   UNL     1      -3.096  10.276  15.486  0.00  0.00    +0.000 A 
ATOM     31  F   UNL     1      -2.920   9.775  14.257  0.00  0.00    +0.000 F 
ATOM     32  C   UNL     1      -2.228   9.913  16.504  0.00  0.00    +0.000 A 
ATOM     33  C   UNL     1      -2.429  10.420  17.788  0.00  0.00    +0.000 A 
ENDBRANCH  10  27
TORSDOF 4
ENDMDL
MODEL 8
REMARK VINA RESULT:      -8.4      4.945      7.012
REMARK  Name = 
REMARK  5 active torsions:
REMARK  status: ('A' for Active; 'I' for Inactive)
REMARK    1  A    between atoms: C_1  and  C_2
REMARK    2  A    between atoms: C_2  and  N_3
REMARK    3  A    between atoms: C_2  and  C_27
REMARK    4  A    between atoms: C_6  and  C_7
REMARK    5  A    between atoms: C_16  and  C_17
REMARK                            x       y       z     vdW  Elec       q    Type
REMARK                         _______ _______ _______ _____ _____    ______ ____
ROOT
ATOM      1  C   UNL     1       6.674   5.439  16.074  0.00  0.00    +0.000 A 
ATOM      2  N   UNL     1       7.357   5.214  14.917  0.00  0.00    +0.000 NA
ATOM      3  C   UNL     1       6.735   4.541  13.934  0.00  0.00    +0.000 A 
ATOM      4  C   UNL     1       7.369   4.353  12.711  0.00  0.00    +0.000 A 
ATOM      5  C   UNL     1       6.764   3.642  11.674  0.00  0.00    +0.000 A 
ATOM      6  C   UNL     1       5.495   3.104  11.864  0.00  0.00    +0.000 A 
ATOM      7  C   UNL     1       4.845   3.298  13.080  0.00  0.00    +0.000 A 
ATOM      8  C   UNL     1       5.433   4.025  14.114  0.00  0.00    +0.000 A 
ATOM      9  N   UNL     1       4.747   4.246  15.247  0.00  0.00    +0.000 NA
ATOM     10  C   UNL     1       5.339   4.996  16.219  0.00  0.00    +0.000 A 
ENDROOT
BRANCH   1  14
ATOM     11  N   UNL     1       8.653   9.693  17.370  0.00  0.00    +0.000 N 
ATOM     12  C   UNL     1       8.321   8.387  17.745  0.00  0.00    +0.000 A 
ATOM     13  C   UNL     1       7.888   7.518  16.747  0.00  0.00    +0.000 A 
ATOM     14  C   UNL     1       7.433   6.233  17.074  0.00  0.00    +0.000 A 
ATOM     15  C   UNL     1       7.640   5.809  18.390  0.00  0.00    +0.000 A 
ATOM     16  C   UNL     1       8.091   6.728  19.323  0.00  0.00    +0.000 A 
ATOM     17  N   UNL     1       8.409   8.003  19.031  0.00  0.00    +0.000 NA
ATOM     18  H   UNL     1       9.609   9.678  17.024  0.00  0.00    +0.000 HD
BRANCH  11  20
ATOM     19  C   UNL     1       7.778  11.966  17.804  0.00  0.00    +0.000 C 
ATOM     20  C   UNL     1       8.474  10.728  18.393  0.00  0.00    +0.000 C 
BRANCH  20  21
ATOM     21  C   UNL     1       9.840  11.185  18.898  0.00  0.00    +0.000 A 
ATOM     22  C   UNL     1      10.009  11.499  20.258  0.00  0.00    +0.000 A 
ATOM     23  C   UNL     1      11.203  12.061  20.713  0.00  0.00    +0.000 A 
ATOM     24  C   UNL     1      12.244  12.310  19.821  0.00  0.00    +0.000 A 
ATOM     25  C   UNL     1      12.099  11.985  18.474  0.00  0.00    +0.000 A 
ATOM     26  C   UNL     1      10.906  11.429  18.015  0.00  0.00    +0.000 A 
ENDBRANCH  20  21
ENDBRANCH  11  20
ENDBRANCH   1  14
BRANCH  10  27
ATOM     27  C   UNL     1       4.418   5.323  17.342  0.00  0.00    +0.000 A 
ATOM     28  C   UNL     1       3.784   6.583  17.404  0.00  0.00    +0.000 A 
ATOM     29  C   UNL     1       2.887   6.899  18.433  0.00  0.00    +0.000 A 
ATOM     30  C   UNL     1       2.594   5.948  19.401  0.00  0.00    +0.000 A 
ATOM     31  F   UNL     1       1.713   6.236  20.368  0.00  0.00    +0.000 F 
ATOM     32  C   UNL     1       3.214   4.709  19.388  0.00  0.00    +0.000 A 
ATOM     33  C   UNL     1       4.149   4.422  18.392  0.00  0.00    +0.000 A 
ENDBRANCH  10  27
TORSDOF 4
ENDMDL
MODEL 9
REMARK VINA RESULT:      -8.3      3.422     10.066
REMARK  Name = 
REMARK  5 active torsions:
REMARK  status: ('A' for Active; 'I' for Inactive)
REMARK    1  A    between atoms: C_1  and  C_2
REMARK    2  A    between atoms: C_2  and  N_3
REMARK    3  A    between atoms: C_2  and  C_27
REMARK    4  A    between atoms: C_6  and  C_7
REMARK    5  A    between atoms: C_16  and  C_17
REMARK                            x       y       z     vdW  Elec       q    Type
REMARK                         _______ _______ _______ _____ _____    ______ ____
ROOT
ATOM      1  C   UNL     1      -2.470  12.162  20.445  0.00  0.00    +0.000 A 
ATOM      2  N   UNL     1      -2.776  12.545  21.716  0.00  0.00    +0.000 NA
ATOM      3  C   UNL     1      -4.068  12.756  22.022  0.00  0.00    +0.000 A 
ATOM      4  C   UNL     1      -4.431  13.077  23.324  0.00  0.00    +0.000 A 
ATOM      5  C   UNL     1      -5.759  13.322  23.676  0.00  0.00    +0.000 A 
ATOM      6  C   UNL     1      -6.749  13.246  22.701  0.00  0.00    +0.000 A 
ATOM      7  C   UNL     1      -6.398  12.910  21.396  0.00  0.00    +0.000 A 
ATOM      8  C   UNL     1      -5.077  12.643  21.040  0.00  0.00    +0.000 A 
ATOM      9  N   UNL     1      -4.789  12.259  19.786  0.00  0.00    +0.000 NA
ATOM     10  C   UNL     1      -3.491  11.966  19.487  0.00  0.00    +0.000 A 
ENDROOT
BRANCH   1  14
ATOM     11  N   UNL     1       1.194   8.972  20.145  0.00  0.00    +0.000 N 
ATOM     12  C   UNL     1       0.769  10.294  19.980  0.00  0.00    +0.000 A 
ATOM     13  C   UNL     1      -0.492  10.632  20.462  0.00  0.00    +0.000 A 
ATOM     14  C   UNL     1      -1.023  11.908  20.227  0.00  0.00    +0.000 A 
ATOM     15  C   UNL     1      -0.152  12.862  19.691  0.00  0.00    +0.000 A 
ATOM     16  C   UNL     1       1.095  12.452  19.250  0.00  0.00    +0.000 A 
ATOM     17  N   UNL     1       1.557  11.193  19.363  0.00  0.00    +0.000 NA
ATOM     18  H   UNL     1       1.575   8.889  21.085  0.00  0.00    +0.000 HD
BRANCH  11  20
ATOM     19  C   UNL     1       1.559   8.613  17.725  0.00  0.00    +0.000 C 
ATOM     20  C   UNL     1       2.135   8.463  19.143  0.00  0.00    +0.000 C 
BRANCH  20  21
ATOM     21  C   UNL     1       2.364   6.971  19.372  0.00  0.00    +0.000 A 
ATOM     22  C   UNL     1       1.755   6.334  20.468  0.00  0.00    +0.000 A 
ATOM     23  C   UNL     1       2.069   5.011  20.784  0.00  0.00    +0.000 A 
ATOM     24  C   UNL     1       2.988   4.305  20.010  0.00  0.00    +0.000 A 
ATOM     25  C   UNL     1       3.585   4.916  18.908  0.00  0.00    +0.000 A 
ATOM     26  C   UNL     1       3.278   6.239  18.593  0.00  0.00    +0.000 A 
ENDBRANCH  20  21
ENDBRANCH  11  20
ENDBRANCH   1  14
BRANCH  10  27
ATOM     27  C   UNL     1      -3.327  11.381  18.129  0.00  0.00    +0.000 A 
ATOM     28  C   UNL     1      -2.252  10.509  17.850  0.00  0.00    +0.000 A 
ATOM     29  C   UNL     1      -2.098   9.921  16.587  0.00  0.00    +0.000 A 
ATOM     30  C   UNL     1      -3.032  10.178  15.594  0.00  0.00    +0.000 A 
ATOM     31  F   UNL     1      -2.905   9.592  14.396  0.00  0.00    +0.000 F 
ATOM     32  C   UNL     1      -4.087  11.047  15.821  0.00  0.00    +0.000 A 
ATOM     33  C   UNL     1      -4.202  11.673  17.064  0.00  0.00    +0.000 A 
ENDBRANCH  10  27
TORSDOF 4
ENDMDL
