MODEL 1
REMARK VINA RESULT:      -8.3      0.000      0.000
REMARK  Name = 
REMARK  9 active torsions:
REMARK  status: ('A' for Active; 'I' for Inactive)
REMARK    1  A    between atoms: C_1  and  O_2
REMARK    2  A    between atoms: O_2  and  C_3
REMARK    3  A    between atoms: C_5  and  O_6
REMARK    4  A    between atoms: O_6  and  C_7
REMARK    5  A    between atoms: C_9  and  C_10
REMARK    6  A    between atoms: N_12  and  N_13
REMARK    7  A    between atoms: C_14  and  C_16
REMARK    8  A    between atoms: C_18  and  S_19
REMARK    9  A    between atoms: S_19  and  N_22
REMARK                            x       y       z     vdW  Elec       q    Type
REMARK                         _______ _______ _______ _____ _____    ______ ____
ROOT
ATOM      1  N   UNL     1       1.793   8.534  19.653  0.00  0.00    +0.000 N 
ATOM      2  C   UNL     1       1.063   8.420  20.813  0.00  0.00    +0.000 C 
ATOM      3  O   UNL     1       1.097   7.437  21.547  0.00  0.00    +0.000 OA
ATOM      4  H   UNL     1       1.666   9.288  18.977  0.00  0.00    +0.000 HD
ENDROOT
BRANCH   2   5
ATOM      5  C   UNL     1       0.161   9.554  21.103  0.00  0.00    +0.000 A 
ATOM      6  C   UNL     1      -0.569  10.134  20.054  0.00  0.00    +0.000 A 
ATOM      7  C   UNL     1      -1.365  11.248  20.328  0.00  0.00    +0.000 A 
ATOM      8  C   UNL     1      -1.446  11.775  21.625  0.00  0.00    +0.000 A 
ATOM      9  C   UNL     1      -0.750  11.168  22.667  0.00  0.00    +0.000 A 
ATOM     10  C   UNL     1       0.041  10.060  22.401  0.00  0.00    +0.000 A 
ATOM     11  F   UNL     1       0.684   9.485  23.430  0.00  0.00    +0.000 F 
BRANCH   7  12
ATOM     12  S   UNL     1      -2.407  11.932  19.063  0.00  0.00    +0.000 S 
ATOM     13  O   UNL     1      -3.435  12.689  19.745  0.00  0.00    +0.000 OA
ATOM     14  O   UNL     1      -1.539  12.571  18.101  0.00  0.00    +0.000 OA
BRANCH  12  15
ATOM     15  N   UNL     1      -3.163  10.607  18.294  0.00  0.00    +0.000 NA
ATOM     16  C   UNL     1      -2.524  10.032  17.070  0.00  0.00    +0.000 C 
ATOM     17  C   UNL     1      -2.741  10.919  15.838  0.00  0.00    +0.000 C 
ATOM     18  O   UNL     1      -4.133  11.184  15.607  0.00  0.00    +0.000 OA
ATOM     19  C   UNL     1      -4.768  11.767  16.755  0.00  0.00    +0.000 C 
ATOM     20  C   UNL     1      -4.617  10.864  17.987  0.00  0.00    +0.000 C 
ENDBRANCH  12  15
ENDBRANCH   7  12
ENDBRANCH   2   5
BRANCH   1  23
ATOM     21  C   UNL     1       2.969   7.437  17.916  0.00  0.00    +0.000 C 
ATOM     22  O   UNL     1       2.763   8.352  17.124  0.00  0.00    +0.000 OA
ATOM     23  N   UNL     1       2.503   7.433  19.211  0.00  0.00    +0.000 N 
ATOM     24  H   UNL     1       2.728   6.740  19.913  0.00  0.00    +0.000 HD
BRANCH  21  29
ATOM     25  C   UNL     1       4.504   3.986  17.851  0.00  0.00    +0.000 A 
ATOM     26  C   UNL     1       5.575   4.222  16.983  0.00  0.00    +0.000 A 
ATOM     27  C   UNL     1       5.764   5.471  16.380  0.00  0.00    +0.000 A 
ATOM     28  C   UNL     1       4.871   6.500  16.657  0.00  0.00    +0.000 A 
ATOM     29  C   UNL     1       3.817   6.280  17.551  0.00  0.00    +0.000 A 
ATOM     30  C   UNL     1       3.613   5.017  18.122  0.00  0.00    +0.000 A 
BRANCH  25  32
ATOM     31  C   UNL     1       3.315   1.930  18.049  0.00  0.00    +0.000 C 
ATOM     32  O   UNL     1       4.448   2.727  18.383  0.00  0.00    +0.000 OA
ENDBRANCH  25  32
BRANCH  27  33
ATOM     33  O   UNL     1       6.861   5.571  15.568  0.00  0.00    +0.000 OA
ATOM     34  C   UNL     1       6.834   4.811  14.362  0.00  0.00    +0.000 C 
ENDBRANCH  27  33
ENDBRANCH  21  29
ENDBRANCH   1  23
TORSDOF 7
ENDMDL
MODEL 2
REMARK VINA RESULT:      -8.1      5.968      9.307
REMARK  Name = 
REMARK  9 active torsions:
REMARK  status: ('A' for Active; 'I' for Inactive)
REMARK    1  A    between atoms: C_1  and  O_2
REMARK    2  A    between atoms: O_2  and  C_3
REMARK    3  A    between atoms: C_5  and  O_6
REMARK    4  A    between atoms: O_6  and  C_7
REMARK    5  A    between atoms: C_9  and  C_10
REMARK    6  A    between atoms: N_12  and  N_13
REMARK    7  A    between atoms: C_14  and  C_16
REMARK    8  A    between atoms: C_18  and  S_19
REMARK    9  A    between atoms: S_19  and  N_22
REMARK                            x       y       z     vdW  Elec       q    Type
REMARK                         _______ _______ _______ _____ _____    ______ ____
ROOT
ATOM      1  N   UNL     1       7.718   7.018  18.524  0.00  0.00    +0.000 N 
ATOM      2  C   UNL     1       7.504   6.659  17.214  0.00  0.00    +0.000 C 
ATOM      3  O   UNL     1       8.162   7.089  16.272  0.00  0.00    +0.000 OA
ATOM      4  H   UNL     1       7.091   6.766  19.289  0.00  0.00    +0.000 HD
ENDROOT
BRANCH   2   5
ATOM      5  C   UNL     1       6.364   5.745  16.990  0.00  0.00    +0.000 A 
ATOM      6  C   UNL     1       5.155   5.982  17.663  0.00  0.00    +0.000 A 
ATOM      7  C   UNL     1       4.107   5.075  17.496  0.00  0.00    +0.000 A 
ATOM      8  C   UNL     1       4.249   3.952  16.668  0.00  0.00    +0.000 A 
ATOM      9  C   UNL     1       5.440   3.748  15.973  0.00  0.00    +0.000 A 
ATOM     10  C   UNL     1       6.482   4.648  16.133  0.00  0.00    +0.000 A 
ATOM     11  F   UNL     1       7.610   4.434  15.435  0.00  0.00    +0.000 F 
BRANCH   7  12
ATOM     12  S   UNL     1       2.519   5.404  18.220  0.00  0.00    +0.000 S 
ATOM     13  O   UNL     1       2.339   6.840  18.177  0.00  0.00    +0.000 OA
ATOM     14  O   UNL     1       1.571   4.524  17.575  0.00  0.00    +0.000 OA
BRANCH  12  15
ATOM     15  N   UNL     1       2.634   4.945  19.861  0.00  0.00    +0.000 NA
ATOM     16  C   UNL     1       3.569   3.836  20.229  0.00  0.00    +0.000 C 
ATOM     17  C   UNL     1       3.009   2.461  19.846  0.00  0.00    +0.000 C 
ATOM     18  O   UNL     1       1.708   2.236  20.409  0.00  0.00    +0.000 OA
ATOM     19  C   UNL     1       0.778   3.269  20.047  0.00  0.00    +0.000 C 
ATOM     20  C   UNL     1       1.291   4.650  20.479  0.00  0.00    +0.000 C 
ENDBRANCH  12  15
ENDBRANCH   7  12
ENDBRANCH   2   5
BRANCH   1  23
ATOM     21  C   UNL     1       8.347   9.293  18.352  0.00  0.00    +0.000 C 
ATOM     22  O   UNL     1       7.340   9.581  17.713  0.00  0.00    +0.000 OA
ATOM     23  N   UNL     1       8.632   8.020  18.791  0.00  0.00    +0.000 N 
ATOM     24  H   UNL     1       9.405   7.767  19.393  0.00  0.00    +0.000 HD
BRANCH  21  29
ATOM     25  C   UNL     1      10.139  11.916  20.398  0.00  0.00    +0.000 A 
ATOM     26  C   UNL     1      11.003  12.424  19.423  0.00  0.00    +0.000 A 
ATOM     27  C   UNL     1      11.046  11.883  18.132  0.00  0.00    +0.000 A 
ATOM     28  C   UNL     1      10.204  10.823  17.813  0.00  0.00    +0.000 A 
ATOM     29  C   UNL     1       9.313  10.333  18.774  0.00  0.00    +0.000 A 
ATOM     30  C   UNL     1       9.301  10.856  20.074  0.00  0.00    +0.000 A 
BRANCH  25  32
ATOM     31  C   UNL     1      10.075  13.969  21.607  0.00  0.00    +0.000 C 
ATOM     32  O   UNL     1      10.187  12.548  21.610  0.00  0.00    +0.000 OA
ENDBRANCH  25  32
BRANCH  27  33
ATOM     33  O   UNL     1      11.924  12.486  17.273  0.00  0.00    +0.000 OA
ATOM     34  C   UNL     1      12.090  13.894  17.412  0.00  0.00    +0.000 C 
ENDBRANCH  27  33
ENDBRANCH  21  29
ENDBRANCH   1  23
TORSDOF 7
ENDMDL
MODEL 3
REMARK VINA RESULT:      -8.1      0.644      2.070
REMARK  Name = 
REMARK  9 active torsions:
REMARK  status: ('A' for Active; 'I' for Inactive)
REMARK    1  A    between atoms: C_1  and  O_2
REMARK    2  A    between atoms: O_2  and  C_3
REMARK    3  A    between atoms: C_5  and  O_6
REMARK    4  A    between atoms: O_6  and  C_7
REMARK    5  A    between atoms: C_9  and  C_10
REMARK    6  A    between atoms: N_12  and  N_13
REMARK    7  A    between atoms: C_14  and  C_16
REMARK    8  A    between atoms: C_18  and  S_19
REMARK    9  A    between atoms: S_19  and  N_22
REMARK                            x       y       z     vdW  Elec       q    Type
REMARK                         _______ _______ _______ _____ _____    ______ ____
ROOT
ATOM      1  N   UNL     1       1.564   8.556  19.672  0.00  0.00    +0.000 N 
ATOM      2  C   UNL     1       1.270   8.777  20.997  0.00  0.00    +0.000 C 
ATOM      3  O   UNL     1       1.812   8.184  21.925  0.00  0.00    +0.000 OA
ATOM      4  H   UNL     1       1.024   8.949  18.900  0.00  0.00    +0.000 HD
ENDROOT
BRANCH   2   5
ATOM      5  C   UNL     1       0.189   9.754  21.248  0.00  0.00    +0.000 A 
ATOM      6  C   UNL     1      -0.489  10.319  20.156  0.00  0.00    +0.000 A 
ATOM      7  C   UNL     1      -1.461  11.291  20.402  0.00  0.00    +0.000 A 
ATOM      8  C   UNL     1      -1.765  11.691  21.712  0.00  0.00    +0.000 A 
ATOM      9  C   UNL     1      -1.115  11.095  22.790  0.00  0.00    +0.000 A 
ATOM     10  C   UNL     1      -0.151  10.127  22.551  0.00  0.00    +0.000 A 
ATOM     11  F   UNL     1       0.444   9.558  23.611  0.00  0.00    +0.000 F 
BRANCH   7  12
ATOM     12  S   UNL     1      -2.436  11.936  19.066  0.00  0.00    +0.000 S 
ATOM     13  O   UNL     1      -3.478  12.739  19.669  0.00  0.00    +0.000 OA
ATOM     14  O   UNL     1      -1.515  12.518  18.116  0.00  0.00    +0.000 OA
BRANCH  12  15
ATOM     15  N   UNL     1      -3.182  10.592  18.323  0.00  0.00    +0.000 NA
ATOM     16  C   UNL     1      -2.505   9.956  17.149  0.00  0.00    +0.000 C 
ATOM     17  C   UNL     1      -2.658  10.793  15.874  0.00  0.00    +0.000 C 
ATOM     18  O   UNL     1      -4.035  11.069  15.576  0.00  0.00    +0.000 OA
ATOM     19  C   UNL     1      -4.706  11.709  16.673  0.00  0.00    +0.000 C 
ATOM     20  C   UNL     1      -4.619  10.856  17.947  0.00  0.00    +0.000 C 
ENDBRANCH  12  15
ENDBRANCH   7  12
ENDBRANCH   2   5
BRANCH   1  23
ATOM     21  C   UNL     1       2.985   7.504  18.099  0.00  0.00    +0.000 C 
ATOM     22  O   UNL     1       2.754   8.351  17.241  0.00  0.00    +0.000 OA
ATOM     23  N   UNL     1       2.416   7.516  19.352  0.00  0.00    +0.000 N 
ATOM     24  H   UNL     1       2.652   6.886  20.109  0.00  0.00    +0.000 HD
BRANCH  21  29
ATOM     25  C   UNL     1       5.540   5.264  16.448  0.00  0.00    +0.000 A 
ATOM     26  C   UNL     1       5.640   4.264  17.421  0.00  0.00    +0.000 A 
ATOM     27  C   UNL     1       4.931   4.345  18.625  0.00  0.00    +0.000 A 
ATOM     28  C   UNL     1       4.103   5.439  18.853  0.00  0.00    +0.000 A 
ATOM     29  C   UNL     1       3.974   6.425  17.869  0.00  0.00    +0.000 A 
ATOM     30  C   UNL     1       4.714   6.356  16.682  0.00  0.00    +0.000 A 
BRANCH  25  32
ATOM     31  C   UNL     1       5.665   4.277  14.282  0.00  0.00    +0.000 C 
ATOM     32  O   UNL     1       6.273   5.051  15.313  0.00  0.00    +0.000 OA
ENDBRANCH  25  32
BRANCH  27  33
ATOM     33  O   UNL     1       5.106   3.292  19.481  0.00  0.00    +0.000 OA
ATOM     34  C   UNL     1       3.925   2.636  19.937  0.00  0.00    +0.000 C 
ENDBRANCH  27  33
ENDBRANCH  21  29
ENDBRANCH   1  23
TORSDOF 7
ENDMDL
MODEL 4
REMARK VINA RESULT:      -7.9      3.155      4.272
REMARK  Name = 
REMARK  9 active torsions:
REMARK  status: ('A' for Active; 'I' for Inactive)
REMARK    1  A    between atoms: C_1  and  O_2
REMARK    2  A    between atoms: O_2  and  C_3
REMARK    3  A    between atoms: C_5  and  O_6
REMARK    4  A    between atoms: O_6  and  C_7
REMARK    5  A    between atoms: C_9  and  C_10
REMARK    6  A    between atoms: N_12  and  N_13
REMARK    7  A    between atoms: C_14  and  C_16
REMARK    8  A    between atoms: C_18  and  S_19
REMARK    9  A    between atoms: S_19  and  N_22
REMARK                            x       y       z     vdW  Elec       q    Type
REMARK                         _______ _______ _______ _____ _____    ______ ____
ROOT
ATOM      1  N   UNL     1       1.717   8.750  20.933  0.00  0.00    +0.000 N 
ATOM      2  C   UNL     1       0.413   8.964  21.314  0.00  0.00    +0.000 C 
ATOM      3  O   UNL     1      -0.429   8.075  21.393  0.00  0.00    +0.000 OA
ATOM      4  H   UNL     1       2.380   9.502  20.739  0.00  0.00    +0.000 HD
ENDROOT
BRANCH   2   5
ATOM      5  C   UNL     1       0.056  10.375  21.572  0.00  0.00    +0.000 A 
ATOM      6  C   UNL     1       0.560  11.374  20.724  0.00  0.00    +0.000 A 
ATOM      7  C   UNL     1       0.271  12.709  21.017  0.00  0.00    +0.000 A 
ATOM      8  C   UNL     1      -0.514  13.050  22.128  0.00  0.00    +0.000 A 
ATOM      9  C   UNL     1      -1.043  12.049  22.939  0.00  0.00    +0.000 A 
ATOM     10  C   UNL     1      -0.762  10.722  22.651  0.00  0.00    +0.000 A 
ATOM     11  F   UNL     1      -1.302   9.779  23.440  0.00  0.00    +0.000 F 
BRANCH   7  12
ATOM     12  S   UNL     1       0.775  13.995  19.902  0.00  0.00    +0.000 S 
ATOM     13  O   UNL     1       0.054  13.772  18.667  0.00  0.00    +0.000 OA
ATOM     14  O   UNL     1       0.645  15.246  20.614  0.00  0.00    +0.000 OA
BRANCH  12  15
ATOM     15  N   UNL     1       2.434  13.737  19.587  0.00  0.00    +0.000 NA
ATOM     16  C   UNL     1       3.439  14.307  20.538  0.00  0.00    +0.000 C 
ATOM     17  C   UNL     1       3.603  15.822  20.361  0.00  0.00    +0.000 C 
ATOM     18  O   UNL     1       3.930  16.171  19.008  0.00  0.00    +0.000 OA
ATOM     19  C   UNL     1       2.965  15.663  18.072  0.00  0.00    +0.000 C 
ATOM     20  C   UNL     1       2.832  14.138  18.189  0.00  0.00    +0.000 C 
ENDBRANCH  12  15
ENDBRANCH   7  12
ENDBRANCH   2   5
BRANCH   1  23
ATOM     21  C   UNL     1       2.443   7.355  19.164  0.00  0.00    +0.000 C 
ATOM     22  O   UNL     1       2.445   8.283  18.360  0.00  0.00    +0.000 OA
ATOM     23  N   UNL     1       2.073   7.493  20.483  0.00  0.00    +0.000 N 
ATOM     24  H   UNL     1       2.145   6.772  21.190  0.00  0.00    +0.000 HD
BRANCH  21  29
ATOM     25  C   UNL     1       2.500   3.712  18.168  0.00  0.00    +0.000 A 
ATOM     26  C   UNL     1       3.869   3.454  18.299  0.00  0.00    +0.000 A 
ATOM     27  C   UNL     1       4.771   4.466  18.648  0.00  0.00    +0.000 A 
ATOM     28  C   UNL     1       4.293   5.751  18.880  0.00  0.00    +0.000 A 
ATOM     29  C   UNL     1       2.921   6.007  18.784  0.00  0.00    +0.000 A 
ATOM     30  C   UNL     1       2.029   4.998  18.398  0.00  0.00    +0.000 A 
BRANCH  25  32
ATOM     31  C   UNL     1       0.763   2.205  18.795  0.00  0.00    +0.000 C 
ATOM     32  O   UNL     1       1.730   2.630  17.838  0.00  0.00    +0.000 OA
ENDBRANCH  25  32
BRANCH  27  33
ATOM     33  O   UNL     1       6.078   4.074  18.758  0.00  0.00    +0.000 OA
ATOM     34  C   UNL     1       7.048   4.897  18.116  0.00  0.00    +0.000 C 
ENDBRANCH  27  33
ENDBRANCH  21  29
ENDBRANCH   1  23
TORSDOF 7
ENDMDL
MODEL 5
REMARK VINA RESULT:      -7.9      3.580     10.204
REMARK  Name = 
REMARK  9 active torsions:
REMARK  status: ('A' for Active; 'I' for Inactive)
REMARK    1  A    between atoms: C_1  and  O_2
REMARK    2  A    between atoms: O_2  and  C_3
REMARK    3  A    between atoms: C_5  and  O_6
REMARK    4  A    between atoms: O_6  and  C_7
REMARK    5  A    between atoms: C_9  and  C_10
REMARK    6  A    between atoms: N_12  and  N_13
REMARK    7  A    between atoms: C_14  and  C_16
REMARK    8  A    between atoms: C_18  and  S_19
REMARK    9  A    between atoms: S_19  and  N_22
REMARK                            x       y       z     vdW  Elec       q    Type
REMARK                         _______ _______ _______ _____ _____    ______ ____
ROOT
ATOM      1  N   UNL     1       0.428  10.770  20.957  0.00  0.00    +0.000 N 
ATOM      2  C   UNL     1       0.282   9.407  20.854  0.00  0.00    +0.000 C 
ATOM      3  O   UNL     1      -0.474   8.746  21.560  0.00  0.00    +0.000 OA
ATOM      4  H   UNL     1       1.149  11.300  20.466  0.00  0.00    +0.000 HD
ENDROOT
BRANCH   2   5
ATOM      5  C   UNL     1       1.158   8.753  19.858  0.00  0.00    +0.000 A 
ATOM      6  C   UNL     1       1.756   7.523  20.176  0.00  0.00    +0.000 A 
ATOM      7  C   UNL     1       2.634   6.948  19.255  0.00  0.00    +0.000 A 
ATOM      8  C   UNL     1       2.910   7.577  18.032  0.00  0.00    +0.000 A 
ATOM      9  C   UNL     1       2.280   8.777  17.710  0.00  0.00    +0.000 A 
ATOM     10  C   UNL     1       1.405   9.351  18.620  0.00  0.00    +0.000 A 
ATOM     11  F   UNL     1       0.799  10.498  18.272  0.00  0.00    +0.000 F 
BRANCH   7  12
ATOM     12  S   UNL     1       3.309   5.334  19.555  0.00  0.00    +0.000 S 
ATOM     13  O   UNL     1       4.749   5.485  19.553  0.00  0.00    +0.000 OA
ATOM     14  O   UNL     1       2.627   4.800  20.711  0.00  0.00    +0.000 OA
BRANCH  12  15
ATOM     15  N   UNL     1       2.887   4.378  18.204  0.00  0.00    +0.000 NA
ATOM     16  C   UNL     1       1.500   3.820  18.128  0.00  0.00    +0.000 C 
ATOM     17  C   UNL     1       1.306   2.632  19.077  0.00  0.00    +0.000 C 
ATOM     18  O   UNL     1       2.280   1.601  18.852  0.00  0.00    +0.000 OA
ATOM     19  C   UNL     1       3.624   2.099  18.949  0.00  0.00    +0.000 C 
ATOM     20  C   UNL     1       3.859   3.250  17.961  0.00  0.00    +0.000 C 
ENDBRANCH  12  15
ENDBRANCH   7  12
ENDBRANCH   2   5
BRANCH   1  23
ATOM     21  C   UNL     1      -1.261  12.252  21.700  0.00  0.00    +0.000 C 
ATOM     22  O   UNL     1      -1.653  12.466  20.556  0.00  0.00    +0.000 OA
ATOM     23  N   UNL     1      -0.204  11.423  21.998  0.00  0.00    +0.000 N 
ATOM     24  H   UNL     1       0.087  11.156  22.931  0.00  0.00    +0.000 HD
BRANCH  21  29
ATOM     25  C   UNL     1      -3.865  12.936  24.350  0.00  0.00    +0.000 A 
ATOM     26  C   UNL     1      -3.313  14.082  24.931  0.00  0.00    +0.000 A 
ATOM     27  C   UNL     1      -2.081  14.594  24.507  0.00  0.00    +0.000 A 
ATOM     28  C   UNL     1      -1.397  13.953  23.481  0.00  0.00    +0.000 A 
ATOM     29  C   UNL     1      -1.960  12.825  22.873  0.00  0.00    +0.000 A 
ATOM     30  C   UNL     1      -3.176  12.297  23.326  0.00  0.00    +0.000 A 
BRANCH  25  32
ATOM     31  C   UNL     1      -6.218  12.760  24.013  0.00  0.00    +0.000 C 
ATOM     32  O   UNL     1      -5.081  12.555  24.847  0.00  0.00    +0.000 OA
ENDBRANCH  25  32
BRANCH  27  33
ATOM     33  O   UNL     1      -1.665  15.730  25.148  0.00  0.00    +0.000 OA
ATOM     34  C   UNL     1      -0.589  16.445  24.548  0.00  0.00    +0.000 C 
ENDBRANCH  27  33
ENDBRANCH  21  29
ENDBRANCH   1  23
TORSDOF 7
ENDMDL
MODEL 6
REMARK VINA RESULT:      -7.8      3.360      4.446
REMARK  Name = 
REMARK  9 active torsions:
REMARK  status: ('A' for Active; 'I' for Inactive)
REMARK    1  A    between atoms: C_1  and  O_2
REMARK    2  A    between atoms: O_2  and  C_3
REMARK    3  A    between atoms: C_5  and  O_6
REMARK    4  A    between atoms: O_6  and  C_7
REMARK    5  A    between atoms: C_9  and  C_10
REMARK    6  A    between atoms: N_12  and  N_13
REMARK    7  A    between atoms: C_14  and  C_16
REMARK    8  A    between atoms: C_18  and  S_19
REMARK    9  A    between atoms: S_19  and  N_22
REMARK                            x       y       z     vdW  Elec       q    Type
REMARK                         _______ _______ _______ _____ _____    ______ ____
ROOT
ATOM      1  N   UNL     1       1.617   8.829  21.369  0.00  0.00    +0.000 N 
ATOM      2  C   UNL     1       0.291   9.161  21.518  0.00  0.00    +0.000 C 
ATOM      3  O   UNL     1      -0.626   8.348  21.469  0.00  0.00    +0.000 OA
ATOM      4  H   UNL     1       2.365   9.518  21.277  0.00  0.00    +0.000 HD
ENDROOT
BRANCH   2   5
ATOM      5  C   UNL     1       0.018  10.605  21.683  0.00  0.00    +0.000 A 
ATOM      6  C   UNL     1       0.618  11.520  20.804  0.00  0.00    +0.000 A 
ATOM      7  C   UNL     1       0.408  12.885  21.011  0.00  0.00    +0.000 A 
ATOM      8  C   UNL     1      -0.393  13.338  22.070  0.00  0.00    +0.000 A 
ATOM      9  C   UNL     1      -1.017  12.421  22.912  0.00  0.00    +0.000 A 
ATOM     10  C   UNL     1      -0.813  11.064  22.709  0.00  0.00    +0.000 A 
ATOM     11  F   UNL     1      -1.443  10.204  23.526  0.00  0.00    +0.000 F 
BRANCH   7  12
ATOM     12  S   UNL     1       1.036  14.071  19.849  0.00  0.00    +0.000 S 
ATOM     13  O   UNL     1       0.443  13.743  18.569  0.00  0.00    +0.000 OA
ATOM     14  O   UNL     1       0.845  15.378  20.435  0.00  0.00    +0.000 OA
BRANCH  12  15
ATOM     15  N   UNL     1       2.715  13.785  19.730  0.00  0.00    +0.000 NA
ATOM     16  C   UNL     1       3.642  14.613  20.565  0.00  0.00    +0.000 C 
ATOM     17  C   UNL     1       3.806  16.031  20.006  0.00  0.00    +0.000 C 
ATOM     18  O   UNL     1       4.230  16.022  18.635  0.00  0.00    +0.000 OA
ATOM     19  C   UNL     1       3.342  15.260  17.801  0.00  0.00    +0.000 C 
ATOM     20  C   UNL     1       3.213  13.817  18.307  0.00  0.00    +0.000 C 
ENDBRANCH  12  15
ENDBRANCH   7  12
ENDBRANCH   2   5
BRANCH   1  23
ATOM     21  C   UNL     1       2.260   7.283  19.696  0.00  0.00    +0.000 C 
ATOM     22  O   UNL     1       2.256   8.144  18.821  0.00  0.00    +0.000 OA
ATOM     23  N   UNL     1       1.934   7.533  21.010  0.00  0.00    +0.000 N 
ATOM     24  H   UNL     1       2.014   6.869  21.770  0.00  0.00    +0.000 HD
BRANCH  21  29
ATOM     25  C   UNL     1       2.604   3.523  19.827  0.00  0.00    +0.000 A 
ATOM     26  C   UNL     1       3.718   3.361  18.996  0.00  0.00    +0.000 A 
ATOM     27  C   UNL     1       4.314   4.452  18.354  0.00  0.00    +0.000 A 
ATOM     28  C   UNL     1       3.793   5.725  18.555  0.00  0.00    +0.000 A 
ATOM     29  C   UNL     1       2.700   5.898  19.411  0.00  0.00    +0.000 A 
ATOM     30  C   UNL     1       2.085   4.798  20.022  0.00  0.00    +0.000 A 
BRANCH  25  32
ATOM     31  C   UNL     1       1.599   2.483  21.722  0.00  0.00    +0.000 C 
ATOM     32  O   UNL     1       2.131   2.377  20.404  0.00  0.00    +0.000 OA
ENDBRANCH  25  32
BRANCH  27  33
ATOM     33  O   UNL     1       5.406   4.154  17.585  0.00  0.00    +0.000 OA
ATOM     34  C   UNL     1       5.232   4.227  16.172  0.00  0.00    +0.000 C 
ENDBRANCH  27  33
ENDBRANCH  21  29
ENDBRANCH   1  23
TORSDOF 7
ENDMDL
MODEL 7
REMARK VINA RESULT:      -7.8      3.690     10.320
REMARK  Name = 
REMARK  9 active torsions:
REMARK  status: ('A' for Active; 'I' for Inactive)
REMARK    1  A    between atoms: C_1  and  O_2
REMARK    2  A    between atoms: O_2  and  C_3
REMARK    3  A    between atoms: C_5  and  O_6
REMARK    4  A    between atoms: O_6  and  C_7
REMARK    5  A    between atoms: C_9  and  C_10
REMARK    6  A    between atoms: N_12  and  N_13
REMARK    7  A    between atoms: C_14  and  C_16
REMARK    8  A    between atoms: C_18  and  S_19
REMARK    9  A    between atoms: S_19  and  N_22
REMARK                            x       y       z     vdW  Elec       q    Type
REMARK                         _______ _______ _______ _____ _____    ______ ____
ROOT
ATOM      1  N   UNL     1       0.593  10.297  21.304  0.00  0.00    +0.000 N 
ATOM      2  C   UNL     1       0.202   9.863  20.060  0.00  0.00    +0.000 C 
ATOM      3  O   UNL     1      -0.899  10.095  19.570  0.00  0.00    +0.000 OA
ATOM      4  H   UNL     1       1.452   9.994  21.765  0.00  0.00    +0.000 HD
ENDROOT
BRANCH   2   5
ATOM      5  C   UNL     1       1.189   9.023  19.347  0.00  0.00    +0.000 A 
ATOM      6  C   UNL     1       1.478   7.740  19.839  0.00  0.00    +0.000 A 
ATOM      7  C   UNL     1       2.461   6.983  19.198  0.00  0.00    +0.000 A 
ATOM      8  C   UNL     1       3.142   7.485  18.079  0.00  0.00    +0.000 A 
ATOM      9  C   UNL     1       2.819   8.742  17.575  0.00  0.00    +0.000 A 
ATOM     10  C   UNL     1       1.842   9.497  18.206  0.00  0.00    +0.000 A 
ATOM     11  F   UNL     1       1.540  10.697  17.684  0.00  0.00    +0.000 F 
BRANCH   7  12
ATOM     12  S   UNL     1       2.766   5.308  19.702  0.00  0.00    +0.000 S 
ATOM     13  O   UNL     1       4.196   5.193  19.896  0.00  0.00    +0.000 OA
ATOM     14  O   UNL     1       1.851   5.020  20.783  0.00  0.00    +0.000 OA
BRANCH  12  15
ATOM     15  N   UNL     1       2.342   4.322  18.374  0.00  0.00    +0.000 NA
ATOM     16  C   UNL     1       1.173   3.397  18.515  0.00  0.00    +0.000 C 
ATOM     17  C   UNL     1       1.512   2.168  19.367  0.00  0.00    +0.000 C 
ATOM     18  O   UNL     1       2.658   1.465  18.863  0.00  0.00    +0.000 OA
ATOM     19  C   UNL     1       3.806   2.320  18.746  0.00  0.00    +0.000 C 
ATOM     20  C   UNL     1       3.507   3.525  17.844  0.00  0.00    +0.000 C 
ENDBRANCH  12  15
ENDBRANCH   7  12
ENDBRANCH   2   5
BRANCH   1  23
ATOM     21  C   UNL     1      -0.309  12.284  22.221  0.00  0.00    +0.000 C 
ATOM     22  O   UNL     1       0.529  12.987  21.664  0.00  0.00    +0.000 OA
ATOM     23  N   UNL     1      -0.346  10.912  22.111  0.00  0.00    +0.000 N 
ATOM     24  H   UNL     1      -1.073  10.314  22.483  0.00  0.00    +0.000 HD
BRANCH  21  29
ATOM     25  C   UNL     1      -2.290  14.611  24.442  0.00  0.00    +0.000 A 
ATOM     26  C   UNL     1      -3.434  13.831  24.638  0.00  0.00    +0.000 A 
ATOM     27  C   UNL     1      -3.587  12.589  24.009  0.00  0.00    +0.000 A 
ATOM     28  C   UNL     1      -2.575  12.120  23.180  0.00  0.00    +0.000 A 
ATOM     29  C   UNL     1      -1.413  12.880  23.007  0.00  0.00    +0.000 A 
ATOM     30  C   UNL     1      -1.283  14.138  23.610  0.00  0.00    +0.000 A 
BRANCH  25  32
ATOM     31  C   UNL     1      -1.353  15.890  26.222  0.00  0.00    +0.000 C 
ATOM     32  O   UNL     1      -2.263  15.793  25.129  0.00  0.00    +0.000 OA
ENDBRANCH  25  32
BRANCH  27  33
ATOM     33  O   UNL     1      -4.746  11.923  24.301  0.00  0.00    +0.000 OA
ATOM     34  C   UNL     1      -5.956  12.670  24.198  0.00  0.00    +0.000 C 
ENDBRANCH  27  33
ENDBRANCH  21  29
ENDBRANCH   1  23
TORSDOF 7
ENDMDL
MODEL 8
REMARK VINA RESULT:      -7.8      3.317      4.879
REMARK  Name = 
REMARK  9 active torsions:
REMARK  status: ('A' for Active; 'I' for Inactive)
REMARK    1  A    between atoms: C_1  and  O_2
REMARK    2  A    between atoms: O_2  and  C_3
REMARK    3  A    between atoms: C_5  and  O_6
REMARK    4  A    between atoms: O_6  and  C_7
REMARK    5  A    between atoms: C_9  and  C_10
REMARK    6  A    between atoms: N_12  and  N_13
REMARK    7  A    between atoms: C_14  and  C_16
REMARK    8  A    between atoms: C_18  and  S_19
REMARK    9  A    between atoms: S_19  and  N_22
REMARK                            x       y       z     vdW  Elec       q    Type
REMARK                         _______ _______ _______ _____ _____    ______ ____
ROOT
ATOM      1  N   UNL     1       1.581   8.891  21.042  0.00  0.00    +0.000 N 
ATOM      2  C   UNL     1       0.290   9.194  21.404  0.00  0.00    +0.000 C 
ATOM      3  O   UNL     1      -0.592   8.354  21.557  0.00  0.00    +0.000 OA
ATOM      4  H   UNL     1       2.276   9.593  20.787  0.00  0.00    +0.000 HD
ENDROOT
BRANCH   2   5
ATOM      5  C   UNL     1      -0.003  10.637  21.544  0.00  0.00    +0.000 A 
ATOM      6  C   UNL     1       0.499  11.532  20.586  0.00  0.00    +0.000 A 
ATOM      7  C   UNL     1       0.274  12.899  20.765  0.00  0.00    +0.000 A 
ATOM      8  C   UNL     1      -0.446  13.372  21.872  0.00  0.00    +0.000 A 
ATOM      9  C   UNL     1      -0.974  12.472  22.794  0.00  0.00    +0.000 A 
ATOM     10  C   UNL     1      -0.756  11.114  22.620  0.00  0.00    +0.000 A 
ATOM     11  F   UNL     1      -1.295  10.271  23.516  0.00  0.00    +0.000 F 
BRANCH   7  12
ATOM     12  S   UNL     1       0.774  14.056  19.514  0.00  0.00    +0.000 S 
ATOM     13  O   UNL     1       0.840  13.313  18.273  0.00  0.00    +0.000 OA
ATOM     14  O   UNL     1      -0.090  15.208  19.637  0.00  0.00    +0.000 OA
BRANCH  12  15
ATOM     15  N   UNL     1       2.362  14.540  19.914  0.00  0.00    +0.000 NA
ATOM     16  C   UNL     1       2.544  15.751  20.774  0.00  0.00    +0.000 C 
ATOM     17  C   UNL     1       2.303  17.051  19.996  0.00  0.00    +0.000 C 
ATOM     18  O   UNL     1       3.126  17.133  18.823  0.00  0.00    +0.000 OA
ATOM     19  C   UNL     1       2.950  15.999  17.960  0.00  0.00    +0.000 C 
ATOM     20  C   UNL     1       3.248  14.689  18.703  0.00  0.00    +0.000 C 
ENDBRANCH  12  15
ENDBRANCH   7  12
ENDBRANCH   2   5
BRANCH   1  23
ATOM     21  C   UNL     1       2.296   7.332  19.411  0.00  0.00    +0.000 C 
ATOM     22  O   UNL     1       2.391   8.198  18.546  0.00  0.00    +0.000 OA
ATOM     23  N   UNL     1       1.879   7.586  20.697  0.00  0.00    +0.000 N 
ATOM     24  H   UNL     1       1.875   6.915  21.455  0.00  0.00    +0.000 HD
BRANCH  21  29
ATOM     25  C   UNL     1       3.912   4.294  17.852  0.00  0.00    +0.000 A 
ATOM     26  C   UNL     1       3.260   3.287  18.570  0.00  0.00    +0.000 A 
ATOM     27  C   UNL     1       2.349   3.590  19.589  0.00  0.00    +0.000 A 
ATOM     28  C   UNL     1       2.082   4.922  19.886  0.00  0.00    +0.000 A 
ATOM     29  C   UNL     1       2.707   5.934  19.148  0.00  0.00    +0.000 A 
ATOM     30  C   UNL     1       3.644   5.623  18.155  0.00  0.00    +0.000 A 
BRANCH  25  32
ATOM     31  C   UNL     1       5.248   4.832  15.953  0.00  0.00    +0.000 C 
ATOM     32  O   UNL     1       4.763   3.858  16.873  0.00  0.00    +0.000 OA
ENDBRANCH  25  32
BRANCH  27  33
ATOM     33  O   UNL     1       1.769   2.510  20.198  0.00  0.00    +0.000 OA
ATOM     34  C   UNL     1       1.489   2.636  21.589  0.00  0.00    +0.000 C 
ENDBRANCH  27  33
ENDBRANCH  21  29
ENDBRANCH   1  23
TORSDOF 7
ENDMDL
MODEL 9
REMARK VINA RESULT:      -7.8      3.147      3.969
REMARK  Name = 
REMARK  9 active torsions:
REMARK  status: ('A' for Active; 'I' for Inactive)
REMARK    1  A    between atoms: C_1  and  O_2
REMARK    2  A    between atoms: O_2  and  C_3
REMARK    3  A    between atoms: C_5  and  O_6
REMARK    4  A    between atoms: O_6  and  C_7
REMARK    5  A    between atoms: C_9  and  C_10
REMARK    6  A    between atoms: N_12  and  N_13
REMARK    7  A    between atoms: C_14  and  C_16
REMARK    8  A    between atoms: C_18  and  S_19
REMARK    9  A    between atoms: S_19  and  N_22
REMARK                            x       y       z     vdW  Elec       q    Type
REMARK                         _______ _______ _______ _____ _____    ______ ____
ROOT
ATOM      1  N   UNL     1       1.553   8.841  20.956  0.00  0.00    +0.000 N 
ATOM      2  C   UNL     1       0.273   9.120  21.371  0.00  0.00    +0.000 C 
ATOM      3  O   UNL     1      -0.581   8.261  21.572  0.00  0.00    +0.000 OA
ATOM      4  H   UNL     1       2.220   9.557  20.661  0.00  0.00    +0.000 HD
ENDROOT
BRANCH   2   5
ATOM      5  C   UNL     1      -0.048  10.557  21.505  0.00  0.00    +0.000 A 
ATOM      6  C   UNL     1       0.402  11.453  20.523  0.00  0.00    +0.000 A 
ATOM      7  C   UNL     1       0.152  12.816  20.695  0.00  0.00    +0.000 A 
ATOM      8  C   UNL     1      -0.542  13.285  21.820  0.00  0.00    +0.000 A 
ATOM      9  C   UNL     1      -1.020  12.384  22.768  0.00  0.00    +0.000 A 
ATOM     10  C   UNL     1      -0.777  11.029  22.600  0.00  0.00    +0.000 A 
ATOM     11  F   UNL     1      -1.267  10.183  23.522  0.00  0.00    +0.000 F 
BRANCH   7  12
ATOM     12  S   UNL     1       0.584  13.970  19.417  0.00  0.00    +0.000 S 
ATOM     13  O   UNL     1       1.997  13.787  19.161  0.00  0.00    +0.000 OA
ATOM     14  O   UNL     1      -0.383  13.805  18.356  0.00  0.00    +0.000 OA
BRANCH  12  15
ATOM     15  N   UNL     1       0.376  15.528  20.085  0.00  0.00    +0.000 NA
ATOM     16  C   UNL     1      -0.784  16.354  19.624  0.00  0.00    +0.000 C 
ATOM     17  C   UNL     1      -0.551  16.943  18.227  0.00  0.00    +0.000 C 
ATOM     18  O   UNL     1       0.668  17.698  18.161  0.00  0.00    +0.000 OA
ATOM     19  C   UNL     1       1.806  16.922  18.568  0.00  0.00    +0.000 C 
ATOM     20  C   UNL     1       1.620  16.374  19.990  0.00  0.00    +0.000 C 
ENDBRANCH  12  15
ENDBRANCH   7  12
ENDBRANCH   2   5
BRANCH   1  23
ATOM     21  C   UNL     1       2.277   7.286  19.325  0.00  0.00    +0.000 C 
ATOM     22  O   UNL     1       2.351   8.149  18.455  0.00  0.00    +0.000 OA
ATOM     23  N   UNL     1       1.867   7.539  20.614  0.00  0.00    +0.000 N 
ATOM     24  H   UNL     1       1.879   6.872  21.375  0.00  0.00    +0.000 HD
BRANCH  21  29
ATOM     25  C   UNL     1       2.943   3.592  19.755  0.00  0.00    +0.000 A 
ATOM     26  C   UNL     1       3.724   3.361  18.618  0.00  0.00    +0.000 A 
ATOM     27  C   UNL     1       3.983   4.378  17.691  0.00  0.00    +0.000 A 
ATOM     28  C   UNL     1       3.458   5.646  17.913  0.00  0.00    +0.000 A 
ATOM     29  C   UNL     1       2.705   5.892  19.066  0.00  0.00    +0.000 A 
ATOM     30  C   UNL     1       2.419   4.861  19.970  0.00  0.00    +0.000 A 
BRANCH  25  32
ATOM     31  C   UNL     1       1.836   2.644  21.641  0.00  0.00    +0.000 C 
ATOM     32  O   UNL     1       2.784   2.516  20.585  0.00  0.00    +0.000 OA
ENDBRANCH  25  32
BRANCH  27  33
ATOM     33  O   UNL     1       4.775   4.020  16.634  0.00  0.00    +0.000 OA
ATOM     34  C   UNL     1       6.127   4.468  16.669  0.00  0.00    +0.000 C 
ENDBRANCH  27  33
ENDBRANCH  21  29
ENDBRANCH   1  23
TORSDOF 7
ENDMDL
