MODEL 1
REMARK VINA RESULT:      -6.5      0.000      0.000
REMARK  Name = 
REMARK  12 active torsions:
REMARK  status: ('A' for Active; 'I' for Inactive)
REMARK    1  A    between atoms: C_1  and  O_2
REMARK    2  A    between atoms: O_2  and  C_3
REMARK    3  A    between atoms: C_5  and  C_6
REMARK    4  A    between atoms: C_7  and  S_8
REMARK    5  A    between atoms: S_8  and  N_11
REMARK    6  A    between atoms: N_11  and  C_12
REMARK    7  A    between atoms: C_12  and  C_13
REMARK    8  A    between atoms: C_12  and  C_20
REMARK    9  A    between atoms: C_13  and  C_14
REMARK   10  A    between atoms: N_26  and  C_27
REMARK   11  A    between atoms: C_30  and  C_31
REMARK   12  A    between atoms: C_32  and  C_33
REMARK                            x       y       z     vdW  Elec       q    Type
REMARK                         _______ _______ _______ _____ _____    ______ ____
ROOT
ATOM      1  C   UNL     1       0.516  10.015  19.440  0.00  0.00    +0.000 C 
ENDROOT
BRANCH   1   2
ATOM      2  C   UNL     1       1.370   9.049  18.585  0.00  0.00    +0.000 C 
ATOM      3  O   UNL     1       1.400   9.165  17.352  0.00  0.00    +0.000 OA
ATOM      4  N   UNL     1       2.157   8.079  19.216  0.00  0.00    +0.000 N 
ATOM      5  C   UNL     1       2.974   7.255  18.320  0.00  0.00    +0.000 C 
ATOM      6  C   UNL     1       3.809   6.155  18.973  0.00  0.00    +0.000 C 
ATOM      7  C   UNL     1       2.979   4.915  19.337  0.00  0.00    +0.000 C 
ATOM      8  N   UNL     1       2.099   5.045  20.511  0.00  0.00    +0.000 NA
ATOM      9  C   UNL     1       1.362   3.793  20.713  0.00  0.00    +0.000 C 
ATOM     10  C   UNL     1       1.148   6.165  20.418  0.00  0.00    +0.000 C 
ATOM     11  C   UNL     1       1.854   7.528  20.536  0.00  0.00    +0.000 C 
ENDBRANCH   1   2
BRANCH   1  12
ATOM     12  N   UNL     1       0.911  11.392  19.070  0.00  0.00    +0.000 NA
ATOM     13  H   UNL     1       1.342  11.482  18.138  0.00  0.00    +0.000 HD
BRANCH  12  14
ATOM     14  S   UNL     1       1.307  12.626  20.137  0.00  0.00    +0.000 S 
ATOM     15  O   UNL     1       2.017  13.618  19.398  0.00  0.00    +0.000 OA
ATOM     16  O   UNL     1       1.908  12.022  21.308  0.00  0.00    +0.000 OA
BRANCH  14  21
ATOM     17  C   UNL     1      -2.875  14.124  21.325  0.00  0.00    +0.000 A 
ATOM     18  C   UNL     1      -2.141  14.784  20.341  0.00  0.00    +0.000 A 
ATOM     19  C   UNL     1      -0.865  14.355  19.963  0.00  0.00    +0.000 A 
ATOM     20  C   UNL     1      -0.227  15.096  18.815  0.00  0.00    +0.000 C 
ATOM     21  C   UNL     1      -0.301  13.250  20.639  0.00  0.00    +0.000 A 
ATOM     22  C   UNL     1      -1.007  12.596  21.694  0.00  0.00    +0.000 A 
ATOM     23  C   UNL     1      -0.466  11.398  22.441  0.00  0.00    +0.000 C 
ATOM     24  C   UNL     1      -2.316  13.037  22.021  0.00  0.00    +0.000 A 
ATOM     25  C   UNL     1      -3.163  12.332  23.058  0.00  0.00    +0.000 C 
BRANCH  17  27
ATOM     26  C   UNL     1      -4.302  15.827  22.119  0.00  0.00    +0.000 C 
ATOM     27  O   UNL     1      -4.159  14.487  21.655  0.00  0.00    +0.000 OA
ENDBRANCH  17  27
ENDBRANCH  14  21
ENDBRANCH  12  14
ENDBRANCH   1  12
BRANCH   1  28
ATOM     28  C   UNL     1      -0.974   9.659  19.326  0.00  0.00    +0.000 C 
BRANCH  28  29
ATOM     29  C   UNL     1      -1.825  10.339  18.274  0.00  0.00    +0.000 A 
ATOM     30  C   UNL     1      -1.896   9.837  16.969  0.00  0.00    +0.000 A 
ATOM     31  C   UNL     1      -2.905  10.265  16.102  0.00  0.00    +0.000 A 
ATOM     32  C   UNL     1      -3.845  11.206  16.532  0.00  0.00    +0.000 A 
ATOM     33  C   UNL     1      -3.730  11.761  17.791  0.00  0.00    +0.000 A 
ATOM     34  C   UNL     1      -2.722  11.353  18.640  0.00  0.00    +0.000 A 
ENDBRANCH  28  29
ENDBRANCH   1  28
TORSDOF 7
ENDMDL
MODEL 2
REMARK VINA RESULT:      -6.5      2.511      7.887
REMARK  Name = 
REMARK  12 active torsions:
REMARK  status: ('A' for Active; 'I' for Inactive)
REMARK    1  A    between atoms: C_1  and  O_2
REMARK    2  A    between atoms: O_2  and  C_3
REMARK    3  A    between atoms: C_5  and  C_6
REMARK    4  A    between atoms: C_7  and  S_8
REMARK    5  A    between atoms: S_8  and  N_11
REMARK    6  A    between atoms: N_11  and  C_12
REMARK    7  A    between atoms: C_12  and  C_13
REMARK    8  A    between atoms: C_12  and  C_20
REMARK    9  A    between atoms: C_13  and  C_14
REMARK   10  A    between atoms: N_26  and  C_27
REMARK   11  A    between atoms: C_30  and  C_31
REMARK   12  A    between atoms: C_32  and  C_33
REMARK                            x       y       z     vdW  Elec       q    Type
REMARK                         _______ _______ _______ _____ _____    ______ ____
ROOT
ATOM      1  C   UNL     1       0.318  10.700  19.296  0.00  0.00    +0.000 C 
ENDROOT
BRANCH   1   2
ATOM      2  C   UNL     1       0.961  11.761  20.220  0.00  0.00    +0.000 C 
ATOM      3  O   UNL     1       1.119  11.529  21.427  0.00  0.00    +0.000 OA
ATOM      4  N   UNL     1       1.420  12.966  19.674  0.00  0.00    +0.000 N 
ATOM      5  C   UNL     1       2.069  13.877  20.622  0.00  0.00    +0.000 C 
ATOM      6  C   UNL     1       2.539  15.221  20.069  0.00  0.00    +0.000 C 
ATOM      7  C   UNL     1       1.393  16.229  19.902  0.00  0.00    +0.000 C 
ATOM      8  N   UNL     1       0.484  15.996  18.766  0.00  0.00    +0.000 NA
ATOM      9  C   UNL     1      -0.562  17.023  18.755  0.00  0.00    +0.000 C 
ATOM     10  C   UNL     1      -0.138  14.662  18.768  0.00  0.00    +0.000 C 
ATOM     11  C   UNL     1       0.882  13.554  18.448  0.00  0.00    +0.000 C 
ENDBRANCH   1   2
BRANCH   1  12
ATOM     12  N   UNL     1       1.102   9.455  19.448  0.00  0.00    +0.000 NA
ATOM     13  H   UNL     1       1.394   9.243  20.413  0.00  0.00    +0.000 HD
BRANCH  12  14
ATOM     14  S   UNL     1       2.054   8.738  18.264  0.00  0.00    +0.000 S 
ATOM     15  O   UNL     1       3.230   9.533  18.123  0.00  0.00    +0.000 OA
ATOM     16  O   UNL     1       1.210   8.476  17.117  0.00  0.00    +0.000 OA
BRANCH  14  21
ATOM     17  C   UNL     1       2.974   4.596  20.037  0.00  0.00    +0.000 A 
ATOM     18  C   UNL     1       2.134   5.481  20.710  0.00  0.00    +0.000 A 
ATOM     19  C   UNL     1       1.840   6.749  20.197  0.00  0.00    +0.000 A 
ATOM     20  C   UNL     1       0.836   7.564  20.974  0.00  0.00    +0.000 C 
ATOM     21  C   UNL     1       2.457   7.144  18.990  0.00  0.00    +0.000 A 
ATOM     22  C   UNL     1       3.371   6.280  18.314  0.00  0.00    +0.000 A 
ATOM     23  C   UNL     1       4.047   6.637  17.010  0.00  0.00    +0.000 C 
ATOM     24  C   UNL     1       3.612   4.986  18.846  0.00  0.00    +0.000 A 
ATOM     25  C   UNL     1       4.490   3.980  18.134  0.00  0.00    +0.000 C 
BRANCH  17  27
ATOM     26  C   UNL     1       2.374   2.896  21.560  0.00  0.00    +0.000 C 
ATOM     27  O   UNL     1       3.214   3.320  20.488  0.00  0.00    +0.000 OA
ENDBRANCH  17  27
ENDBRANCH  14  21
ENDBRANCH  12  14
ENDBRANCH   1  12
BRANCH   1  28
ATOM     28  C   UNL     1      -1.194  10.610  19.553  0.00  0.00    +0.000 C 
BRANCH  28  29
ATOM     29  C   UNL     1      -2.149  10.569  18.380  0.00  0.00    +0.000 A 
ATOM     30  C   UNL     1      -3.296  11.373  18.354  0.00  0.00    +0.000 A 
ATOM     31  C   UNL     1      -3.994  11.569  17.159  0.00  0.00    +0.000 A 
ATOM     32  C   UNL     1      -3.555  10.954  15.983  0.00  0.00    +0.000 A 
ATOM     33  C   UNL     1      -2.472  10.099  16.022  0.00  0.00    +0.000 A 
ATOM     34  C   UNL     1      -1.794   9.890  17.205  0.00  0.00    +0.000 A 
ENDBRANCH  28  29
ENDBRANCH   1  28
TORSDOF 7
ENDMDL
MODEL 3
REMARK VINA RESULT:      -6.4      1.674      2.191
REMARK  Name = 
REMARK  12 active torsions:
REMARK  status: ('A' for Active; 'I' for Inactive)
REMARK    1  A    between atoms: C_1  and  O_2
REMARK    2  A    between atoms: O_2  and  C_3
REMARK    3  A    between atoms: C_5  and  C_6
REMARK    4  A    between atoms: C_7  and  S_8
REMARK    5  A    between atoms: S_8  and  N_11
REMARK    6  A    between atoms: N_11  and  C_12
REMARK    7  A    between atoms: C_12  and  C_13
REMARK    8  A    between atoms: C_12  and  C_20
REMARK    9  A    between atoms: C_13  and  C_14
REMARK   10  A    between atoms: N_26  and  C_27
REMARK   11  A    between atoms: C_30  and  C_31
REMARK   12  A    between atoms: C_32  and  C_33
REMARK                            x       y       z     vdW  Elec       q    Type
REMARK                         _______ _______ _______ _____ _____    ______ ____
ROOT
ATOM      1  C   UNL     1       0.861   9.088  18.944  0.00  0.00    +0.000 C 
ENDROOT
BRANCH   1   2
ATOM      2  C   UNL     1       2.014   8.223  18.381  0.00  0.00    +0.000 C 
ATOM      3  O   UNL     1       2.452   8.429  17.241  0.00  0.00    +0.000 OA
ATOM      4  N   UNL     1       2.602   7.243  19.190  0.00  0.00    +0.000 N 
ATOM      5  C   UNL     1       3.725   6.521  18.585  0.00  0.00    +0.000 C 
ATOM      6  C   UNL     1       4.359   5.413  19.423  0.00  0.00    +0.000 C 
ATOM      7  C   UNL     1       3.536   4.116  19.415  0.00  0.00    +0.000 C 
ATOM      8  N   UNL     1       2.303   4.124  20.222  0.00  0.00    +0.000 NA
ATOM      9  C   UNL     1       1.624   2.831  20.093  0.00  0.00    +0.000 C 
ATOM     10  C   UNL     1       1.370   5.207  19.871  0.00  0.00    +0.000 C 
ATOM     11  C   UNL     1       1.906   6.586  20.296  0.00  0.00    +0.000 C 
ENDBRANCH   1   2
BRANCH   1  12
ATOM     12  N   UNL     1       1.406   9.851  20.089  0.00  0.00    +0.000 NA
ATOM     13  H   UNL     1       2.430   9.966  20.083  0.00  0.00    +0.000 HD
BRANCH  12  14
ATOM     14  S   UNL     1       0.703   9.989  21.607  0.00  0.00    +0.000 S 
ATOM     15  O   UNL     1       1.733   9.788  22.574  0.00  0.00    +0.000 OA
ATOM     16  O   UNL     1      -0.482   9.158  21.623  0.00  0.00    +0.000 OA
BRANCH  14  21
ATOM     17  C   UNL     1      -0.826  14.325  21.561  0.00  0.00    +0.000 A 
ATOM     18  C   UNL     1       0.311  13.970  20.839  0.00  0.00    +0.000 A 
ATOM     19  C   UNL     1       0.803  12.660  20.839  0.00  0.00    +0.000 A 
ATOM     20  C   UNL     1       1.979  12.392  19.933  0.00  0.00    +0.000 C 
ATOM     21  C   UNL     1       0.144  11.696  21.634  0.00  0.00    +0.000 A 
ATOM     22  C   UNL     1      -0.986  12.049  22.431  0.00  0.00    +0.000 A 
ATOM     23  C   UNL     1      -1.745  11.060  23.286  0.00  0.00    +0.000 C 
ATOM     24  C   UNL     1      -1.478  13.380  22.374  0.00  0.00    +0.000 A 
ATOM     25  C   UNL     1      -2.728  13.804  23.114  0.00  0.00    +0.000 C 
BRANCH  17  27
ATOM     26  C   UNL     1      -0.538  16.614  22.056  0.00  0.00    +0.000 C 
ATOM     27  O   UNL     1      -1.366  15.589  21.513  0.00  0.00    +0.000 OA
ENDBRANCH  17  27
ENDBRANCH  14  21
ENDBRANCH  12  14
ENDBRANCH   1  12
BRANCH   1  28
ATOM     28  C   UNL     1       0.195   9.894  17.818  0.00  0.00    +0.000 C 
BRANCH  28  29
ATOM     29  C   UNL     1      -1.276  10.235  17.915  0.00  0.00    +0.000 A 
ATOM     30  C   UNL     1      -1.742  11.164  18.854  0.00  0.00    +0.000 A 
ATOM     31  C   UNL     1      -3.025  11.706  18.735  0.00  0.00    +0.000 A 
ATOM     32  C   UNL     1      -3.855  11.314  17.680  0.00  0.00    +0.000 A 
ATOM     33  C   UNL     1      -3.428  10.340  16.800  0.00  0.00    +0.000 A 
ATOM     34  C   UNL     1      -2.169   9.791  16.928  0.00  0.00    +0.000 A 
ENDBRANCH  28  29
ENDBRANCH   1  28
TORSDOF 7
ENDMDL
MODEL 4
REMARK VINA RESULT:      -6.3      1.686      2.677
REMARK  Name = 
REMARK  12 active torsions:
REMARK  status: ('A' for Active; 'I' for Inactive)
REMARK    1  A    between atoms: C_1  and  O_2
REMARK    2  A    between atoms: O_2  and  C_3
REMARK    3  A    between atoms: C_5  and  C_6
REMARK    4  A    between atoms: C_7  and  S_8
REMARK    5  A    between atoms: S_8  and  N_11
REMARK    6  A    between atoms: N_11  and  C_12
REMARK    7  A    between atoms: C_12  and  C_13
REMARK    8  A    between atoms: C_12  and  C_20
REMARK    9  A    between atoms: C_13  and  C_14
REMARK   10  A    between atoms: N_26  and  C_27
REMARK   11  A    between atoms: C_30  and  C_31
REMARK   12  A    between atoms: C_32  and  C_33
REMARK                            x       y       z     vdW  Elec       q    Type
REMARK                         _______ _______ _______ _____ _____    ______ ____
ROOT
ATOM      1  C   UNL     1       0.859   9.083  18.922  0.00  0.00    +0.000 C 
ENDROOT
BRANCH   1   2
ATOM      2  C   UNL     1       2.027   8.225  18.379  0.00  0.00    +0.000 C 
ATOM      3  O   UNL     1       2.488   8.436  17.249  0.00  0.00    +0.000 OA
ATOM      4  N   UNL     1       2.601   7.244  19.197  0.00  0.00    +0.000 N 
ATOM      5  C   UNL     1       3.739   6.528  18.612  0.00  0.00    +0.000 C 
ATOM      6  C   UNL     1       4.360   5.419  19.458  0.00  0.00    +0.000 C 
ATOM      7  C   UNL     1       3.542   4.119  19.428  0.00  0.00    +0.000 C 
ATOM      8  N   UNL     1       2.293   4.119  20.209  0.00  0.00    +0.000 NA
ATOM      9  C   UNL     1       1.621   2.824  20.062  0.00  0.00    +0.000 C 
ATOM     10  C   UNL     1       1.364   5.200  19.843  0.00  0.00    +0.000 C 
ATOM     11  C   UNL     1       1.885   6.579  20.285  0.00  0.00    +0.000 C 
ENDBRANCH   1   2
BRANCH   1  12
ATOM     12  N   UNL     1       1.387   9.871  20.058  0.00  0.00    +0.000 NA
ATOM     13  H   UNL     1       2.408  10.012  20.048  0.00  0.00    +0.000 HD
BRANCH  12  14
ATOM     14  S   UNL     1       0.685  10.003  21.577  0.00  0.00    +0.000 S 
ATOM     15  O   UNL     1       1.714   9.790  22.543  0.00  0.00    +0.000 OA
ATOM     16  O   UNL     1      -0.504   9.177  21.589  0.00  0.00    +0.000 OA
BRANCH  14  21
ATOM     17  C   UNL     1      -0.625  14.405  21.787  0.00  0.00    +0.000 A 
ATOM     18  C   UNL     1      -1.337  13.424  22.473  0.00  0.00    +0.000 A 
ATOM     19  C   UNL     1      -0.965  12.076  22.423  0.00  0.00    +0.000 A 
ATOM     20  C   UNL     1      -1.759  11.135  23.295  0.00  0.00    +0.000 C 
ATOM     21  C   UNL     1       0.135  11.713  21.614  0.00  0.00    +0.000 A 
ATOM     22  C   UNL     1       0.841  12.691  20.852  0.00  0.00    +0.000 A 
ATOM     23  C   UNL     1       2.037  12.368  19.985  0.00  0.00    +0.000 C 
ATOM     24  C   UNL     1       0.458  14.054  20.960  0.00  0.00    +0.000 A 
ATOM     25  C   UNL     1       1.220  15.158  20.261  0.00  0.00    +0.000 C 
BRANCH  17  27
ATOM     26  C   UNL     1      -2.323  16.032  21.982  0.00  0.00    +0.000 C 
ATOM     27  O   UNL     1      -0.931  15.742  21.885  0.00  0.00    +0.000 OA
ENDBRANCH  17  27
ENDBRANCH  14  21
ENDBRANCH  12  14
ENDBRANCH   1  12
BRANCH   1  28
ATOM     28  C   UNL     1       0.190   9.863  17.780  0.00  0.00    +0.000 C 
BRANCH  28  29
ATOM     29  C   UNL     1      -1.279  10.212  17.876  0.00  0.00    +0.000 A 
ATOM     30  C   UNL     1      -1.744  11.124  18.832  0.00  0.00    +0.000 A 
ATOM     31  C   UNL     1      -3.022  11.676  18.718  0.00  0.00    +0.000 A 
ATOM     32  C   UNL     1      -3.849  11.314  17.650  0.00  0.00    +0.000 A 
ATOM     33  C   UNL     1      -3.424  10.356  16.751  0.00  0.00    +0.000 A 
ATOM     34  C   UNL     1      -2.169   9.796  16.875  0.00  0.00    +0.000 A 
ENDBRANCH  28  29
ENDBRANCH   1  28
TORSDOF 7
ENDMDL
MODEL 5
REMARK VINA RESULT:      -6.2      4.346      9.819
REMARK  Name = 
REMARK  12 active torsions:
REMARK  status: ('A' for Active; 'I' for Inactive)
REMARK    1  A    between atoms: C_1  and  O_2
REMARK    2  A    between atoms: O_2  and  C_3
REMARK    3  A    between atoms: C_5  and  C_6
REMARK    4  A    between atoms: C_7  and  S_8
REMARK    5  A    between atoms: S_8  and  N_11
REMARK    6  A    between atoms: N_11  and  C_12
REMARK    7  A    between atoms: C_12  and  C_13
REMARK    8  A    between atoms: C_12  and  C_20
REMARK    9  A    between atoms: C_13  and  C_14
REMARK   10  A    between atoms: N_26  and  C_27
REMARK   11  A    between atoms: C_30  and  C_31
REMARK   12  A    between atoms: C_32  and  C_33
REMARK                            x       y       z     vdW  Elec       q    Type
REMARK                         _______ _______ _______ _____ _____    ______ ____
ROOT
ATOM      1  C   UNL     1       3.263   6.087  18.034  0.00  0.00    +0.000 C 
ENDROOT
BRANCH   1   2
ATOM      2  C   UNL     1       3.209   7.628  17.902  0.00  0.00    +0.000 C 
ATOM      3  O   UNL     1       4.150   8.246  17.386  0.00  0.00    +0.000 OA
ATOM      4  N   UNL     1       2.063   8.317  18.316  0.00  0.00    +0.000 N 
ATOM      5  C   UNL     1       2.088   9.766  18.093  0.00  0.00    +0.000 C 
ATOM      6  C   UNL     1       0.872  10.554  18.576  0.00  0.00    +0.000 C 
ATOM      7  C   UNL     1       0.887  10.799  20.092  0.00  0.00    +0.000 C 
ATOM      8  N   UNL     1       0.564   9.639  20.941  0.00  0.00    +0.000 NA
ATOM      9  C   UNL     1       0.641  10.026  22.353  0.00  0.00    +0.000 C 
ATOM     10  C   UNL     1       1.428   8.472  20.703  0.00  0.00    +0.000 C 
ATOM     11  C   UNL     1       1.146   7.817  19.339  0.00  0.00    +0.000 C 
ENDBRANCH   1   2
BRANCH   1  12
ATOM     12  N   UNL     1       4.208   5.775  19.129  0.00  0.00    +0.000 NA
ATOM     13  H   UNL     1       4.253   6.483  19.876  0.00  0.00    +0.000 HD
BRANCH  12  14
ATOM     14  S   UNL     1       5.579   4.813  19.005  0.00  0.00    +0.000 S 
ATOM     15  O   UNL     1       5.171   3.461  19.210  0.00  0.00    +0.000 OA
ATOM     16  O   UNL     1       6.607   5.397  19.841  0.00  0.00    +0.000 OA
BRANCH  14  21
ATOM     17  C   UNL     1       6.990   5.343  14.661  0.00  0.00    +0.000 A 
ATOM     18  C   UNL     1       7.471   6.179  15.667  0.00  0.00    +0.000 A 
ATOM     19  C   UNL     1       7.056   6.044  16.996  0.00  0.00    +0.000 A 
ATOM     20  C   UNL     1       7.733   6.945  17.999  0.00  0.00    +0.000 C 
ATOM     21  C   UNL     1       6.088   5.062  17.300  0.00  0.00    +0.000 A 
ATOM     22  C   UNL     1       5.533   4.236  16.277  0.00  0.00    +0.000 A 
ATOM     23  C   UNL     1       4.510   3.154  16.542  0.00  0.00    +0.000 C 
ATOM     24  C   UNL     1       6.009   4.376  14.947  0.00  0.00    +0.000 A 
ATOM     25  C   UNL     1       5.541   3.470  13.829  0.00  0.00    +0.000 C 
BRANCH  17  27
ATOM     26  C   UNL     1       8.834   5.696  13.232  0.00  0.00    +0.000 C 
ATOM     27  O   UNL     1       7.443   5.412  13.365  0.00  0.00    +0.000 OA
ENDBRANCH  17  27
ENDBRANCH  14  21
ENDBRANCH  12  14
ENDBRANCH   1  12
BRANCH   1  28
ATOM     28  C   UNL     1       1.845   5.508  18.146  0.00  0.00    +0.000 C 
BRANCH  28  29
ATOM     29  C   UNL     1       1.592   4.328  19.060  0.00  0.00    +0.000 A 
ATOM     30  C   UNL     1       1.620   3.016  18.570  0.00  0.00    +0.000 A 
ATOM     31  C   UNL     1       1.701   1.935  19.452  0.00  0.00    +0.000 A 
ATOM     32  C   UNL     1       1.746   2.158  20.831  0.00  0.00    +0.000 A 
ATOM     33  C   UNL     1       1.639   3.445  21.320  0.00  0.00    +0.000 A 
ATOM     34  C   UNL     1       1.539   4.511  20.450  0.00  0.00    +0.000 A 
ENDBRANCH  28  29
ENDBRANCH   1  28
TORSDOF 7
ENDMDL
MODEL 6
REMARK VINA RESULT:      -6.2      2.263      7.736
REMARK  Name = 
REMARK  12 active torsions:
REMARK  status: ('A' for Active; 'I' for Inactive)
REMARK    1  A    between atoms: C_1  and  O_2
REMARK    2  A    between atoms: O_2  and  C_3
REMARK    3  A    between atoms: C_5  and  C_6
REMARK    4  A    between atoms: C_7  and  S_8
REMARK    5  A    between atoms: S_8  and  N_11
REMARK    6  A    between atoms: N_11  and  C_12
REMARK    7  A    between atoms: C_12  and  C_13
REMARK    8  A    between atoms: C_12  and  C_20
REMARK    9  A    between atoms: C_13  and  C_14
REMARK   10  A    between atoms: N_26  and  C_27
REMARK   11  A    between atoms: C_30  and  C_31
REMARK   12  A    between atoms: C_32  and  C_33
REMARK                            x       y       z     vdW  Elec       q    Type
REMARK                         _______ _______ _______ _____ _____    ______ ____
ROOT
ATOM      1  C   UNL     1      -2.264  12.313  20.001  0.00  0.00    +0.000 C 
ENDROOT
BRANCH   1   2
ATOM      2  C   UNL     1      -2.634  12.973  21.350  0.00  0.00    +0.000 C 
ATOM      3  O   UNL     1      -3.459  12.439  22.104  0.00  0.00    +0.000 OA
ATOM      4  N   UNL     1      -1.986  14.150  21.744  0.00  0.00    +0.000 N 
ATOM      5  C   UNL     1      -2.364  14.661  23.065  0.00  0.00    +0.000 C 
ATOM      6  C   UNL     1      -1.711  15.970  23.506  0.00  0.00    +0.000 C 
ATOM      7  C   UNL     1      -2.355  17.204  22.857  0.00  0.00    +0.000 C 
ATOM      8  N   UNL     1      -2.032  17.435  21.438  0.00  0.00    +0.000 NA
ATOM      9  C   UNL     1      -2.735  18.629  20.962  0.00  0.00    +0.000 C 
ATOM     10  C   UNL     1      -2.351  16.294  20.564  0.00  0.00    +0.000 C 
ATOM     11  C   UNL     1      -1.404  15.105  20.802  0.00  0.00    +0.000 C 
ENDBRANCH   1   2
BRANCH   1  12
ATOM     12  N   UNL     1      -1.263  11.261  20.289  0.00  0.00    +0.000 NA
ATOM     13  H   UNL     1      -1.631  10.444  20.798  0.00  0.00    +0.000 HD
BRANCH  12  14
ATOM     14  S   UNL     1       0.392  11.491  20.451  0.00  0.00    +0.000 S 
ATOM     15  O   UNL     1       0.626  11.985  21.769  0.00  0.00    +0.000 OA
ATOM     16  O   UNL     1       0.849  12.242  19.301  0.00  0.00    +0.000 OA
BRANCH  14  21
ATOM     17  C   UNL     1       1.927   7.186  19.952  0.00  0.00    +0.000 A 
ATOM     18  C   UNL     1       1.358   7.597  21.156  0.00  0.00    +0.000 A 
ATOM     19  C   UNL     1       0.887   8.902  21.338  0.00  0.00    +0.000 A 
ATOM     20  C   UNL     1       0.201   9.183  22.652  0.00  0.00    +0.000 C 
ATOM     21  C   UNL     1       1.044   9.826  20.281  0.00  0.00    +0.000 A 
ATOM     22  C   UNL     1       1.681   9.446  19.062  0.00  0.00    +0.000 A 
ATOM     23  C   UNL     1       1.860  10.381  17.888  0.00  0.00    +0.000 C 
ATOM     24  C   UNL     1       2.109   8.101  18.900  0.00  0.00    +0.000 A 
ATOM     25  C   UNL     1       2.703   7.601  17.602  0.00  0.00    +0.000 C 
BRANCH  17  27
ATOM     26  C   UNL     1       2.015   4.979  20.783  0.00  0.00    +0.000 C 
ATOM     27  O   UNL     1       2.326   5.889  19.731  0.00  0.00    +0.000 OA
ENDBRANCH  17  27
ENDBRANCH  14  21
ENDBRANCH  12  14
ENDBRANCH   1  12
BRANCH   1  28
ATOM     28  C   UNL     1      -3.532  11.884  19.247  0.00  0.00    +0.000 C 
BRANCH  28  29
ATOM     29  C   UNL     1      -3.406  11.060  17.983  0.00  0.00    +0.000 A 
ATOM     30  C   UNL     1      -4.197  11.334  16.861  0.00  0.00    +0.000 A 
ATOM     31  C   UNL     1      -3.867  10.793  15.615  0.00  0.00    +0.000 A 
ATOM     32  C   UNL     1      -2.747   9.967  15.486  0.00  0.00    +0.000 A 
ATOM     33  C   UNL     1      -2.011   9.632  16.605  0.00  0.00    +0.000 A 
ATOM     34  C   UNL     1      -2.348  10.150  17.838  0.00  0.00    +0.000 A 
ENDBRANCH  28  29
ENDBRANCH   1  28
TORSDOF 7
ENDMDL
MODEL 7
REMARK VINA RESULT:      -6.2      2.831      7.952
REMARK  Name = 
REMARK  12 active torsions:
REMARK  status: ('A' for Active; 'I' for Inactive)
REMARK    1  A    between atoms: C_1  and  O_2
REMARK    2  A    between atoms: O_2  and  C_3
REMARK    3  A    between atoms: C_5  and  C_6
REMARK    4  A    between atoms: C_7  and  S_8
REMARK    5  A    between atoms: S_8  and  N_11
REMARK    6  A    between atoms: N_11  and  C_12
REMARK    7  A    between atoms: C_12  and  C_13
REMARK    8  A    between atoms: C_12  and  C_20
REMARK    9  A    between atoms: C_13  and  C_14
REMARK   10  A    between atoms: N_26  and  C_27
REMARK   11  A    between atoms: C_30  and  C_31
REMARK   12  A    between atoms: C_32  and  C_33
REMARK                            x       y       z     vdW  Elec       q    Type
REMARK                         _______ _______ _______ _____ _____    ______ ____
ROOT
ATOM      1  C   UNL     1      -0.001  11.628  20.556  0.00  0.00    +0.000 C 
ENDROOT
BRANCH   1   2
ATOM      2  C   UNL     1       1.146  12.665  20.492  0.00  0.00    +0.000 C 
ATOM      3  O   UNL     1       2.051  12.651  21.337  0.00  0.00    +0.000 OA
ATOM      4  N   UNL     1       1.188  13.584  19.436  0.00  0.00    +0.000 N 
ATOM      5  C   UNL     1       2.347  14.482  19.434  0.00  0.00    +0.000 C 
ATOM      6  C   UNL     1       2.400  15.529  18.323  0.00  0.00    +0.000 C 
ATOM      7  C   UNL     1       1.483  16.731  18.594  0.00  0.00    +0.000 C 
ATOM      8  N   UNL     1       0.040  16.501  18.409  0.00  0.00    +0.000 NA
ATOM      9  C   UNL     1      -0.697  17.729  18.725  0.00  0.00    +0.000 C 
ATOM     10  C   UNL     1      -0.491  15.388  19.213  0.00  0.00    +0.000 C 
ATOM     11  C   UNL     1       0.004  14.023  18.700  0.00  0.00    +0.000 C 
ENDBRANCH   1   2
BRANCH   1  12
ATOM     12  N   UNL     1       0.513  10.371  19.968  0.00  0.00    +0.000 NA
ATOM     13  H   UNL     1       0.269  10.227  18.977  0.00  0.00    +0.000 HD
BRANCH  12  14
ATOM     14  S   UNL     1       0.861   8.959  20.807  0.00  0.00    +0.000 S 
ATOM     15  O   UNL     1      -0.380   8.318  21.096  0.00  0.00    +0.000 OA
ATOM     16  O   UNL     1       1.773   9.295  21.880  0.00  0.00    +0.000 OA
BRANCH  14  21
ATOM     17  C   UNL     1       3.382   6.549  17.811  0.00  0.00    +0.000 A 
ATOM     18  C   UNL     1       3.028   7.868  17.535  0.00  0.00    +0.000 A 
ATOM     19  C   UNL     1       2.258   8.624  18.425  0.00  0.00    +0.000 A 
ATOM     20  C   UNL     1       2.036  10.068  18.052  0.00  0.00    +0.000 C 
ATOM     21  C   UNL     1       1.795   8.003  19.607  0.00  0.00    +0.000 A 
ATOM     22  C   UNL     1       2.091   6.634  19.882  0.00  0.00    +0.000 A 
ATOM     23  C   UNL     1       1.643   5.919  21.136  0.00  0.00    +0.000 C 
ATOM     24  C   UNL     1       2.909   5.912  18.973  0.00  0.00    +0.000 A 
ATOM     25  C   UNL     1       3.346   4.489  19.245  0.00  0.00    +0.000 C 
BRANCH  17  27
ATOM     26  C   UNL     1       5.159   6.583  16.259  0.00  0.00    +0.000 C 
ATOM     27  O   UNL     1       4.200   5.816  16.983  0.00  0.00    +0.000 OA
ENDBRANCH  17  27
ENDBRANCH  14  21
ENDBRANCH  12  14
ENDBRANCH   1  12
BRANCH   1  28
ATOM     28  C   UNL     1      -0.577  11.552  21.978  0.00  0.00    +0.000 C 
BRANCH  28  29
ATOM     29  C   UNL     1      -2.003  11.991  22.229  0.00  0.00    +0.000 A 
ATOM     30  C   UNL     1      -2.572  11.900  23.506  0.00  0.00    +0.000 A 
ATOM     31  C   UNL     1      -3.754  12.585  23.803  0.00  0.00    +0.000 A 
ATOM     32  C   UNL     1      -4.379  13.360  22.822  0.00  0.00    +0.000 A 
ATOM     33  C   UNL     1      -3.864  13.388  21.541  0.00  0.00    +0.000 A 
ATOM     34  C   UNL     1      -2.708  12.696  21.243  0.00  0.00    +0.000 A 
ENDBRANCH  28  29
ENDBRANCH   1  28
TORSDOF 7
ENDMDL
MODEL 8
REMARK VINA RESULT:      -6.1      2.155      7.562
REMARK  Name = 
REMARK  12 active torsions:
REMARK  status: ('A' for Active; 'I' for Inactive)
REMARK    1  A    between atoms: C_1  and  O_2
REMARK    2  A    between atoms: O_2  and  C_3
REMARK    3  A    between atoms: C_5  and  C_6
REMARK    4  A    between atoms: C_7  and  S_8
REMARK    5  A    between atoms: S_8  and  N_11
REMARK    6  A    between atoms: N_11  and  C_12
REMARK    7  A    between atoms: C_12  and  C_13
REMARK    8  A    between atoms: C_12  and  C_20
REMARK    9  A    between atoms: C_13  and  C_14
REMARK   10  A    between atoms: N_26  and  C_27
REMARK   11  A    between atoms: C_30  and  C_31
REMARK   12  A    between atoms: C_32  and  C_33
REMARK                            x       y       z     vdW  Elec       q    Type
REMARK                         _______ _______ _______ _____ _____    ______ ____
ROOT
ATOM      1  C   UNL     1      -1.563  12.263  19.520  0.00  0.00    +0.000 C 
ENDROOT
BRANCH   1   2
ATOM      2  C   UNL     1      -1.644  13.435  20.526  0.00  0.00    +0.000 C 
ATOM      3  O   UNL     1      -2.551  13.475  21.369  0.00  0.00    +0.000 OA
ATOM      4  N   UNL     1      -0.652  14.423  20.519  0.00  0.00    +0.000 N 
ATOM      5  C   UNL     1      -0.788  15.456  21.550  0.00  0.00    +0.000 C 
ATOM      6  C   UNL     1       0.251  16.575  21.541  0.00  0.00    +0.000 C 
ATOM      7  C   UNL     1      -0.025  17.633  20.462  0.00  0.00    +0.000 C 
ATOM      8  N   UNL     1       0.277  17.240  19.075  0.00  0.00    +0.000 NA
ATOM      9  C   UNL     1      -0.058  18.342  18.168  0.00  0.00    +0.000 C 
ATOM     10  C   UNL     1      -0.417  16.017  18.640  0.00  0.00    +0.000 C 
ATOM     11  C   UNL     1       0.139  14.763  19.337  0.00  0.00    +0.000 C 
ENDBRANCH   1   2
BRANCH   1  12
ATOM     12  N   UNL     1      -0.747  11.201  20.151  0.00  0.00    +0.000 NA
ATOM     13  H   UNL     1      -1.196  10.730  20.950  0.00  0.00    +0.000 HD
BRANCH  12  14
ATOM     14  S   UNL     1       0.929  11.110  20.146  0.00  0.00    +0.000 S 
ATOM     15  O   UNL     1       1.394  11.738  21.339  0.00  0.00    +0.000 OA
ATOM     16  O   UNL     1       1.394  11.569  18.854  0.00  0.00    +0.000 OA
BRANCH  14  21
ATOM     17  C   UNL     1       1.566   6.557  20.244  0.00  0.00    +0.000 A 
ATOM     18  C   UNL     1       1.037   7.220  21.350  0.00  0.00    +0.000 A 
ATOM     19  C   UNL     1       0.838   8.604  21.350  0.00  0.00    +0.000 A 
ATOM     20  C   UNL     1       0.163   9.178  22.572  0.00  0.00    +0.000 C 
ATOM     21  C   UNL     1       1.231   9.340  20.210  0.00  0.00    +0.000 A 
ATOM     22  C   UNL     1       1.833   8.692  19.090  0.00  0.00    +0.000 A 
ATOM     23  C   UNL     1       2.256   9.420  17.834  0.00  0.00    +0.000 C 
ATOM     24  C   UNL     1       1.982   7.280  19.111  0.00  0.00    +0.000 A 
ATOM     25  C   UNL     1       2.520   6.514  17.922  0.00  0.00    +0.000 C 
BRANCH  17  27
ATOM     26  C   UNL     1       2.427   4.622  21.283  0.00  0.00    +0.000 C 
ATOM     27  O   UNL     1       1.699   5.189  20.198  0.00  0.00    +0.000 OA
ENDBRANCH  17  27
ENDBRANCH  14  21
ENDBRANCH  12  14
ENDBRANCH   1  12
BRANCH   1  28
ATOM     28  C   UNL     1      -2.967  11.872  19.035  0.00  0.00    +0.000 C 
BRANCH  28  29
ATOM     29  C   UNL     1      -3.119  11.068  17.762  0.00  0.00    +0.000 A 
ATOM     30  C   UNL     1      -4.052  11.434  16.784  0.00  0.00    +0.000 A 
ATOM     31  C   UNL     1      -3.976  10.894  15.497  0.00  0.00    +0.000 A 
ATOM     32  C   UNL     1      -2.970   9.976  15.182  0.00  0.00    +0.000 A 
ATOM     33  C   UNL     1      -2.098   9.553  16.166  0.00  0.00    +0.000 A 
ATOM     34  C   UNL     1      -2.185  10.072  17.441  0.00  0.00    +0.000 A 
ENDBRANCH  28  29
ENDBRANCH   1  28
TORSDOF 7
ENDMDL
MODEL 9
REMARK VINA RESULT:      -6.0      2.634      5.305
REMARK  Name = 
REMARK  12 active torsions:
REMARK  status: ('A' for Active; 'I' for Inactive)
REMARK    1  A    between atoms: C_1  and  O_2
REMARK    2  A    between atoms: O_2  and  C_3
REMARK    3  A    between atoms: C_5  and  C_6
REMARK    4  A    between atoms: C_7  and  S_8
REMARK    5  A    between atoms: S_8  and  N_11
REMARK    6  A    between atoms: N_11  and  C_12
REMARK    7  A    between atoms: C_12  and  C_13
REMARK    8  A    between atoms: C_12  and  C_20
REMARK    9  A    between atoms: C_13  and  C_14
REMARK   10  A    between atoms: N_26  and  C_27
REMARK   11  A    between atoms: C_30  and  C_31
REMARK   12  A    between atoms: C_32  and  C_33
REMARK                            x       y       z     vdW  Elec       q    Type
REMARK                         _______ _______ _______ _____ _____    ______ ____
ROOT
ATOM      1  C   UNL     1       2.432   7.046  19.004  0.00  0.00    +0.000 C 
ENDROOT
BRANCH   1   2
ATOM      2  C   UNL     1       3.553   7.551  18.066  0.00  0.00    +0.000 C 
ATOM      3  O   UNL     1       3.431   8.629  17.467  0.00  0.00    +0.000 OA
ATOM      4  N   UNL     1       4.736   6.812  17.942  0.00  0.00    +0.000 N 
ATOM      5  C   UNL     1       5.759   7.407  17.077  0.00  0.00    +0.000 C 
ATOM      6  C   UNL     1       7.044   6.604  16.883  0.00  0.00    +0.000 C 
ATOM      7  C   UNL     1       6.880   5.454  15.878  0.00  0.00    +0.000 C 
ATOM      8  N   UNL     1       6.129   4.279  16.353  0.00  0.00    +0.000 NA
ATOM      9  C   UNL     1       6.041   3.285  15.279  0.00  0.00    +0.000 C 
ATOM     10  C   UNL     1       4.777   4.596  16.842  0.00  0.00    +0.000 C 
ATOM     11  C   UNL     1       4.815   5.370  18.171  0.00  0.00    +0.000 C 
ENDBRANCH   1   2
BRANCH   1  12
ATOM     12  N   UNL     1       1.691   8.235  19.481  0.00  0.00    +0.000 NA
ATOM     13  H   UNL     1       1.956   9.120  19.023  0.00  0.00    +0.000 HD
BRANCH  12  14
ATOM     14  S   UNL     1       0.994   8.421  20.996  0.00  0.00    +0.000 S 
ATOM     15  O   UNL     1       2.049   8.670  21.924  0.00  0.00    +0.000 OA
ATOM     16  O   UNL     1       0.087   7.312  21.206  0.00  0.00    +0.000 OA
BRANCH  14  21
ATOM     17  C   UNL     1      -1.722  12.093  20.465  0.00  0.00    +0.000 A 
ATOM     18  C   UNL     1      -1.104  11.507  19.362  0.00  0.00    +0.000 A 
ATOM     19  C   UNL     1      -0.269  10.392  19.494  0.00  0.00    +0.000 A 
ATOM     20  C   UNL     1       0.251   9.795  18.210  0.00  0.00    +0.000 C 
ATOM     21  C   UNL     1      -0.019   9.891  20.791  0.00  0.00    +0.000 A 
ATOM     22  C   UNL     1      -0.590  10.513  21.942  0.00  0.00    +0.000 A 
ATOM     23  C   UNL     1      -0.376  10.013  23.352  0.00  0.00    +0.000 C 
ATOM     24  C   UNL     1      -1.464  11.618  21.763  0.00  0.00    +0.000 A 
ATOM     25  C   UNL     1      -2.183  12.266  22.926  0.00  0.00    +0.000 C 
BRANCH  17  27
ATOM     26  C   UNL     1      -3.930  12.768  19.975  0.00  0.00    +0.000 C 
ATOM     27  O   UNL     1      -2.605  13.141  20.345  0.00  0.00    +0.000 OA
ENDBRANCH  17  27
ENDBRANCH  14  21
ENDBRANCH  12  14
ENDBRANCH   1  12
BRANCH   1  28
ATOM     28  C   UNL     1       1.614   5.941  18.317  0.00  0.00    +0.000 C 
BRANCH  28  29
ATOM     29  C   UNL     1       1.423   4.612  19.015  0.00  0.00    +0.000 A 
ATOM     30  C   UNL     1       1.419   3.412  18.293  0.00  0.00    +0.000 A 
ATOM     31  C   UNL     1       1.559   2.189  18.955  0.00  0.00    +0.000 A 
ATOM     32  C   UNL     1       1.695   2.158  20.346  0.00  0.00    +0.000 A 
ATOM     33  C   UNL     1       1.619   3.333  21.067  0.00  0.00    +0.000 A 
ATOM     34  C   UNL     1       1.462   4.538  20.415  0.00  0.00    +0.000 A 
ENDBRANCH  28  29
ENDBRANCH   1  28
TORSDOF 7
ENDMDL
