MODEL 1
REMARK VINA RESULT:      -8.0      0.000      0.000
REMARK  Name = 
REMARK  3 active torsions:
REMARK  status: ('A' for Active; 'I' for Inactive)
REMARK    1  A    between atoms: C_1  and  C_2
REMARK    2  A    between atoms: C_16  and  C_17
REMARK    3  A    between atoms: C_21  and  O_22
REMARK                            x       y       z     vdW  Elec       q    Type
REMARK                         _______ _______ _______ _____ _____    ______ ____
ROOT
ATOM      1  C   UNL     1       0.892  10.280  18.871  0.00  0.00    +0.000 C 
ATOM      2  C   UNL     1       1.676   9.004  18.839  0.00  0.00    +0.000 A 
ATOM      3  C   UNL     1       2.613   8.696  17.848  0.00  0.00    +0.000 A 
ATOM      4  C   UNL     1       3.306   7.466  17.869  0.00  0.00    +0.000 A 
ATOM      5  C   UNL     1       3.023   6.465  18.843  0.00  0.00    +0.000 A 
ATOM      6  C   UNL     1       3.610   5.149  18.942  0.00  0.00    +0.000 A 
ATOM      7  C   UNL     1       2.951   4.198  19.726  0.00  0.00    +0.000 A 
ATOM      8  C   UNL     1       1.946   4.545  20.623  0.00  0.00    +0.000 A 
ATOM      9  C   UNL     1       1.560   5.861  20.712  0.00  0.00    +0.000 A 
ATOM     10  C   UNL     1       2.025   6.800  19.794  0.00  0.00    +0.000 A 
ATOM     11  C   UNL     1       1.436   8.058  19.827  0.00  0.00    +0.000 A 
ATOM     12  O   UNL     1       3.270   2.853  19.648  0.00  0.00    +0.000 OA
ATOM     13  C   UNL     1       4.575   2.746  20.017  0.00  0.00    +0.000 C 
ATOM     14  O   UNL     1       4.930   2.012  20.933  0.00  0.00    +0.000 OA
ATOM     15  C   UNL     1       5.538   3.456  19.102  0.00  0.00    +0.000 C 
ATOM     16  C   UNL     1       4.996   4.754  18.457  0.00  0.00    +0.000 C 
ENDROOT
BRANCH  16  17
ATOM     17  C   UNL     1       5.219   4.781  16.963  0.00  0.00    +0.000 A 
ATOM     18  C   UNL     1       4.410   3.985  16.133  0.00  0.00    +0.000 A 
ATOM     19  C   UNL     1       4.812   3.704  14.829  0.00  0.00    +0.000 A 
ATOM     20  C   UNL     1       6.004   4.236  14.347  0.00  0.00    +0.000 A 
ATOM     21  C   UNL     1       6.713   5.143  15.130  0.00  0.00    +0.000 A 
ATOM     22  C   UNL     1       6.297   5.471  16.411  0.00  0.00    +0.000 A 
BRANCH  21  23
ATOM     23  O   UNL     1       7.892   5.672  14.699  0.00  0.00    +0.000 OA
ATOM     24  H   UNL     1       8.461   5.768  15.482  0.00  0.00    +0.000 HD
ENDBRANCH  21  23
ENDBRANCH  16  17
TORSDOF 2
ENDMDL
MODEL 2
REMARK VINA RESULT:      -7.5      2.051      5.453
REMARK  Name = 
REMARK  3 active torsions:
REMARK  status: ('A' for Active; 'I' for Inactive)
REMARK    1  A    between atoms: C_1  and  C_2
REMARK    2  A    between atoms: C_16  and  C_17
REMARK    3  A    between atoms: C_21  and  O_22
REMARK                            x       y       z     vdW  Elec       q    Type
REMARK                         _______ _______ _______ _____ _____    ______ ____
ROOT
ATOM      1  C   UNL     1       6.858   5.148  14.508  0.00  0.00    +0.000 C 
ATOM      2  C   UNL     1       5.853   5.150  15.619  0.00  0.00    +0.000 A 
ATOM      3  C   UNL     1       5.058   6.255  15.941  0.00  0.00    +0.000 A 
ATOM      4  C   UNL     1       4.141   6.194  17.013  0.00  0.00    +0.000 A 
ATOM      5  C   UNL     1       4.049   5.046  17.854  0.00  0.00    +0.000 A 
ATOM      6  C   UNL     1       3.204   4.877  19.014  0.00  0.00    +0.000 A 
ATOM      7  C   UNL     1       3.517   3.845  19.903  0.00  0.00    +0.000 A 
ATOM      8  C   UNL     1       4.402   2.824  19.571  0.00  0.00    +0.000 A 
ATOM      9  C   UNL     1       5.020   2.853  18.344  0.00  0.00    +0.000 A 
ATOM     10  C   UNL     1       4.916   3.973  17.524  0.00  0.00    +0.000 A 
ATOM     11  C   UNL     1       5.728   4.007  16.397  0.00  0.00    +0.000 A 
ATOM     12  O   UNL     1       2.955   3.788  21.167  0.00  0.00    +0.000 OA
ATOM     13  C   UNL     1       1.612   3.678  20.986  0.00  0.00    +0.000 C 
ATOM     14  O   UNL     1       0.966   2.756  21.471  0.00  0.00    +0.000 OA
ATOM     15  C   UNL     1       0.980   4.863  20.302  0.00  0.00    +0.000 C 
ATOM     16  C   UNL     1       1.871   5.569  19.252  0.00  0.00    +0.000 C 
ENDROOT
BRANCH  16  17
ATOM     17  C   UNL     1       1.917   7.064  19.461  0.00  0.00    +0.000 A 
ATOM     18  C   UNL     1       1.600   7.592  20.724  0.00  0.00    +0.000 A 
ATOM     19  C   UNL     1       1.277   8.941  20.855  0.00  0.00    +0.000 A 
ATOM     20  C   UNL     1       1.298   9.766  19.734  0.00  0.00    +0.000 A 
ATOM     21  C   UNL     1       1.761   9.259  18.523  0.00  0.00    +0.000 A 
ATOM     22  C   UNL     1       2.133   7.930  18.390  0.00  0.00    +0.000 A 
BRANCH  21  23
ATOM     23  O   UNL     1       1.779  10.030  17.400  0.00  0.00    +0.000 OA
ATOM     24  H   UNL     1       1.207  10.797  17.574  0.00  0.00    +0.000 HD
ENDBRANCH  21  23
ENDBRANCH  16  17
TORSDOF 2
ENDMDL
MODEL 3
REMARK VINA RESULT:      -7.4      2.553      5.988
REMARK  Name = 
REMARK  3 active torsions:
REMARK  status: ('A' for Active; 'I' for Inactive)
REMARK    1  A    between atoms: C_1  and  C_2
REMARK    2  A    between atoms: C_16  and  C_17
REMARK    3  A    between atoms: C_21  and  O_22
REMARK                            x       y       z     vdW  Elec       q    Type
REMARK                         _______ _______ _______ _____ _____    ______ ____
ROOT
ATOM      1  C   UNL     1       6.910   4.609  15.350  0.00  0.00    +0.000 C 
ATOM      2  C   UNL     1       5.893   5.034  16.364  0.00  0.00    +0.000 A 
ATOM      3  C   UNL     1       5.322   4.165  17.300  0.00  0.00    +0.000 A 
ATOM      4  C   UNL     1       4.355   4.629  18.217  0.00  0.00    +0.000 A 
ATOM      5  C   UNL     1       3.866   5.968  18.176  0.00  0.00    +0.000 A 
ATOM      6  C   UNL     1       2.841   6.552  19.010  0.00  0.00    +0.000 A 
ATOM      7  C   UNL     1       2.253   7.745  18.582  0.00  0.00    +0.000 A 
ATOM      8  C   UNL     1       2.806   8.521  17.569  0.00  0.00    +0.000 A 
ATOM      9  C   UNL     1       3.946   8.080  16.940  0.00  0.00    +0.000 A 
ATOM     10  C   UNL     1       4.433   6.796  17.174  0.00  0.00    +0.000 A 
ATOM     11  C   UNL     1       5.465   6.355  16.355  0.00  0.00    +0.000 A 
ATOM     12  O   UNL     1       1.083   8.217  19.152  0.00  0.00    +0.000 OA
ATOM     13  C   UNL     1       1.355   8.430  20.467  0.00  0.00    +0.000 C 
ATOM     14  O   UNL     1       1.174   9.521  20.997  0.00  0.00    +0.000 OA
ATOM     15  C   UNL     1       1.720   7.186  21.235  0.00  0.00    +0.000 C 
ATOM     16  C   UNL     1       2.490   6.116  20.425  0.00  0.00    +0.000 C 
ENDROOT
BRANCH  16  17
ATOM     17  C   UNL     1       1.879   4.743  20.573  0.00  0.00    +0.000 A 
ATOM     18  C   UNL     1       2.269   3.930  21.651  0.00  0.00    +0.000 A 
ATOM     19  C   UNL     1       2.019   2.560  21.618  0.00  0.00    +0.000 A 
ATOM     20  C   UNL     1       1.357   2.007  20.525  0.00  0.00    +0.000 A 
ATOM     21  C   UNL     1       0.845   2.848  19.541  0.00  0.00    +0.000 A 
ATOM     22  C   UNL     1       1.044   4.219  19.587  0.00  0.00    +0.000 A 
BRANCH  21  23
ATOM     23  O   UNL     1       0.208   2.344  18.447  0.00  0.00    +0.000 OA
ATOM     24  H   UNL     1       0.166   1.379  18.565  0.00  0.00    +0.000 HD
ENDBRANCH  21  23
ENDBRANCH  16  17
TORSDOF 2
ENDMDL
MODEL 4
REMARK VINA RESULT:      -7.1      7.612     10.997
REMARK  Name = 
REMARK  3 active torsions:
REMARK  status: ('A' for Active; 'I' for Inactive)
REMARK    1  A    between atoms: C_1  and  C_2
REMARK    2  A    between atoms: C_16  and  C_17
REMARK    3  A    between atoms: C_21  and  O_22
REMARK                            x       y       z     vdW  Elec       q    Type
REMARK                         _______ _______ _______ _____ _____    ______ ____
ROOT
ATOM      1  C   UNL     1      -0.420  13.472  22.647  0.00  0.00    +0.000 C 
ATOM      2  C   UNL     1      -1.148  12.970  21.437  0.00  0.00    +0.000 A 
ATOM      3  C   UNL     1      -2.514  13.173  21.217  0.00  0.00    +0.000 A 
ATOM      4  C   UNL     1      -3.141  12.658  20.061  0.00  0.00    +0.000 A 
ATOM      5  C   UNL     1      -2.434  11.849  19.124  0.00  0.00    +0.000 A 
ATOM      6  C   UNL     1      -2.965  11.213  17.941  0.00  0.00    +0.000 A 
ATOM      7  C   UNL     1      -2.218  10.183  17.363  0.00  0.00    +0.000 A 
ATOM      8  C   UNL     1      -0.887   9.955  17.699  0.00  0.00    +0.000 A 
ATOM      9  C   UNL     1      -0.300  10.742  18.660  0.00  0.00    +0.000 A 
ATOM     10  C   UNL     1      -1.065  11.623  19.419  0.00  0.00    +0.000 A 
ATOM     11  C   UNL     1      -0.437  12.233  20.499  0.00  0.00    +0.000 A 
ATOM     12  O   UNL     1      -2.771   9.333  16.420  0.00  0.00    +0.000 OA
ATOM     13  C   UNL     1      -3.136  10.113  15.367  0.00  0.00    +0.000 C 
ATOM     14  O   UNL     1      -2.729   9.899  14.231  0.00  0.00    +0.000 OA
ATOM     15  C   UNL     1      -4.202  11.128  15.689  0.00  0.00    +0.000 C 
ATOM     16  C   UNL     1      -4.153  11.700  17.126  0.00  0.00    +0.000 C 
ENDROOT
BRANCH  16  17
ATOM     17  C   UNL     1      -5.502  11.646  17.804  0.00  0.00    +0.000 A 
ATOM     18  C   UNL     1      -6.348  12.766  17.742  0.00  0.00    +0.000 A 
ATOM     19  C   UNL     1      -7.407  12.891  18.639  0.00  0.00    +0.000 A 
ATOM     20  C   UNL     1      -7.637  11.888  19.576  0.00  0.00    +0.000 A 
ATOM     21  C   UNL     1      -6.885  10.718  19.522  0.00  0.00    +0.000 A 
ATOM     22  C   UNL     1      -5.860  10.560  18.602  0.00  0.00    +0.000 A 
BRANCH  21  23
ATOM     23  O   UNL     1      -7.068   9.721  20.433  0.00  0.00    +0.000 OA
ATOM     24  H   UNL     1      -8.003   9.751  20.698  0.00  0.00    +0.000 HD
ENDBRANCH  21  23
ENDBRANCH  16  17
TORSDOF 2
ENDMDL
MODEL 5
REMARK VINA RESULT:      -7.0      7.641     10.698
REMARK  Name = 
REMARK  3 active torsions:
REMARK  status: ('A' for Active; 'I' for Inactive)
REMARK    1  A    between atoms: C_1  and  C_2
REMARK    2  A    between atoms: C_16  and  C_17
REMARK    3  A    between atoms: C_21  and  O_22
REMARK                            x       y       z     vdW  Elec       q    Type
REMARK                         _______ _______ _______ _____ _____    ______ ____
ROOT
ATOM      1  C   UNL     1      -3.393  10.033  14.815  0.00  0.00    +0.000 C 
ATOM      2  C   UNL     1      -3.287  10.675  16.164  0.00  0.00    +0.000 A 
ATOM      3  C   UNL     1      -2.119  10.673  16.933  0.00  0.00    +0.000 A 
ATOM      4  C   UNL     1      -2.094  11.283  18.206  0.00  0.00    +0.000 A 
ATOM      5  C   UNL     1      -3.266  11.847  18.789  0.00  0.00    +0.000 A 
ATOM      6  C   UNL     1      -3.393  12.443  20.099  0.00  0.00    +0.000 A 
ATOM      7  C   UNL     1      -4.679  12.602  20.621  0.00  0.00    +0.000 A 
ATOM      8  C   UNL     1      -5.819  12.487  19.832  0.00  0.00    +0.000 A 
ATOM      9  C   UNL     1      -5.677  12.164  18.503  0.00  0.00    +0.000 A 
ATOM     10  C   UNL     1      -4.440  11.774  17.996  0.00  0.00    +0.000 A 
ATOM     11  C   UNL     1      -4.420  11.274  16.700  0.00  0.00    +0.000 A 
ATOM     12  O   UNL     1      -4.883  12.887  21.960  0.00  0.00    +0.000 OA
ATOM     13  C   UNL     1      -4.276  14.081  22.196  0.00  0.00    +0.000 C 
ATOM     14  O   UNL     1      -4.884  15.035  22.669  0.00  0.00    +0.000 OA
ATOM     15  C   UNL     1      -2.782  14.066  21.996  0.00  0.00    +0.000 C 
ATOM     16  C   UNL     1      -2.278  13.121  20.880  0.00  0.00    +0.000 C 
ENDROOT
BRANCH  16  17
ATOM     17  C   UNL     1      -1.151  12.233  21.353  0.00  0.00    +0.000 A 
ATOM     18  C   UNL     1       0.053  12.205  20.628  0.00  0.00    +0.000 A 
ATOM     19  C   UNL     1       0.951  11.155  20.809  0.00  0.00    +0.000 A 
ATOM     20  C   UNL     1       0.661  10.153  21.730  0.00  0.00    +0.000 A 
ATOM     21  C   UNL     1      -0.459  10.279  22.546  0.00  0.00    +0.000 A 
ATOM     22  C   UNL     1      -1.336  11.344  22.411  0.00  0.00    +0.000 A 
BRANCH  21  23
ATOM     23  O   UNL     1      -0.786   9.310  23.447  0.00  0.00    +0.000 OA
ATOM     24  H   UNL     1      -1.710   9.063  23.273  0.00  0.00    +0.000 HD
ENDBRANCH  21  23
ENDBRANCH  16  17
TORSDOF 2
ENDMDL
MODEL 6
REMARK VINA RESULT:      -7.0      5.241      8.988
REMARK  Name = 
REMARK  3 active torsions:
REMARK  status: ('A' for Active; 'I' for Inactive)
REMARK    1  A    between atoms: C_1  and  C_2
REMARK    2  A    between atoms: C_16  and  C_17
REMARK    3  A    between atoms: C_21  and  O_22
REMARK                            x       y       z     vdW  Elec       q    Type
REMARK                         _______ _______ _______ _____ _____    ______ ____
ROOT
ATOM      1  C   UNL     1       3.206   7.002  17.793  0.00  0.00    +0.000 C 
ATOM      2  C   UNL     1       2.389   8.049  18.487  0.00  0.00    +0.000 A 
ATOM      3  C   UNL     1       2.226   9.350  18.002  0.00  0.00    +0.000 A 
ATOM      4  C   UNL     1       1.455  10.293  18.716  0.00  0.00    +0.000 A 
ATOM      5  C   UNL     1       0.886   9.987  19.987  0.00  0.00    +0.000 A 
ATOM      6  C   UNL     1       0.133  10.871  20.845  0.00  0.00    +0.000 A 
ATOM      7  C   UNL     1      -0.021  10.505  22.185  0.00  0.00    +0.000 A 
ATOM      8  C   UNL     1       0.260   9.220  22.639  0.00  0.00    +0.000 A 
ATOM      9  C   UNL     1       0.744   8.292  21.748  0.00  0.00    +0.000 A 
ATOM     10  C   UNL     1       1.127   8.673  20.465  0.00  0.00    +0.000 A 
ATOM     11  C   UNL     1       1.789   7.723  19.697  0.00  0.00    +0.000 A 
ATOM     12  O   UNL     1      -0.466  11.410  23.133  0.00  0.00    +0.000 OA
ATOM     13  C   UNL     1      -1.712  11.792  22.745  0.00  0.00    +0.000 C 
ATOM     14  O   UNL     1      -2.684  11.677  23.483  0.00  0.00    +0.000 OA
ATOM     15  C   UNL     1      -1.755  12.517  21.425  0.00  0.00    +0.000 C 
ATOM     16  C   UNL     1      -0.703  12.057  20.388  0.00  0.00    +0.000 C 
ENDROOT
BRANCH  16  17
ATOM     17  C   UNL     1       0.052  13.221  19.790  0.00  0.00    +0.000 A 
ATOM     18  C   UNL     1       1.378  13.459  20.192  0.00  0.00    +0.000 A 
ATOM     19  C   UNL     1       1.966  14.700  19.955  0.00  0.00    +0.000 A 
ATOM     20  C   UNL     1       1.243  15.690  19.295  0.00  0.00    +0.000 A 
ATOM     21  C   UNL     1      -0.010  15.385  18.772  0.00  0.00    +0.000 A 
ATOM     22  C   UNL     1      -0.587  14.138  18.957  0.00  0.00    +0.000 A 
BRANCH  21  23
ATOM     23  O   UNL     1      -0.755  16.331  18.135  0.00  0.00    +0.000 OA
ATOM     24  H   UNL     1      -1.119  15.914  17.337  0.00  0.00    +0.000 HD
ENDBRANCH  21  23
ENDBRANCH  16  17
TORSDOF 2
ENDMDL
MODEL 7
REMARK VINA RESULT:      -6.8      5.468      9.261
REMARK  Name = 
REMARK  3 active torsions:
REMARK  status: ('A' for Active; 'I' for Inactive)
REMARK    1  A    between atoms: C_1  and  C_2
REMARK    2  A    between atoms: C_16  and  C_17
REMARK    3  A    between atoms: C_21  and  O_22
REMARK                            x       y       z     vdW  Elec       q    Type
REMARK                         _______ _______ _______ _____ _____    ______ ____
ROOT
ATOM      1  C   UNL     1       2.849   7.875  17.741  0.00  0.00    +0.000 C 
ATOM      2  C   UNL     1       2.012   8.827  18.540  0.00  0.00    +0.000 A 
ATOM      3  C   UNL     1       1.917  10.195  18.262  0.00  0.00    +0.000 A 
ATOM      4  C   UNL     1       1.122  11.039  19.067  0.00  0.00    +0.000 A 
ATOM      5  C   UNL     1       0.455  10.555  20.230  0.00  0.00    +0.000 A 
ATOM      6  C   UNL     1      -0.334  11.317  21.169  0.00  0.00    +0.000 A 
ATOM      7  C   UNL     1      -0.594  10.747  22.417  0.00  0.00    +0.000 A 
ATOM      8  C   UNL     1      -0.380   9.397  22.675  0.00  0.00    +0.000 A 
ATOM      9  C   UNL     1       0.143   8.606  21.680  0.00  0.00    +0.000 A 
ATOM     10  C   UNL     1       0.627   9.173  20.503  0.00  0.00    +0.000 A 
ATOM     11  C   UNL     1       1.318   8.334  19.638  0.00  0.00    +0.000 A 
ATOM     12  O   UNL     1      -1.082  11.505  23.468  0.00  0.00    +0.000 OA
ATOM     13  C   UNL     1      -2.287  11.990  23.065  0.00  0.00    +0.000 C 
ATOM     14  O   UNL     1      -3.312  11.795  23.708  0.00  0.00    +0.000 OA
ATOM     15  C   UNL     1      -2.216  12.918  21.880  0.00  0.00    +0.000 C 
ATOM     16  C   UNL     1      -1.104  12.591  20.855  0.00  0.00    +0.000 C 
ENDROOT
BRANCH  16  17
ATOM     17  C   UNL     1      -0.279  13.807  20.506  0.00  0.00    +0.000 A 
ATOM     18  C   UNL     1      -0.520  14.478  19.294  0.00  0.00    +0.000 A 
ATOM     19  C   UNL     1       0.435  15.350  18.777  0.00  0.00    +0.000 A 
ATOM     20  C   UNL     1       1.616  15.573  19.480  0.00  0.00    +0.000 A 
ATOM     21  C   UNL     1       1.769  15.020  20.748  0.00  0.00    +0.000 A 
ATOM     22  C   UNL     1       0.804  14.190  21.297  0.00  0.00    +0.000 A 
BRANCH  21  23
ATOM     23  O   UNL     1       2.918  15.201  21.459  0.00  0.00    +0.000 OA
ATOM     24  H   UNL     1       3.095  14.366  21.925  0.00  0.00    +0.000 HD
ENDBRANCH  21  23
ENDBRANCH  16  17
TORSDOF 2
ENDMDL
MODEL 8
REMARK VINA RESULT:      -6.8      8.528     11.279
REMARK  Name = 
REMARK  3 active torsions:
REMARK  status: ('A' for Active; 'I' for Inactive)
REMARK    1  A    between atoms: C_1  and  C_2
REMARK    2  A    between atoms: C_16  and  C_17
REMARK    3  A    between atoms: C_21  and  O_22
REMARK                            x       y       z     vdW  Elec       q    Type
REMARK                         _______ _______ _______ _____ _____    ______ ____
ROOT
ATOM      1  C   UNL     1      -3.146  10.245  14.787  0.00  0.00    +0.000 C 
ATOM      2  C   UNL     1      -3.333  10.849  16.146  0.00  0.00    +0.000 A 
ATOM      3  C   UNL     1      -2.275  11.167  17.004  0.00  0.00    +0.000 A 
ATOM      4  C   UNL     1      -2.523  11.719  18.278  0.00  0.00    +0.000 A 
ATOM      5  C   UNL     1      -3.848  11.899  18.772  0.00  0.00    +0.000 A 
ATOM      6  C   UNL     1      -4.240  12.393  20.071  0.00  0.00    +0.000 A 
ATOM      7  C   UNL     1      -5.550  12.154  20.492  0.00  0.00    +0.000 A 
ATOM      8  C   UNL     1      -6.546  11.733  19.615  0.00  0.00    +0.000 A 
ATOM      9  C   UNL     1      -6.219  11.506  18.300  0.00  0.00    +0.000 A 
ATOM     10  C   UNL     1      -4.888  11.509  17.889  0.00  0.00    +0.000 A 
ATOM     11  C   UNL     1      -4.628  11.075  16.595  0.00  0.00    +0.000 A 
ATOM     12  O   UNL     1      -5.926  12.327  21.813  0.00  0.00    +0.000 OA
ATOM     13  C   UNL     1      -5.715  13.639  22.104  0.00  0.00    +0.000 C 
ATOM     14  O   UNL     1      -6.609  14.359  22.533  0.00  0.00    +0.000 OA
ATOM     15  C   UNL     1      -4.273  14.067  22.021  0.00  0.00    +0.000 C 
ATOM     16  C   UNL     1      -3.433  13.345  20.941  0.00  0.00    +0.000 C 
ENDROOT
BRANCH  16  17
ATOM     17  C   UNL     1      -2.133  12.811  21.496  0.00  0.00    +0.000 A 
ATOM     18  C   UNL     1      -0.918  13.257  20.949  0.00  0.00    +0.000 A 
ATOM     19  C   UNL     1       0.253  12.535  21.169  0.00  0.00    +0.000 A 
ATOM     20  C   UNL     1       0.216  11.388  21.956  0.00  0.00    +0.000 A 
ATOM     21  C   UNL     1      -0.963  11.049  22.612  0.00  0.00    +0.000 A 
ATOM     22  C   UNL     1      -2.124  11.787  22.441  0.00  0.00    +0.000 A 
BRANCH  21  23
ATOM     23  O   UNL     1      -1.044   9.923  23.376  0.00  0.00    +0.000 OA
ATOM     24  H   UNL     1      -1.255   9.189  22.776  0.00  0.00    +0.000 HD
ENDBRANCH  21  23
ENDBRANCH  16  17
TORSDOF 2
ENDMDL
MODEL 9
REMARK VINA RESULT:      -6.7      8.988     10.825
REMARK  Name = 
REMARK  3 active torsions:
REMARK  status: ('A' for Active; 'I' for Inactive)
REMARK    1  A    between atoms: C_1  and  C_2
REMARK    2  A    between atoms: C_16  and  C_17
REMARK    3  A    between atoms: C_21  and  O_22
REMARK                            x       y       z     vdW  Elec       q    Type
REMARK                         _______ _______ _______ _____ _____    ______ ____
ROOT
ATOM      1  C   UNL     1       7.118  11.643  24.685  0.00  0.00    +0.000 C 
ATOM      2  C   UNL     1       7.576  12.210  23.375  0.00  0.00    +0.000 A 
ATOM      3  C   UNL     1       7.032  13.361  22.798  0.00  0.00    +0.000 A 
ATOM      4  C   UNL     1       7.499  13.832  21.552  0.00  0.00    +0.000 A 
ATOM      5  C   UNL     1       8.477  13.116  20.800  0.00  0.00    +0.000 A 
ATOM      6  C   UNL     1       8.995  13.450  19.494  0.00  0.00    +0.000 A 
ATOM      7  C   UNL     1       9.659  12.450  18.780  0.00  0.00    +0.000 A 
ATOM      8  C   UNL     1      10.087  11.270  19.381  0.00  0.00    +0.000 A 
ATOM      9  C   UNL     1       9.810  11.064  20.712  0.00  0.00    +0.000 A 
ATOM     10  C   UNL     1       8.958  11.924  21.400  0.00  0.00    +0.000 A 
ATOM     11  C   UNL     1       8.571  11.537  22.678  0.00  0.00    +0.000 A 
ATOM     12  O   UNL     1       9.928  12.586  17.429  0.00  0.00    +0.000 OA
ATOM     13  C   UNL     1      10.732  13.676  17.305  0.00  0.00    +0.000 C 
ATOM     14  O   UNL     1      11.826  13.614  16.755  0.00  0.00    +0.000 OA
ATOM     15  C   UNL     1      10.091  14.970  17.734  0.00  0.00    +0.000 C 
ATOM     16  C   UNL     1       9.086  14.850  18.905  0.00  0.00    +0.000 C 
ENDROOT
BRANCH  16  17
ATOM     17  C   UNL     1       7.777  15.538  18.601  0.00  0.00    +0.000 A 
ATOM     18  C   UNL     1       7.526  16.809  19.147  0.00  0.00    +0.000 A 
ATOM     19  C   UNL     1       6.224  17.302  19.198  0.00  0.00    +0.000 A 
ATOM     20  C   UNL     1       5.179  16.541  18.680  0.00  0.00    +0.000 A 
ATOM     21  C   UNL     1       5.466  15.357  18.008  0.00  0.00    +0.000 A 
ATOM     22  C   UNL     1       6.764  14.879  17.907  0.00  0.00    +0.000 A 
BRANCH  21  23
ATOM     23  O   UNL     1       4.470  14.576  17.504  0.00  0.00    +0.000 OA
ATOM     24  H   UNL     1       4.644  14.475  16.553  0.00  0.00    +0.000 HD
ENDBRANCH  21  23
ENDBRANCH  16  17
TORSDOF 2
ENDMDL
