MODEL 1
REMARK VINA RESULT:      -7.4      0.000      0.000
REMARK  Name = 
REMARK  9 active torsions:
REMARK  status: ('A' for Active; 'I' for Inactive)
REMARK    1  A    between atoms: C_1  and  N_2
REMARK    2  A    between atoms: N_2  and  C_3
REMARK    3  A    between atoms: N_2  and  C_4
REMARK    4  A    between atoms: C_4  and  C_5
REMARK    5  A    between atoms: C_5  and  N_6
REMARK    6  A    between atoms: C_9  and  O_10
REMARK    7  A    between atoms: C_11  and  C_12
REMARK    8  A    between atoms: C_12  and  C_14
REMARK    9  A    between atoms: C_24  and  C_25
REMARK                            x       y       z     vdW  Elec       q    Type
REMARK                         _______ _______ _______ _____ _____    ______ ____
ROOT
ATOM      1  N   UNL     1       2.180   7.043  19.681  0.00  0.00    +0.000 N 
ATOM      2  C   UNL     1       2.460   7.806  18.578  0.00  0.00    +0.000 C 
ATOM      3  O   UNL     1       1.900   8.803  18.160  0.00  0.00    +0.000 OA
ATOM      4  C   UNL     1       3.627   7.185  17.905  0.00  0.00    +0.000 C 
ATOM      5  C   UNL     1       4.028   6.135  18.643  0.00  0.00    +0.000 C 
ATOM      6  C   UNL     1       3.109   5.940  19.814  0.00  0.00    +0.000 C 
ENDROOT
BRANCH   6   7
ATOM      7  C   UNL     1       2.390   4.601  19.873  0.00  0.00    +0.000 A 
ATOM      8  C   UNL     1       1.727   4.067  18.768  0.00  0.00    +0.000 A 
ATOM      9  C   UNL     1       1.105   2.829  18.889  0.00  0.00    +0.000 A 
ATOM     10  C   UNL     1       1.139   2.164  20.107  0.00  0.00    +0.000 A 
ATOM     11  C   UNL     1       1.791   2.772  21.165  0.00  0.00    +0.000 A 
ATOM     12  N   UNL     1       2.408   3.970  21.077  0.00  0.00    +0.000 NA
ENDBRANCH   6   7
BRANCH   4  13
ATOM     13  O   UNL     1       4.127   7.671  16.733  0.00  0.00    +0.000 OA
ATOM     14  H   UNL     1       3.355   8.012  16.239  0.00  0.00    +0.000 HD
ENDBRANCH   4  13
BRANCH   5  15
ATOM     15  C   UNL     1       5.178   5.261  18.274  0.00  0.00    +0.000 C 
ATOM     16  O   UNL     1       5.956   4.844  19.129  0.00  0.00    +0.000 OA
BRANCH  15  17
ATOM     17  C   UNL     1       5.484   4.904  16.854  0.00  0.00    +0.000 A 
ATOM     18  C   UNL     1       4.613   4.020  16.190  0.00  0.00    +0.000 A 
ATOM     19  C   UNL     1       4.854   3.631  14.864  0.00  0.00    +0.000 A 
ATOM     20  C   UNL     1       5.979   4.106  14.197  0.00  0.00    +0.000 A 
ATOM     21  C   UNL     1       6.820   5.016  14.835  0.00  0.00    +0.000 A 
ATOM     22  C   UNL     1       6.556   5.434  16.138  0.00  0.00    +0.000 A 
ATOM     23  O   UNL     1       7.937   5.555  14.250  0.00  0.00    +0.000 OA
ATOM     24  C   UNL     1       7.895   5.404  12.830  0.00  0.00    +0.000 C 
ATOM     25  C   UNL     1       7.502   3.986  12.451  0.00  0.00    +0.000 C 
ATOM     26  O   UNL     1       6.183   3.670  12.915  0.00  0.00    +0.000 OA
ENDBRANCH  15  17
ENDBRANCH   5  15
BRANCH   1  27
ATOM     27  C   UNL     1       1.237   7.392  20.736  0.00  0.00    +0.000 C 
BRANCH  27  28
ATOM     28  C   UNL     1       1.669   8.589  21.622  0.00  0.00    +0.000 C 
BRANCH  28  30
ATOM     29  C   UNL     1      -0.307   9.658  20.693  0.00  0.00    +0.000 C 
ATOM     30  N   UNL     1       0.670   9.670  21.785  0.00  0.00    +0.000 NA
ATOM     31  C   UNL     1      -0.035   9.514  23.063  0.00  0.00    +0.000 C 
ENDBRANCH  28  30
ENDBRANCH  27  28
ENDBRANCH   1  27
TORSDOF 7
ENDMDL
MODEL 2
REMARK VINA RESULT:      -7.4      0.594      1.078
REMARK  Name = 
REMARK  9 active torsions:
REMARK  status: ('A' for Active; 'I' for Inactive)
REMARK    1  A    between atoms: C_1  and  N_2
REMARK    2  A    between atoms: N_2  and  C_3
REMARK    3  A    between atoms: N_2  and  C_4
REMARK    4  A    between atoms: C_4  and  C_5
REMARK    5  A    between atoms: C_5  and  N_6
REMARK    6  A    between atoms: C_9  and  O_10
REMARK    7  A    between atoms: C_11  and  C_12
REMARK    8  A    between atoms: C_12  and  C_14
REMARK    9  A    between atoms: C_24  and  C_25
REMARK                            x       y       z     vdW  Elec       q    Type
REMARK                         _______ _______ _______ _____ _____    ______ ____
ROOT
ATOM      1  N   UNL     1       2.202   6.937  19.747  0.00  0.00    +0.000 N 
ATOM      2  C   UNL     1       2.484   7.733  18.668  0.00  0.00    +0.000 C 
ATOM      3  O   UNL     1       1.926   8.743  18.279  0.00  0.00    +0.000 OA
ATOM      4  C   UNL     1       3.651   7.130  17.978  0.00  0.00    +0.000 C 
ATOM      5  C   UNL     1       4.049   6.058  18.684  0.00  0.00    +0.000 C 
ATOM      6  C   UNL     1       3.129   5.829  19.848  0.00  0.00    +0.000 C 
ENDROOT
BRANCH   6   7
ATOM      7  C   UNL     1       2.408   4.491  19.866  0.00  0.00    +0.000 A 
ATOM      8  C   UNL     1       2.294   3.727  21.028  0.00  0.00    +0.000 A 
ATOM      9  C   UNL     1       1.605   2.519  20.976  0.00  0.00    +0.000 A 
ATOM     10  C   UNL     1       1.067   2.092  19.769  0.00  0.00    +0.000 A 
ATOM     11  C   UNL     1       1.247   2.890  18.654  0.00  0.00    +0.000 A 
ATOM     12  N   UNL     1       1.906   4.069  18.674  0.00  0.00    +0.000 NA
ENDBRANCH   6   7
BRANCH   4  13
ATOM     13  O   UNL     1       4.153   7.650  16.821  0.00  0.00    +0.000 OA
ATOM     14  H   UNL     1       3.766   8.546  16.746  0.00  0.00    +0.000 HD
ENDBRANCH   4  13
BRANCH   5  15
ATOM     15  C   UNL     1       5.198   5.193  18.290  0.00  0.00    +0.000 C 
ATOM     16  O   UNL     1       5.981   4.760  19.132  0.00  0.00    +0.000 OA
BRANCH  15  17
ATOM     17  C   UNL     1       5.496   4.867  16.861  0.00  0.00    +0.000 A 
ATOM     18  C   UNL     1       4.608   4.016  16.176  0.00  0.00    +0.000 A 
ATOM     19  C   UNL     1       4.840   3.656  14.841  0.00  0.00    +0.000 A 
ATOM     20  C   UNL     1       5.973   4.126  14.184  0.00  0.00    +0.000 A 
ATOM     21  C   UNL     1       6.832   5.003  14.843  0.00  0.00    +0.000 A 
ATOM     22  C   UNL     1       6.578   5.394  16.157  0.00  0.00    +0.000 A 
ATOM     23  O   UNL     1       7.958   5.536  14.271  0.00  0.00    +0.000 OA
ATOM     24  C   UNL     1       7.913   5.421  12.848  0.00  0.00    +0.000 C 
ATOM     25  C   UNL     1       7.493   4.021  12.433  0.00  0.00    +0.000 C 
ATOM     26  O   UNL     1       6.168   3.718  12.891  0.00  0.00    +0.000 OA
ENDBRANCH  15  17
ENDBRANCH   5  15
BRANCH   1  27
ATOM     27  C   UNL     1       1.258   7.256  20.811  0.00  0.00    +0.000 C 
BRANCH  27  28
ATOM     28  C   UNL     1       1.468   8.644  21.470  0.00  0.00    +0.000 C 
BRANCH  28  30
ATOM     29  C   UNL     1      -0.101   9.523  23.106  0.00  0.00    +0.000 C 
ATOM     30  N   UNL     1       0.246   9.453  21.684  0.00  0.00    +0.000 NA
ATOM     31  C   UNL     1       0.447  10.813  21.170  0.00  0.00    +0.000 C 
ENDBRANCH  28  30
ENDBRANCH  27  28
ENDBRANCH   1  27
TORSDOF 7
ENDMDL
MODEL 3
REMARK VINA RESULT:      -7.2      0.710      1.481
REMARK  Name = 
REMARK  9 active torsions:
REMARK  status: ('A' for Active; 'I' for Inactive)
REMARK    1  A    between atoms: C_1  and  N_2
REMARK    2  A    between atoms: N_2  and  C_3
REMARK    3  A    between atoms: N_2  and  C_4
REMARK    4  A    between atoms: C_4  and  C_5
REMARK    5  A    between atoms: C_5  and  N_6
REMARK    6  A    between atoms: C_9  and  O_10
REMARK    7  A    between atoms: C_11  and  C_12
REMARK    8  A    between atoms: C_12  and  C_14
REMARK    9  A    between atoms: C_24  and  C_25
REMARK                            x       y       z     vdW  Elec       q    Type
REMARK                         _______ _______ _______ _____ _____    ______ ____
ROOT
ATOM      1  N   UNL     1       2.197   6.873  19.536  0.00  0.00    +0.000 N 
ATOM      2  C   UNL     1       2.580   7.620  18.453  0.00  0.00    +0.000 C 
ATOM      3  O   UNL     1       2.098   8.645  18.005  0.00  0.00    +0.000 OA
ATOM      4  C   UNL     1       3.750   6.938  17.847  0.00  0.00    +0.000 C 
ATOM      5  C   UNL     1       4.052   5.870  18.605  0.00  0.00    +0.000 C 
ATOM      6  C   UNL     1       3.058   5.723  19.720  0.00  0.00    +0.000 C 
ENDROOT
BRANCH   6   7
ATOM      7  C   UNL     1       2.268   4.425  19.735  0.00  0.00    +0.000 A 
ATOM      8  C   UNL     1       1.660   3.914  18.587  0.00  0.00    +0.000 A 
ATOM      9  C   UNL     1       0.967   2.711  18.671  0.00  0.00    +0.000 A 
ATOM     10  C   UNL     1       0.879   2.057  19.892  0.00  0.00    +0.000 A 
ATOM     11  C   UNL     1       1.483   2.641  20.991  0.00  0.00    +0.000 A 
ATOM     12  N   UNL     1       2.166   3.804  20.941  0.00  0.00    +0.000 NA
ENDBRANCH   6   7
BRANCH   4  13
ATOM     13  O   UNL     1       4.342   7.396  16.707  0.00  0.00    +0.000 OA
ATOM     14  H   UNL     1       5.289   7.166  16.791  0.00  0.00    +0.000 HD
ENDBRANCH   4  13
BRANCH   5  15
ATOM     15  C   UNL     1       5.174   4.936  18.301  0.00  0.00    +0.000 C 
ATOM     16  O   UNL     1       5.675   4.241  19.182  0.00  0.00    +0.000 OA
BRANCH  15  17
ATOM     17  C   UNL     1       5.790   4.846  16.941  0.00  0.00    +0.000 A 
ATOM     18  C   UNL     1       7.081   5.377  16.762  0.00  0.00    +0.000 A 
ATOM     19  C   UNL     1       7.708   5.342  15.508  0.00  0.00    +0.000 A 
ATOM     20  C   UNL     1       7.041   4.794  14.416  0.00  0.00    +0.000 A 
ATOM     21  C   UNL     1       5.781   4.227  14.598  0.00  0.00    +0.000 A 
ATOM     22  C   UNL     1       5.177   4.225  15.854  0.00  0.00    +0.000 A 
ATOM     23  O   UNL     1       5.059   3.644  13.589  0.00  0.00    +0.000 OA
ATOM     24  C   UNL     1       5.897   3.326  12.477  0.00  0.00    +0.000 C 
ATOM     25  C   UNL     1       6.797   4.499  12.127  0.00  0.00    +0.000 C 
ATOM     26  O   UNL     1       7.686   4.813  13.208  0.00  0.00    +0.000 OA
ENDBRANCH  15  17
ENDBRANCH   5  15
BRANCH   1  27
ATOM     27  C   UNL     1       1.214   7.273  20.535  0.00  0.00    +0.000 C 
BRANCH  27  28
ATOM     28  C   UNL     1       1.562   8.573  21.304  0.00  0.00    +0.000 C 
BRANCH  28  30
ATOM     29  C   UNL     1       0.098   9.567  22.972  0.00  0.00    +0.000 C 
ATOM     30  N   UNL     1       0.436   9.504  21.547  0.00  0.00    +0.000 NA
ATOM     31  C   UNL     1       0.784  10.850  21.076  0.00  0.00    +0.000 C 
ENDBRANCH  28  30
ENDBRANCH  27  28
ENDBRANCH   1  27
TORSDOF 7
ENDMDL
MODEL 4
REMARK VINA RESULT:      -7.1      2.806      7.217
REMARK  Name = 
REMARK  9 active torsions:
REMARK  status: ('A' for Active; 'I' for Inactive)
REMARK    1  A    between atoms: C_1  and  N_2
REMARK    2  A    between atoms: N_2  and  C_3
REMARK    3  A    between atoms: N_2  and  C_4
REMARK    4  A    between atoms: C_4  and  C_5
REMARK    5  A    between atoms: C_5  and  N_6
REMARK    6  A    between atoms: C_9  and  O_10
REMARK    7  A    between atoms: C_11  and  C_12
REMARK    8  A    between atoms: C_12  and  C_14
REMARK    9  A    between atoms: C_24  and  C_25
REMARK                            x       y       z     vdW  Elec       q    Type
REMARK                         _______ _______ _______ _____ _____    ______ ____
ROOT
ATOM      1  N   UNL     1       3.404   3.335  18.856  0.00  0.00    +0.000 N 
ATOM      2  C   UNL     1       2.219   3.281  18.168  0.00  0.00    +0.000 C 
ATOM      3  O   UNL     1       1.493   2.330  17.944  0.00  0.00    +0.000 OA
ATOM      4  C   UNL     1       1.935   4.655  17.686  0.00  0.00    +0.000 C 
ATOM      5  C   UNL     1       2.904   5.469  18.141  0.00  0.00    +0.000 C 
ATOM      6  C   UNL     1       3.938   4.681  18.890  0.00  0.00    +0.000 C 
ENDROOT
BRANCH   6   7
ATOM      7  C   UNL     1       5.349   4.741  18.329  0.00  0.00    +0.000 A 
ATOM      8  C   UNL     1       6.415   5.267  19.060  0.00  0.00    +0.000 A 
ATOM      9  C   UNL     1       7.684   5.275  18.490  0.00  0.00    +0.000 A 
ATOM     10  C   UNL     1       7.858   4.782  17.204  0.00  0.00    +0.000 A 
ATOM     11  C   UNL     1       6.748   4.304  16.532  0.00  0.00    +0.000 A 
ATOM     12  N   UNL     1       5.505   4.279  17.060  0.00  0.00    +0.000 NA
ENDBRANCH   6   7
BRANCH   4  13
ATOM     13  O   UNL     1       0.850   4.937  16.910  0.00  0.00    +0.000 OA
ATOM     14  H   UNL     1       0.986   4.442  16.077  0.00  0.00    +0.000 HD
ENDBRANCH   4  13
BRANCH   5  15
ATOM     15  C   UNL     1       2.954   6.931  17.851  0.00  0.00    +0.000 C 
ATOM     16  O   UNL     1       3.739   7.384  17.021  0.00  0.00    +0.000 OA
BRANCH  15  17
ATOM     17  C   UNL     1       2.113   7.920  18.592  0.00  0.00    +0.000 A 
ATOM     18  C   UNL     1       1.531   8.975  17.863  0.00  0.00    +0.000 A 
ATOM     19  C   UNL     1       0.748   9.946  18.502  0.00  0.00    +0.000 A 
ATOM     20  C   UNL     1       0.554   9.884  19.878  0.00  0.00    +0.000 A 
ATOM     21  C   UNL     1       1.090   8.818  20.598  0.00  0.00    +0.000 A 
ATOM     22  C   UNL     1       1.834   7.830  19.956  0.00  0.00    +0.000 A 
ATOM     23  O   UNL     1       0.932   8.660  21.951  0.00  0.00    +0.000 OA
ATOM     24  C   UNL     1      -0.151   9.454  22.436  0.00  0.00    +0.000 C 
ATOM     25  C   UNL     1      -0.074  10.867  21.885  0.00  0.00    +0.000 C 
ATOM     26  O   UNL     1      -0.194  10.876  20.456  0.00  0.00    +0.000 OA
ENDBRANCH  15  17
ENDBRANCH   5  15
BRANCH   1  27
ATOM     27  C   UNL     1       3.964   2.258  19.664  0.00  0.00    +0.000 C 
BRANCH  27  28
ATOM     28  C   UNL     1       3.406   2.173  21.108  0.00  0.00    +0.000 C 
BRANCH  28  30
ATOM     29  C   UNL     1       1.292   2.109  22.308  0.00  0.00    +0.000 C 
ATOM     30  N   UNL     1       2.109   2.848  21.342  0.00  0.00    +0.000 NA
ATOM     31  C   UNL     1       2.335   4.208  21.847  0.00  0.00    +0.000 C 
ENDBRANCH  28  30
ENDBRANCH  27  28
ENDBRANCH   1  27
TORSDOF 7
ENDMDL
MODEL 5
REMARK VINA RESULT:      -7.0      2.799      7.085
REMARK  Name = 
REMARK  9 active torsions:
REMARK  status: ('A' for Active; 'I' for Inactive)
REMARK    1  A    between atoms: C_1  and  N_2
REMARK    2  A    between atoms: N_2  and  C_3
REMARK    3  A    between atoms: N_2  and  C_4
REMARK    4  A    between atoms: C_4  and  C_5
REMARK    5  A    between atoms: C_5  and  N_6
REMARK    6  A    between atoms: C_9  and  O_10
REMARK    7  A    between atoms: C_11  and  C_12
REMARK    8  A    between atoms: C_12  and  C_14
REMARK    9  A    between atoms: C_24  and  C_25
REMARK                            x       y       z     vdW  Elec       q    Type
REMARK                         _______ _______ _______ _____ _____    ______ ____
ROOT
ATOM      1  N   UNL     1       3.275   3.202  18.771  0.00  0.00    +0.000 N 
ATOM      2  C   UNL     1       2.070   3.213  18.118  0.00  0.00    +0.000 C 
ATOM      3  O   UNL     1       1.305   2.296  17.882  0.00  0.00    +0.000 OA
ATOM      4  C   UNL     1       1.820   4.612  17.692  0.00  0.00    +0.000 C 
ATOM      5  C   UNL     1       2.830   5.375  18.146  0.00  0.00    +0.000 C 
ATOM      6  C   UNL     1       3.857   4.526  18.836  0.00  0.00    +0.000 C 
ENDROOT
BRANCH   6   7
ATOM      7  C   UNL     1       5.253   4.558  18.234  0.00  0.00    +0.000 A 
ATOM      8  C   UNL     1       5.488   4.259  16.892  0.00  0.00    +0.000 A 
ATOM      9  C   UNL     1       6.789   4.326  16.406  0.00  0.00    +0.000 A 
ATOM     10  C   UNL     1       7.824   4.666  17.266  0.00  0.00    +0.000 A 
ATOM     11  C   UNL     1       7.515   4.920  18.591  0.00  0.00    +0.000 A 
ATOM     12  N   UNL     1       6.263   4.868  19.091  0.00  0.00    +0.000 NA
ENDBRANCH   6   7
BRANCH   4  13
ATOM     13  O   UNL     1       0.724   4.958  16.959  0.00  0.00    +0.000 OA
ATOM     14  H   UNL     1       0.013   4.349  17.245  0.00  0.00    +0.000 HD
ENDBRANCH   4  13
BRANCH   5  15
ATOM     15  C   UNL     1       2.923   6.844  17.905  0.00  0.00    +0.000 C 
ATOM     16  O   UNL     1       3.671   7.297  17.042  0.00  0.00    +0.000 OA
BRANCH  15  17
ATOM     17  C   UNL     1       2.175   7.837  18.736  0.00  0.00    +0.000 A 
ATOM     18  C   UNL     1       1.962   7.537  20.095  0.00  0.00    +0.000 A 
ATOM     19  C   UNL     1       1.251   8.417  20.924  0.00  0.00    +0.000 A 
ATOM     20  C   UNL     1       0.729   9.594  20.399  0.00  0.00    +0.000 A 
ATOM     21  C   UNL     1       0.974   9.917  19.065  0.00  0.00    +0.000 A 
ATOM     22  C   UNL     1       1.716   9.062  18.253  0.00  0.00    +0.000 A 
ATOM     23  O   UNL     1       0.521  11.064  18.466  0.00  0.00    +0.000 OA
ATOM     24  C   UNL     1       0.149  12.038  19.441  0.00  0.00    +0.000 C 
ATOM     25  C   UNL     1      -0.707  11.413  20.530  0.00  0.00    +0.000 C 
ATOM     26  O   UNL     1       0.017  10.402  21.245  0.00  0.00    +0.000 OA
ENDBRANCH  15  17
ENDBRANCH   5  15
BRANCH   1  27
ATOM     27  C   UNL     1       3.820   2.078  19.523  0.00  0.00    +0.000 C 
BRANCH  27  28
ATOM     28  C   UNL     1       4.035   2.353  21.034  0.00  0.00    +0.000 C 
BRANCH  28  30
ATOM     29  C   UNL     1       2.472   4.075  21.745  0.00  0.00    +0.000 C 
ATOM     30  N   UNL     1       2.815   2.652  21.818  0.00  0.00    +0.000 NA
ATOM     31  C   UNL     1       1.687   1.859  21.315  0.00  0.00    +0.000 C 
ENDBRANCH  28  30
ENDBRANCH  27  28
ENDBRANCH   1  27
TORSDOF 7
ENDMDL
MODEL 6
REMARK VINA RESULT:      -6.9      4.285      7.467
REMARK  Name = 
REMARK  9 active torsions:
REMARK  status: ('A' for Active; 'I' for Inactive)
REMARK    1  A    between atoms: C_1  and  N_2
REMARK    2  A    between atoms: N_2  and  C_3
REMARK    3  A    between atoms: N_2  and  C_4
REMARK    4  A    between atoms: C_4  and  C_5
REMARK    5  A    between atoms: C_5  and  N_6
REMARK    6  A    between atoms: C_9  and  O_10
REMARK    7  A    between atoms: C_11  and  C_12
REMARK    8  A    between atoms: C_12  and  C_14
REMARK    9  A    between atoms: C_24  and  C_25
REMARK                            x       y       z     vdW  Elec       q    Type
REMARK                         _______ _______ _______ _____ _____    ______ ____
ROOT
ATOM      1  N   UNL     1      -1.203  11.782  20.685  0.00  0.00    +0.000 N 
ATOM      2  C   UNL     1      -1.608  11.459  21.953  0.00  0.00    +0.000 C 
ATOM      3  O   UNL     1      -2.557  11.871  22.595  0.00  0.00    +0.000 OA
ATOM      4  C   UNL     1      -0.639  10.465  22.478  0.00  0.00    +0.000 C 
ATOM      5  C   UNL     1       0.252  10.195  21.509  0.00  0.00    +0.000 C 
ATOM      6  C   UNL     1      -0.016  11.046  20.302  0.00  0.00    +0.000 C 
ENDROOT
BRANCH   6   7
ATOM      7  C   UNL     1       1.113  11.974  19.884  0.00  0.00    +0.000 A 
ATOM      8  C   UNL     1       1.599  12.007  18.576  0.00  0.00    +0.000 A 
ATOM      9  C   UNL     1       2.623  12.894  18.261  0.00  0.00    +0.000 A 
ATOM     10  C   UNL     1       3.152  13.708  19.253  0.00  0.00    +0.000 A 
ATOM     11  C   UNL     1       2.638  13.597  20.532  0.00  0.00    +0.000 A 
ATOM     12  N   UNL     1       1.642  12.749  20.869  0.00  0.00    +0.000 NA
ENDBRANCH   6   7
BRANCH   4  13
ATOM     13  O   UNL     1      -0.723   9.978  23.749  0.00  0.00    +0.000 OA
ATOM     14  H   UNL     1      -0.027  10.442  24.256  0.00  0.00    +0.000 HD
ENDBRANCH   4  13
BRANCH   5  15
ATOM     15  C   UNL     1       1.385   9.240  21.676  0.00  0.00    +0.000 C 
ATOM     16  O   UNL     1       2.188   9.366  22.597  0.00  0.00    +0.000 OA
BRANCH  15  17
ATOM     17  C   UNL     1       1.643   8.132  20.705  0.00  0.00    +0.000 A 
ATOM     18  C   UNL     1       2.032   8.475  19.396  0.00  0.00    +0.000 A 
ATOM     19  C   UNL     1       2.270   7.485  18.432  0.00  0.00    +0.000 A 
ATOM     20  C   UNL     1       2.103   6.144  18.761  0.00  0.00    +0.000 A 
ATOM     21  C   UNL     1       1.761   5.797  20.067  0.00  0.00    +0.000 A 
ATOM     22  C   UNL     1       1.565   6.780  21.035  0.00  0.00    +0.000 A 
ATOM     23  O   UNL     1       1.597   4.503  20.490  0.00  0.00    +0.000 OA
ATOM     24  C   UNL     1       2.206   3.585  19.580  0.00  0.00    +0.000 C 
ATOM     25  C   UNL     1       1.834   3.922  18.146  0.00  0.00    +0.000 C 
ATOM     26  O   UNL     1       2.319   5.220  17.773  0.00  0.00    +0.000 OA
ENDBRANCH  15  17
ENDBRANCH   5  15
BRANCH   1  27
ATOM     27  C   UNL     1      -1.966  12.574  19.727  0.00  0.00    +0.000 C 
BRANCH  27  28
ATOM     28  C   UNL     1      -2.133  11.919  18.332  0.00  0.00    +0.000 C 
BRANCH  28  30
ATOM     29  C   UNL     1      -4.457  11.646  17.671  0.00  0.00    +0.000 C 
ATOM     30  N   UNL     1      -3.263  10.973  18.190  0.00  0.00    +0.000 NA
ATOM     31  C   UNL     1      -2.895   9.881  17.281  0.00  0.00    +0.000 C 
ENDBRANCH  28  30
ENDBRANCH  27  28
ENDBRANCH   1  27
TORSDOF 7
ENDMDL
MODEL 7
REMARK VINA RESULT:      -6.8      3.567      7.971
REMARK  Name = 
REMARK  9 active torsions:
REMARK  status: ('A' for Active; 'I' for Inactive)
REMARK    1  A    between atoms: C_1  and  N_2
REMARK    2  A    between atoms: N_2  and  C_3
REMARK    3  A    between atoms: N_2  and  C_4
REMARK    4  A    between atoms: C_4  and  C_5
REMARK    5  A    between atoms: C_5  and  N_6
REMARK    6  A    between atoms: C_9  and  O_10
REMARK    7  A    between atoms: C_11  and  C_12
REMARK    8  A    between atoms: C_12  and  C_14
REMARK    9  A    between atoms: C_24  and  C_25
REMARK                            x       y       z     vdW  Elec       q    Type
REMARK                         _______ _______ _______ _____ _____    ______ ____
ROOT
ATOM      1  N   UNL     1       1.946   6.133  20.045  0.00  0.00    +0.000 N 
ATOM      2  C   UNL     1       3.110   6.107  19.322  0.00  0.00    +0.000 C 
ATOM      3  O   UNL     1       4.004   5.281  19.318  0.00  0.00    +0.000 OA
ATOM      4  C   UNL     1       3.131   7.335  18.489  0.00  0.00    +0.000 C 
ATOM      5  C   UNL     1       1.983   8.002  18.696  0.00  0.00    +0.000 C 
ATOM      6  C   UNL     1       1.154   7.306  19.736  0.00  0.00    +0.000 C 
ENDROOT
BRANCH   6   7
ATOM      7  C   UNL     1       0.840   8.118  20.982  0.00  0.00    +0.000 A 
ATOM      8  C   UNL     1      -0.467   8.300  21.437  0.00  0.00    +0.000 A 
ATOM      9  C   UNL     1      -0.679   9.041  22.595  0.00  0.00    +0.000 A 
ATOM     10  C   UNL     1       0.405   9.598  23.259  0.00  0.00    +0.000 A 
ATOM     11  C   UNL     1       1.668   9.397  22.730  0.00  0.00    +0.000 A 
ATOM     12  N   UNL     1       1.907   8.680  21.611  0.00  0.00    +0.000 NA
ENDBRANCH   6   7
BRANCH   4  13
ATOM     13  O   UNL     1       4.190   7.646  17.689  0.00  0.00    +0.000 OA
ATOM     14  H   UNL     1       4.831   6.915  17.804  0.00  0.00    +0.000 HD
ENDBRANCH   4  13
BRANCH   5  15
ATOM     15  C   UNL     1       1.650   9.295  18.030  0.00  0.00    +0.000 C 
ATOM     16  O   UNL     1       2.469   9.864  17.312  0.00  0.00    +0.000 OA
BRANCH  15  17
ATOM     17  C   UNL     1       0.347   9.994  18.251  0.00  0.00    +0.000 A 
ATOM     18  C   UNL     1       0.312  11.052  19.178  0.00  0.00    +0.000 A 
ATOM     19  C   UNL     1      -0.883  11.736  19.446  0.00  0.00    +0.000 A 
ATOM     20  C   UNL     1      -2.057  11.356  18.804  0.00  0.00    +0.000 A 
ATOM     21  C   UNL     1      -2.019  10.338  17.852  0.00  0.00    +0.000 A 
ATOM     22  C   UNL     1      -0.823   9.687  17.557  0.00  0.00    +0.000 A 
ATOM     23  O   UNL     1      -3.118   9.911  17.153  0.00  0.00    +0.000 OA
ATOM     24  C   UNL     1      -4.168  10.878  17.210  0.00  0.00    +0.000 C 
ATOM     25  C   UNL     1      -4.372  11.370  18.632  0.00  0.00    +0.000 C 
ATOM     26  O   UNL     1      -3.202  12.037  19.125  0.00  0.00    +0.000 OA
ENDBRANCH  15  17
ENDBRANCH   5  15
BRANCH   1  27
ATOM     27  C   UNL     1       1.422   5.034  20.847  0.00  0.00    +0.000 C 
BRANCH  27  28
ATOM     28  C   UNL     1       0.929   3.813  20.029  0.00  0.00    +0.000 C 
BRANCH  28  30
ATOM     29  C   UNL     1       2.358   2.059  19.137  0.00  0.00    +0.000 C 
ATOM     30  N   UNL     1       1.611   2.528  20.308  0.00  0.00    +0.000 NA
ATOM     31  C   UNL     1       2.537   2.685  21.436  0.00  0.00    +0.000 C 
ENDBRANCH  28  30
ENDBRANCH  27  28
ENDBRANCH   1  27
TORSDOF 7
ENDMDL
MODEL 8
REMARK VINA RESULT:      -6.6      4.138      7.779
REMARK  Name = 
REMARK  9 active torsions:
REMARK  status: ('A' for Active; 'I' for Inactive)
REMARK    1  A    between atoms: C_1  and  N_2
REMARK    2  A    between atoms: N_2  and  C_3
REMARK    3  A    between atoms: N_2  and  C_4
REMARK    4  A    between atoms: C_4  and  C_5
REMARK    5  A    between atoms: C_5  and  N_6
REMARK    6  A    between atoms: C_9  and  O_10
REMARK    7  A    between atoms: C_11  and  C_12
REMARK    8  A    between atoms: C_12  and  C_14
REMARK    9  A    between atoms: C_24  and  C_25
REMARK                            x       y       z     vdW  Elec       q    Type
REMARK                         _______ _______ _______ _____ _____    ______ ____
ROOT
ATOM      1  N   UNL     1       2.232  13.731  20.469  0.00  0.00    +0.000 N 
ATOM      2  C   UNL     1       2.745  13.808  19.200  0.00  0.00    +0.000 C 
ATOM      3  O   UNL     1       3.485  14.641  18.710  0.00  0.00    +0.000 OA
ATOM      4  C   UNL     1       2.215  12.645  18.447  0.00  0.00    +0.000 C 
ATOM      5  C   UNL     1       1.471  11.904  19.287  0.00  0.00    +0.000 C 
ATOM      6  C   UNL     1       1.392  12.563  20.633  0.00  0.00    +0.000 C 
ENDROOT
BRANCH   6   7
ATOM      7  C   UNL     1      -0.004  12.933  21.107  0.00  0.00    +0.000 A 
ATOM      8  C   UNL     1      -0.564  12.388  22.262  0.00  0.00    +0.000 A 
ATOM      9  C   UNL     1      -1.840  12.785  22.645  0.00  0.00    +0.000 A 
ATOM     10  C   UNL     1      -2.535  13.697  21.862  0.00  0.00    +0.000 A 
ATOM     11  C   UNL     1      -1.925  14.171  20.714  0.00  0.00    +0.000 A 
ATOM     12  N   UNL     1      -0.686  13.808  20.319  0.00  0.00    +0.000 NA
ENDBRANCH   6   7
BRANCH   4  13
ATOM     13  O   UNL     1       2.489  12.456  17.125  0.00  0.00    +0.000 OA
ATOM     14  H   UNL     1       1.667  12.098  16.734  0.00  0.00    +0.000 HD
ENDBRANCH   4  13
BRANCH   5  15
ATOM     15  C   UNL     1       0.770  10.652  18.880  0.00  0.00    +0.000 C 
ATOM     16  O   UNL     1      -0.345  10.692  18.364  0.00  0.00    +0.000 OA
BRANCH  15  17
ATOM     17  C   UNL     1       1.346   9.296  19.135  0.00  0.00    +0.000 A 
ATOM     18  C   UNL     1       1.081   8.687  20.377  0.00  0.00    +0.000 A 
ATOM     19  C   UNL     1       1.608   7.425  20.687  0.00  0.00    +0.000 A 
ATOM     20  C   UNL     1       2.420   6.769  19.768  0.00  0.00    +0.000 A 
ATOM     21  C   UNL     1       2.649   7.347  18.521  0.00  0.00    +0.000 A 
ATOM     22  C   UNL     1       2.091   8.583  18.198  0.00  0.00    +0.000 A 
ATOM     23  O   UNL     1       3.416   6.766  17.543  0.00  0.00    +0.000 OA
ATOM     24  C   UNL     1       3.591   5.370  17.792  0.00  0.00    +0.000 C 
ATOM     25  C   UNL     1       3.972   5.125  19.242  0.00  0.00    +0.000 C 
ATOM     26  O   UNL     1       2.933   5.552  20.134  0.00  0.00    +0.000 OA
ENDBRANCH  15  17
ENDBRANCH   5  15
BRANCH   1  27
ATOM     27  C   UNL     1       2.639  14.558  21.599  0.00  0.00    +0.000 C 
BRANCH  27  28
ATOM     28  C   UNL     1       4.077  14.291  22.112  0.00  0.00    +0.000 C 
BRANCH  28  30
ATOM     29  C   UNL     1       5.683  14.272  23.938  0.00  0.00    +0.000 C 
ATOM     30  N   UNL     1       4.365  14.735  23.495  0.00  0.00    +0.000 NA
ATOM     31  C   UNL     1       4.321  16.201  23.572  0.00  0.00    +0.000 C 
ENDBRANCH  28  30
ENDBRANCH  27  28
ENDBRANCH   1  27
TORSDOF 7
ENDMDL
MODEL 9
REMARK VINA RESULT:      -6.6      9.718     12.610
REMARK  Name = 
REMARK  9 active torsions:
REMARK  status: ('A' for Active; 'I' for Inactive)
REMARK    1  A    between atoms: C_1  and  N_2
REMARK    2  A    between atoms: N_2  and  C_3
REMARK    3  A    between atoms: N_2  and  C_4
REMARK    4  A    between atoms: C_4  and  C_5
REMARK    5  A    between atoms: C_5  and  N_6
REMARK    6  A    between atoms: C_9  and  O_10
REMARK    7  A    between atoms: C_11  and  C_12
REMARK    8  A    between atoms: C_12  and  C_14
REMARK    9  A    between atoms: C_24  and  C_25
REMARK                            x       y       z     vdW  Elec       q    Type
REMARK                         _______ _______ _______ _____ _____    ______ ____
ROOT
ATOM      1  N   UNL     1      11.063  13.952  18.916  0.00  0.00    +0.000 N 
ATOM      2  C   UNL     1      11.419  14.376  17.663  0.00  0.00    +0.000 C 
ATOM      3  O   UNL     1      12.315  13.988  16.935  0.00  0.00    +0.000 OA
ATOM      4  C   UNL     1      10.490  15.473  17.296  0.00  0.00    +0.000 C 
ATOM      5  C   UNL     1       9.600  15.621  18.293  0.00  0.00    +0.000 C 
ATOM      6  C   UNL     1       9.923  14.686  19.423  0.00  0.00    +0.000 C 
ENDROOT
BRANCH   6   7
ATOM      7  C   UNL     1      10.224  15.345  20.759  0.00  0.00    +0.000 A 
ATOM      8  C   UNL     1       9.508  15.036  21.916  0.00  0.00    +0.000 A 
ATOM      9  C   UNL     1       9.850  15.665  23.108  0.00  0.00    +0.000 A 
ATOM     10  C   UNL     1      10.878  16.598  23.118  0.00  0.00    +0.000 A 
ATOM     11  C   UNL     1      11.522  16.873  21.925  0.00  0.00    +0.000 A 
ATOM     12  N   UNL     1      11.216  16.276  20.753  0.00  0.00    +0.000 NA
ENDBRANCH   6   7
BRANCH   4  13
ATOM     13  O   UNL     1      10.610  16.159  16.124  0.00  0.00    +0.000 OA
ATOM     14  H   UNL     1       9.794  15.964  15.620  0.00  0.00    +0.000 HD
ENDBRANCH   4  13
BRANCH   5  15
ATOM     15  C   UNL     1       8.510  16.638  18.279  0.00  0.00    +0.000 C 
ATOM     16  O   UNL     1       8.767  17.840  18.273  0.00  0.00    +0.000 OA
BRANCH  15  17
ATOM     17  C   UNL     1       7.065  16.259  18.342  0.00  0.00    +0.000 A 
ATOM     18  C   UNL     1       6.694  14.984  17.875  0.00  0.00    +0.000 A 
ATOM     19  C   UNL     1       5.353  14.573  17.888  0.00  0.00    +0.000 A 
ATOM     20  C   UNL     1       4.368  15.441  18.350  0.00  0.00    +0.000 A 
ATOM     21  C   UNL     1       4.735  16.687  18.854  0.00  0.00    +0.000 A 
ATOM     22  C   UNL     1       6.072  17.078  18.879  0.00  0.00    +0.000 A 
ATOM     23  O   UNL     1       3.839  17.599  19.351  0.00  0.00    +0.000 OA
ATOM     24  C   UNL     1       2.593  16.974  19.664  0.00  0.00    +0.000 C 
ATOM     25  C   UNL     1       2.142  16.072  18.528  0.00  0.00    +0.000 C 
ATOM     26  O   UNL     1       3.071  15.002  18.312  0.00  0.00    +0.000 OA
ENDBRANCH  15  17
ENDBRANCH   5  15
BRANCH   1  27
ATOM     27  C   UNL     1      11.581  12.765  19.588  0.00  0.00    +0.000 C 
BRANCH  27  28
ATOM     28  C   UNL     1      10.966  11.427  19.104  0.00  0.00    +0.000 C 
BRANCH  28  30
ATOM     29  C   UNL     1       9.098   9.871  19.029  0.00  0.00    +0.000 C 
ATOM     30  N   UNL     1       9.553  11.189  19.480  0.00  0.00    +0.000 NA
ATOM     31  C   UNL     1       9.399  11.277  20.938  0.00  0.00    +0.000 C 
ENDBRANCH  28  30
ENDBRANCH  27  28
ENDBRANCH   1  27
TORSDOF 7
ENDMDL
