MODEL 1
REMARK VINA RESULT:      -7.6      0.000      0.000
REMARK  Name = 
REMARK  6 active torsions:
REMARK  status: ('A' for Active; 'I' for Inactive)
REMARK    1  A    between atoms: C_1  and  N_2
REMARK    2  A    between atoms: C_4  and  C_5
REMARK    3  A    between atoms: C_7  and  C_8
REMARK    4  A    between atoms: N_11  and  C_12
REMARK    5  A    between atoms: N_14  and  C_15
REMARK    6  A    between atoms: C_15  and  C_16
REMARK                            x       y       z     vdW  Elec       q    Type
REMARK                         _______ _______ _______ _____ _____    ______ ____
ROOT
ATOM      1  C   UNL     1       1.843   8.772  18.556  0.00  0.00    +0.000 A 
ATOM      2  C   UNL     1       2.882   8.555  17.632  0.00  0.00    +0.000 A 
ATOM      3  C   UNL     1       3.454   7.356  17.999  0.00  0.00    +0.000 A 
ATOM      4  N   UNL     1       2.790   6.960  19.136  0.00  0.00    +0.000 N 
ATOM      5  N   UNL     1       1.801   7.820  19.492  0.00  0.00    +0.000 NA
ENDROOT
BRANCH   1   9
ATOM      6  C   UNL     1      -0.298  13.267  18.745  0.00  0.00    +0.000 C 
ATOM      7  N   UNL     1      -0.032  11.861  18.560  0.00  0.00    +0.000 N 
ATOM      8  C   UNL     1       1.153  11.222  18.779  0.00  0.00    +0.000 A 
ATOM      9  C   UNL     1       0.921   9.895  18.492  0.00  0.00    +0.000 A 
ATOM     10  C   UNL     1      -0.431   9.841  18.102  0.00  0.00    +0.000 A 
ATOM     11  N   UNL     1      -1.019  11.042  18.146  0.00  0.00    +0.000 NA
ENDBRANCH   1   9
BRANCH   3  12
ATOM     12  C   UNL     1       4.544   6.684  17.253  0.00  0.00    +0.000 A 
ATOM     13  C   UNL     1       5.885   7.060  17.050  0.00  0.00    +0.000 A 
ATOM     14  N   UNL     1       6.567   6.149  16.347  0.00  0.00    +0.000 NA
ATOM     15  N   UNL     1       5.662   5.178  16.123  0.00  0.00    +0.000 N 
ATOM     16  C   UNL     1       6.043   3.971  15.431  0.00  0.00    +0.000 C 
ATOM     17  C   UNL     1       4.428   5.462  16.629  0.00  0.00    +0.000 A 
ENDBRANCH   3  12
BRANCH   4  18
ATOM     18  C   UNL     1       3.146   5.897  20.071  0.00  0.00    +0.000 C 
BRANCH  18  19
ATOM     19  C   UNL     1       2.527   4.550  19.769  0.00  0.00    +0.000 A 
ATOM     20  C   UNL     1       1.201   4.229  20.100  0.00  0.00    +0.000 A 
ATOM     21  C   UNL     1       0.696   2.944  19.872  0.00  0.00    +0.000 A 
ATOM     22  C   UNL     1       1.513   1.957  19.327  0.00  0.00    +0.000 A 
ATOM     23  C   UNL     1       2.835   2.256  19.009  0.00  0.00    +0.000 A 
ATOM     24 CL   UNL     1       3.858   1.033  18.366  0.00  0.00    +0.000 Cl
ATOM     25  C   UNL     1       3.341   3.540  19.228  0.00  0.00    +0.000 A 
ENDBRANCH  18  19
ENDBRANCH   4  18
TORSDOF 4
ENDMDL
MODEL 2
REMARK VINA RESULT:      -7.6      2.528      4.310
REMARK  Name = 
REMARK  6 active torsions:
REMARK  status: ('A' for Active; 'I' for Inactive)
REMARK    1  A    between atoms: C_1  and  N_2
REMARK    2  A    between atoms: C_4  and  C_5
REMARK    3  A    between atoms: C_7  and  C_8
REMARK    4  A    between atoms: N_11  and  C_12
REMARK    5  A    between atoms: N_14  and  C_15
REMARK    6  A    between atoms: C_15  and  C_16
REMARK                            x       y       z     vdW  Elec       q    Type
REMARK                         _______ _______ _______ _____ _____    ______ ____
ROOT
ATOM      1  C   UNL     1       1.788   8.071  20.140  0.00  0.00    +0.000 A 
ATOM      2  C   UNL     1       2.072   6.721  20.415  0.00  0.00    +0.000 A 
ATOM      3  C   UNL     1       2.845   6.286  19.360  0.00  0.00    +0.000 A 
ATOM      4  N   UNL     1       2.925   7.351  18.495  0.00  0.00    +0.000 N 
ATOM      5  N   UNL     1       2.279   8.453  18.957  0.00  0.00    +0.000 NA
ENDROOT
BRANCH   1   9
ATOM      6  C   UNL     1      -1.320  11.408  22.147  0.00  0.00    +0.000 C 
ATOM      7  N   UNL     1      -0.309  10.400  21.938  0.00  0.00    +0.000 N 
ATOM      8  C   UNL     1       0.034   9.825  20.750  0.00  0.00    +0.000 A 
ATOM      9  C   UNL     1       1.054   8.946  21.039  0.00  0.00    +0.000 A 
ATOM     10  C   UNL     1       1.245   9.061  22.429  0.00  0.00    +0.000 A 
ATOM     11  N   UNL     1       0.415   9.953  22.983  0.00  0.00    +0.000 NA
ENDBRANCH   1   9
BRANCH   3  12
ATOM     12  C   UNL     1       3.450   4.936  19.264  0.00  0.00    +0.000 A 
ATOM     13  C   UNL     1       4.689   4.450  19.723  0.00  0.00    +0.000 A 
ATOM     14  N   UNL     1       4.846   3.146  19.475  0.00  0.00    +0.000 NA
ATOM     15  N   UNL     1       3.692   2.794  18.879  0.00  0.00    +0.000 N 
ATOM     16  C   UNL     1       3.450   1.422  18.507  0.00  0.00    +0.000 C 
ATOM     17  C   UNL     1       2.830   3.839  18.711  0.00  0.00    +0.000 A 
ENDBRANCH   3  12
BRANCH   4  18
ATOM     18  C   UNL     1       3.414   7.368  17.119  0.00  0.00    +0.000 C 
BRANCH  18  19
ATOM     19  C   UNL     1       4.761   6.711  16.915  0.00  0.00    +0.000 A 
ATOM     20  C   UNL     1       5.940   7.184  17.511  0.00  0.00    +0.000 A 
ATOM     21  C   UNL     1       7.175   6.590  17.229  0.00  0.00    +0.000 A 
ATOM     22  C   UNL     1       7.252   5.527  16.334  0.00  0.00    +0.000 A 
ATOM     23  C   UNL     1       6.094   5.056  15.722  0.00  0.00    +0.000 A 
ATOM     24 CL   UNL     1       6.188   3.764  14.592  0.00  0.00    +0.000 Cl
ATOM     25  C   UNL     1       4.858   5.642  16.006  0.00  0.00    +0.000 A 
ENDBRANCH  18  19
ENDBRANCH   4  18
TORSDOF 4
ENDMDL
MODEL 3
REMARK VINA RESULT:      -7.6      2.893      4.516
REMARK  Name = 
REMARK  6 active torsions:
REMARK  status: ('A' for Active; 'I' for Inactive)
REMARK    1  A    between atoms: C_1  and  N_2
REMARK    2  A    between atoms: C_4  and  C_5
REMARK    3  A    between atoms: C_7  and  C_8
REMARK    4  A    between atoms: N_11  and  C_12
REMARK    5  A    between atoms: N_14  and  C_15
REMARK    6  A    between atoms: C_15  and  C_16
REMARK                            x       y       z     vdW  Elec       q    Type
REMARK                         _______ _______ _______ _____ _____    ______ ____
ROOT
ATOM      1  C   UNL     1       1.699   7.643  20.258  0.00  0.00    +0.000 A 
ATOM      2  C   UNL     1       1.477   6.256  20.176  0.00  0.00    +0.000 A 
ATOM      3  C   UNL     1       2.235   5.824  19.110  0.00  0.00    +0.000 A 
ATOM      4  N   UNL     1       2.806   6.957  18.578  0.00  0.00    +0.000 N 
ATOM      5  N   UNL     1       2.484   8.080  19.269  0.00  0.00    +0.000 NA
ENDROOT
BRANCH   1   9
ATOM      6  C   UNL     1      -1.211  10.554  23.065  0.00  0.00    +0.000 C 
ATOM      7  N   UNL     1      -0.118   9.765  22.548  0.00  0.00    +0.000 N 
ATOM      8  C   UNL     1      -0.104   9.063  21.379  0.00  0.00    +0.000 A 
ATOM      9  C   UNL     1       1.148   8.495  21.299  0.00  0.00    +0.000 A 
ATOM     10  C   UNL     1       1.808   8.908  22.472  0.00  0.00    +0.000 A 
ATOM     11  N   UNL     1       1.037   9.690  23.238  0.00  0.00    +0.000 NA
ENDBRANCH   1   9
BRANCH   3  12
ATOM     12  C   UNL     1       2.374   4.407  18.699  0.00  0.00    +0.000 A 
ATOM     13  C   UNL     1       1.717   3.674  17.693  0.00  0.00    +0.000 A 
ATOM     14  N   UNL     1       2.162   2.415  17.609  0.00  0.00    +0.000 NA
ATOM     15  N   UNL     1       3.124   2.355  18.548  0.00  0.00    +0.000 N 
ATOM     16  C   UNL     1       3.897   1.151  18.725  0.00  0.00    +0.000 C 
ATOM     17  C   UNL     1       3.275   3.520  19.243  0.00  0.00    +0.000 A 
ENDBRANCH   3  12
BRANCH   4  18
ATOM     18  C   UNL     1       3.502   7.108  17.304  0.00  0.00    +0.000 C 
BRANCH  18  19
ATOM     19  C   UNL     1       4.754   6.272  17.160  0.00  0.00    +0.000 A 
ATOM     20  C   UNL     1       4.922   5.316  16.146  0.00  0.00    +0.000 A 
ATOM     21  C   UNL     1       6.065   4.512  16.100  0.00  0.00    +0.000 A 
ATOM     22  C   UNL     1       7.050   4.638  17.076  0.00  0.00    +0.000 A 
ATOM     23  C   UNL     1       6.891   5.571  18.098  0.00  0.00    +0.000 A 
ATOM     24 CL   UNL     1       8.088   5.710  19.324  0.00  0.00    +0.000 Cl
ATOM     25  C   UNL     1       5.754   6.381  18.143  0.00  0.00    +0.000 A 
ENDBRANCH  18  19
ENDBRANCH   4  18
TORSDOF 4
ENDMDL
MODEL 4
REMARK VINA RESULT:      -7.6      1.383      5.937
REMARK  Name = 
REMARK  6 active torsions:
REMARK  status: ('A' for Active; 'I' for Inactive)
REMARK    1  A    between atoms: C_1  and  N_2
REMARK    2  A    between atoms: C_4  and  C_5
REMARK    3  A    between atoms: C_7  and  C_8
REMARK    4  A    between atoms: N_11  and  C_12
REMARK    5  A    between atoms: N_14  and  C_15
REMARK    6  A    between atoms: C_15  and  C_16
REMARK                            x       y       z     vdW  Elec       q    Type
REMARK                         _______ _______ _______ _____ _____    ______ ____
ROOT
ATOM      1  C   UNL     1       3.917   6.876  17.950  0.00  0.00    +0.000 A 
ATOM      2  C   UNL     1       3.118   8.010  17.714  0.00  0.00    +0.000 A 
ATOM      3  C   UNL     1       2.242   8.070  18.776  0.00  0.00    +0.000 A 
ATOM      4  N   UNL     1       2.508   6.958  19.540  0.00  0.00    +0.000 N 
ATOM      5  N   UNL     1       3.531   6.214  19.045  0.00  0.00    +0.000 NA
ENDROOT
BRANCH   1   9
ATOM      6  C   UNL     1       6.870   4.744  14.551  0.00  0.00    +0.000 C 
ATOM      7  N   UNL     1       6.341   5.561  15.617  0.00  0.00    +0.000 N 
ATOM      8  C   UNL     1       5.059   5.562  16.082  0.00  0.00    +0.000 A 
ATOM      9  C   UNL     1       5.034   6.479  17.108  0.00  0.00    +0.000 A 
ATOM     10  C   UNL     1       6.347   6.982  17.176  0.00  0.00    +0.000 A 
ATOM     11  N   UNL     1       7.152   6.419  16.266  0.00  0.00    +0.000 NA
ENDBRANCH   1   9
BRANCH   3  12
ATOM     12  C   UNL     1       1.258   9.157  18.991  0.00  0.00    +0.000 A 
ATOM     13  C   UNL     1       0.938   9.890  20.149  0.00  0.00    +0.000 A 
ATOM     14  N   UNL     1       0.013  10.828  19.918  0.00  0.00    +0.000 NA
ATOM     15  N   UNL     1      -0.239  10.708  18.601  0.00  0.00    +0.000 N 
ATOM     16  C   UNL     1      -1.158  11.607  17.949  0.00  0.00    +0.000 C 
ATOM     17  C   UNL     1       0.469   9.705  18.005  0.00  0.00    +0.000 A 
ENDBRANCH   3  12
BRANCH   4  18
ATOM     18  C   UNL     1       1.723   6.403  20.638  0.00  0.00    +0.000 C 
BRANCH  18  19
ATOM     19  C   UNL     1       1.720   4.893  20.719  0.00  0.00    +0.000 A 
ATOM     20  C   UNL     1       2.391   4.180  21.725  0.00  0.00    +0.000 A 
ATOM     21  C   UNL     1       2.425   2.782  21.713  0.00  0.00    +0.000 A 
ATOM     22  C   UNL     1       1.805   2.075  20.686  0.00  0.00    +0.000 A 
ATOM     23  C   UNL     1       1.150   2.767  19.672  0.00  0.00    +0.000 A 
ATOM     24 CL   UNL     1       0.410   1.902  18.384  0.00  0.00    +0.000 Cl
ATOM     25  C   UNL     1       1.106   4.164  19.684  0.00  0.00    +0.000 A 
ENDBRANCH  18  19
ENDBRANCH   4  18
TORSDOF 4
ENDMDL
MODEL 5
REMARK VINA RESULT:      -7.6      1.633      1.918
REMARK  Name = 
REMARK  6 active torsions:
REMARK  status: ('A' for Active; 'I' for Inactive)
REMARK    1  A    between atoms: C_1  and  N_2
REMARK    2  A    between atoms: C_4  and  C_5
REMARK    3  A    between atoms: C_7  and  C_8
REMARK    4  A    between atoms: N_11  and  C_12
REMARK    5  A    between atoms: N_14  and  C_15
REMARK    6  A    between atoms: C_15  and  C_16
REMARK                            x       y       z     vdW  Elec       q    Type
REMARK                         _______ _______ _______ _____ _____    ______ ____
ROOT
ATOM      1  C   UNL     1       2.360   7.700  18.273  0.00  0.00    +0.000 A 
ATOM      2  C   UNL     1       3.685   7.532  17.830  0.00  0.00    +0.000 A 
ATOM      3  C   UNL     1       3.772   6.218  17.423  0.00  0.00    +0.000 A 
ATOM      4  N   UNL     1       2.546   5.662  17.699  0.00  0.00    +0.000 N 
ATOM      5  N   UNL     1       1.669   6.557  18.224  0.00  0.00    +0.000 NA
ENDROOT
BRANCH   1   9
ATOM      6  C   UNL     1       0.113  11.348  20.815  0.00  0.00    +0.000 C 
ATOM      7  N   UNL     1       0.835  10.582  19.827  0.00  0.00    +0.000 N 
ATOM      8  C   UNL     1       1.140   9.255  19.891  0.00  0.00    +0.000 A 
ATOM      9  C   UNL     1       1.808   8.968  18.721  0.00  0.00    +0.000 A 
ATOM     10  C   UNL     1       1.861  10.191  18.026  0.00  0.00    +0.000 A 
ATOM     11  N   UNL     1       1.262  11.182  18.699  0.00  0.00    +0.000 NA
ENDBRANCH   1   9
BRANCH   3  12
ATOM     12  C   UNL     1       4.973   5.611  16.801  0.00  0.00    +0.000 A 
ATOM     13  C   UNL     1       5.961   4.767  17.342  0.00  0.00    +0.000 A 
ATOM     14  N   UNL     1       6.867   4.397  16.431  0.00  0.00    +0.000 NA
ATOM     15  N   UNL     1       6.440   4.987  15.300  0.00  0.00    +0.000 N 
ATOM     16  C   UNL     1       7.136   4.770  14.056  0.00  0.00    +0.000 C 
ATOM     17  C   UNL     1       5.318   5.743  15.475  0.00  0.00    +0.000 A 
ENDBRANCH   3  12
BRANCH   4  18
ATOM     18  C   UNL     1       2.168   4.251  17.694  0.00  0.00    +0.000 C 
BRANCH  18  19
ATOM     19  C   UNL     1       2.239   3.569  19.041  0.00  0.00    +0.000 A 
ATOM     20  C   UNL     1       1.210   3.648  19.993  0.00  0.00    +0.000 A 
ATOM     21  C   UNL     1       1.354   3.065  21.256  0.00  0.00    +0.000 A 
ATOM     22  C   UNL     1       2.535   2.410  21.594  0.00  0.00    +0.000 A 
ATOM     23  C   UNL     1       3.571   2.337  20.668  0.00  0.00    +0.000 A 
ATOM     24 CL   UNL     1       5.044   1.557  21.090  0.00  0.00    +0.000 Cl
ATOM     25  C   UNL     1       3.429   2.911  19.402  0.00  0.00    +0.000 A 
ENDBRANCH  18  19
ENDBRANCH   4  18
TORSDOF 4
ENDMDL
MODEL 6
REMARK VINA RESULT:      -7.5      2.802      4.483
REMARK  Name = 
REMARK  6 active torsions:
REMARK  status: ('A' for Active; 'I' for Inactive)
REMARK    1  A    between atoms: C_1  and  N_2
REMARK    2  A    between atoms: C_4  and  C_5
REMARK    3  A    between atoms: C_7  and  C_8
REMARK    4  A    between atoms: N_11  and  C_12
REMARK    5  A    between atoms: N_14  and  C_15
REMARK    6  A    between atoms: C_15  and  C_16
REMARK                            x       y       z     vdW  Elec       q    Type
REMARK                         _______ _______ _______ _____ _____    ______ ____
ROOT
ATOM      1  C   UNL     1       1.718   8.075  20.164  0.00  0.00    +0.000 A 
ATOM      2  C   UNL     1       2.029   6.733  20.446  0.00  0.00    +0.000 A 
ATOM      3  C   UNL     1       2.773   6.294  19.372  0.00  0.00    +0.000 A 
ATOM      4  N   UNL     1       2.811   7.350  18.492  0.00  0.00    +0.000 N 
ATOM      5  N   UNL     1       2.166   8.449  18.962  0.00  0.00    +0.000 NA
ENDROOT
BRANCH   1   9
ATOM      6  C   UNL     1      -1.327  11.439  22.222  0.00  0.00    +0.000 C 
ATOM      7  N   UNL     1      -0.332  10.418  21.998  0.00  0.00    +0.000 N 
ATOM      8  C   UNL     1      -0.005   9.850  20.802  0.00  0.00    +0.000 A 
ATOM      9  C   UNL     1       1.003   8.953  21.077  0.00  0.00    +0.000 A 
ATOM     10  C   UNL     1       1.203   9.049  22.467  0.00  0.00    +0.000 A 
ATOM     11  N   UNL     1       0.390   9.949  23.035  0.00  0.00    +0.000 NA
ENDBRANCH   1   9
BRANCH   3  12
ATOM     12  C   UNL     1       3.392   4.951  19.273  0.00  0.00    +0.000 A 
ATOM     13  C   UNL     1       4.645   4.483  19.709  0.00  0.00    +0.000 A 
ATOM     14  N   UNL     1       4.813   3.178  19.466  0.00  0.00    +0.000 NA
ATOM     15  N   UNL     1       3.651   2.809  18.896  0.00  0.00    +0.000 N 
ATOM     16  C   UNL     1       3.418   1.432  18.539  0.00  0.00    +0.000 C 
ATOM     17  C   UNL     1       2.774   3.843  18.740  0.00  0.00    +0.000 A 
ENDBRANCH   3  12
BRANCH   4  18
ATOM     18  C   UNL     1       3.255   7.355  17.101  0.00  0.00    +0.000 C 
BRANCH  18  19
ATOM     19  C   UNL     1       4.646   6.807  16.875  0.00  0.00    +0.000 A 
ATOM     20  C   UNL     1       4.905   5.689  16.066  0.00  0.00    +0.000 A 
ATOM     21  C   UNL     1       6.199   5.172  15.950  0.00  0.00    +0.000 A 
ATOM     22  C   UNL     1       7.251   5.752  16.654  0.00  0.00    +0.000 A 
ATOM     23  C   UNL     1       7.008   6.851  17.473  0.00  0.00    +0.000 A 
ATOM     24 CL   UNL     1       8.297   7.551  18.370  0.00  0.00    +0.000 Cl
ATOM     25  C   UNL     1       5.718   7.376  17.586  0.00  0.00    +0.000 A 
ENDBRANCH  18  19
ENDBRANCH   4  18
TORSDOF 4
ENDMDL
MODEL 7
REMARK VINA RESULT:      -7.5      0.831      1.124
REMARK  Name = 
REMARK  6 active torsions:
REMARK  status: ('A' for Active; 'I' for Inactive)
REMARK    1  A    between atoms: C_1  and  N_2
REMARK    2  A    between atoms: C_4  and  C_5
REMARK    3  A    between atoms: C_7  and  C_8
REMARK    4  A    between atoms: N_11  and  C_12
REMARK    5  A    between atoms: N_14  and  C_15
REMARK    6  A    between atoms: C_15  and  C_16
REMARK                            x       y       z     vdW  Elec       q    Type
REMARK                         _______ _______ _______ _____ _____    ______ ____
ROOT
ATOM      1  C   UNL     1       1.782   8.768  18.601  0.00  0.00    +0.000 A 
ATOM      2  C   UNL     1       2.815   8.557  17.671  0.00  0.00    +0.000 A 
ATOM      3  C   UNL     1       3.391   7.357  18.027  0.00  0.00    +0.000 A 
ATOM      4  N   UNL     1       2.733   6.953  19.165  0.00  0.00    +0.000 N 
ATOM      5  N   UNL     1       1.745   7.809  19.532  0.00  0.00    +0.000 NA
ENDROOT
BRANCH   1   9
ATOM      6  C   UNL     1      -2.110  11.774  17.803  0.00  0.00    +0.000 C 
ATOM      7  N   UNL     1      -0.844  11.220  18.218  0.00  0.00    +0.000 N 
ATOM      8  C   UNL     1      -0.403   9.948  18.000  0.00  0.00    +0.000 A 
ATOM      9  C   UNL     1       0.858   9.890  18.550  0.00  0.00    +0.000 A 
ATOM     10  C   UNL     1       1.080  11.175  19.081  0.00  0.00    +0.000 A 
ATOM     11  N   UNL     1       0.041  11.994  18.876  0.00  0.00    +0.000 NA
ENDBRANCH   1   9
BRANCH   3  12
ATOM     12  C   UNL     1       4.478   6.690  17.271  0.00  0.00    +0.000 A 
ATOM     13  C   UNL     1       4.833   6.770  15.911  0.00  0.00    +0.000 A 
ATOM     14  N   UNL     1       5.916   6.039  15.626  0.00  0.00    +0.000 NA
ATOM     15  N   UNL     1       6.267   5.513  16.814  0.00  0.00    +0.000 N 
ATOM     16  C   UNL     1       7.450   4.697  16.931  0.00  0.00    +0.000 C 
ATOM     17  C   UNL     1       5.422   5.858  17.828  0.00  0.00    +0.000 A 
ENDBRANCH   3  12
BRANCH   4  18
ATOM     18  C   UNL     1       3.095   5.883  20.091  0.00  0.00    +0.000 C 
BRANCH  18  19
ATOM     19  C   UNL     1       2.480   4.537  19.779  0.00  0.00    +0.000 A 
ATOM     20  C   UNL     1       1.155   4.209  20.105  0.00  0.00    +0.000 A 
ATOM     21  C   UNL     1       0.655   2.925  19.867  0.00  0.00    +0.000 A 
ATOM     22  C   UNL     1       1.476   1.943  19.319  0.00  0.00    +0.000 A 
ATOM     23  C   UNL     1       2.798   2.248  19.007  0.00  0.00    +0.000 A 
ATOM     24 CL   UNL     1       3.827   1.032  18.360  0.00  0.00    +0.000 Cl
ATOM     25  C   UNL     1       3.300   3.532  19.235  0.00  0.00    +0.000 A 
ENDBRANCH  18  19
ENDBRANCH   4  18
TORSDOF 4
ENDMDL
MODEL 8
REMARK VINA RESULT:      -7.4      3.272      7.256
REMARK  Name = 
REMARK  6 active torsions:
REMARK  status: ('A' for Active; 'I' for Inactive)
REMARK    1  A    between atoms: C_1  and  N_2
REMARK    2  A    between atoms: C_4  and  C_5
REMARK    3  A    between atoms: C_7  and  C_8
REMARK    4  A    between atoms: N_11  and  C_12
REMARK    5  A    between atoms: N_14  and  C_15
REMARK    6  A    between atoms: C_15  and  C_16
REMARK                            x       y       z     vdW  Elec       q    Type
REMARK                         _______ _______ _______ _____ _____    ______ ____
ROOT
ATOM      1  C   UNL     1       4.968   4.924  16.472  0.00  0.00    +0.000 A 
ATOM      2  C   UNL     1       4.171   3.894  17.003  0.00  0.00    +0.000 A 
ATOM      3  C   UNL     1       3.502   4.458  18.067  0.00  0.00    +0.000 A 
ATOM      4  N   UNL     1       3.971   5.747  18.159  0.00  0.00    +0.000 N 
ATOM      5  N   UNL     1       4.873   6.048  17.189  0.00  0.00    +0.000 NA
ENDROOT
BRANCH   1   9
ATOM      6  C   UNL     1       6.820   3.698  12.012  0.00  0.00    +0.000 C 
ATOM      7  N   UNL     1       6.612   4.266  13.323  0.00  0.00    +0.000 N 
ATOM      8  C   UNL     1       5.533   4.066  14.133  0.00  0.00    +0.000 A 
ATOM      9  C   UNL     1       5.789   4.785  15.279  0.00  0.00    +0.000 A 
ATOM     10  C   UNL     1       7.041   5.389  15.056  0.00  0.00    +0.000 A 
ATOM     11  N   UNL     1       7.551   5.070  13.860  0.00  0.00    +0.000 NA
ENDBRANCH   1   9
BRANCH   3  12
ATOM     12  C   UNL     1       2.480   3.758  18.881  0.00  0.00    +0.000 A 
ATOM     13  C   UNL     1       1.292   3.107  18.503  0.00  0.00    +0.000 A 
ATOM     14  N   UNL     1       0.661   2.555  19.545  0.00  0.00    +0.000 NA
ATOM     15  N   UNL     1       1.463   2.836  20.588  0.00  0.00    +0.000 N 
ATOM     16  C   UNL     1       1.146   2.346  21.906  0.00  0.00    +0.000 C 
ATOM     17  C   UNL     1       2.558   3.574  20.244  0.00  0.00    +0.000 A 
ENDBRANCH   3  12
BRANCH   4  18
ATOM     18  C   UNL     1       3.783   6.706  19.244  0.00  0.00    +0.000 C 
BRANCH  18  19
ATOM     19  C   UNL     1       2.641   7.677  19.044  0.00  0.00    +0.000 A 
ATOM     20  C   UNL     1       2.415   8.351  17.834  0.00  0.00    +0.000 A 
ATOM     21  C   UNL     1       1.393   9.299  17.721  0.00  0.00    +0.000 A 
ATOM     22  C   UNL     1       0.595   9.603  18.820  0.00  0.00    +0.000 A 
ATOM     23  C   UNL     1       0.818   8.956  20.032  0.00  0.00    +0.000 A 
ATOM     24 CL   UNL     1      -0.144   9.349  21.402  0.00  0.00    +0.000 Cl
ATOM     25  C   UNL     1       1.832   8.002  20.148  0.00  0.00    +0.000 A 
ENDBRANCH  18  19
ENDBRANCH   4  18
TORSDOF 4
ENDMDL
MODEL 9
REMARK VINA RESULT:      -7.4      1.388      1.664
REMARK  Name = 
REMARK  6 active torsions:
REMARK  status: ('A' for Active; 'I' for Inactive)
REMARK    1  A    between atoms: C_1  and  N_2
REMARK    2  A    between atoms: C_4  and  C_5
REMARK    3  A    between atoms: C_7  and  C_8
REMARK    4  A    between atoms: N_11  and  C_12
REMARK    5  A    between atoms: N_14  and  C_15
REMARK    6  A    between atoms: C_15  and  C_16
REMARK                            x       y       z     vdW  Elec       q    Type
REMARK                         _______ _______ _______ _____ _____    ______ ____
ROOT
ATOM      1  C   UNL     1       2.147   8.528  18.348  0.00  0.00    +0.000 A 
ATOM      2  C   UNL     1       3.228   8.457  17.450  0.00  0.00    +0.000 A 
ATOM      3  C   UNL     1       3.875   7.278  17.748  0.00  0.00    +0.000 A 
ATOM      4  N   UNL     1       3.206   6.749  18.826  0.00  0.00    +0.000 N 
ATOM      5  N   UNL     1       2.145   7.505  19.208  0.00  0.00    +0.000 NA
ENDROOT
BRANCH   1   9
ATOM      6  C   UNL     1      -1.970  11.258  17.699  0.00  0.00    +0.000 C 
ATOM      7  N   UNL     1      -0.655  10.792  18.067  0.00  0.00    +0.000 N 
ATOM      8  C   UNL     1      -0.134   9.555  17.828  0.00  0.00    +0.000 A 
ATOM      9  C   UNL     1       1.146   9.583  18.334  0.00  0.00    +0.000 A 
ATOM     10  C   UNL     1       1.297  10.879  18.863  0.00  0.00    +0.000 A 
ATOM     11  N   UNL     1       0.197  11.625  18.698  0.00  0.00    +0.000 NA
ENDBRANCH   1   9
BRANCH   3  12
ATOM     12  C   UNL     1       5.036   6.745  16.995  0.00  0.00    +0.000 A 
ATOM     13  C   UNL     1       6.411   7.021  17.111  0.00  0.00    +0.000 A 
ATOM     14  N   UNL     1       7.148   6.292  16.267  0.00  0.00    +0.000 NA
ATOM     15  N   UNL     1       6.241   5.531  15.628  0.00  0.00    +0.000 N 
ATOM     16  C   UNL     1       6.663   4.549  14.661  0.00  0.00    +0.000 C 
ATOM     17  C   UNL     1       4.957   5.781  16.015  0.00  0.00    +0.000 A 
ENDBRANCH   3  12
BRANCH   4  18
ATOM     18  C   UNL     1       3.610   5.644  19.691  0.00  0.00    +0.000 C 
BRANCH  18  19
ATOM     19  C   UNL     1       2.687   4.447  19.668  0.00  0.00    +0.000 A 
ATOM     20  C   UNL     1       2.081   3.973  18.494  0.00  0.00    +0.000 A 
ATOM     21  C   UNL     1       1.173   2.910  18.534  0.00  0.00    +0.000 A 
ATOM     22  C   UNL     1       0.841   2.317  19.750  0.00  0.00    +0.000 A 
ATOM     23  C   UNL     1       1.420   2.787  20.925  0.00  0.00    +0.000 A 
ATOM     24 CL   UNL     1       0.992   2.081  22.433  0.00  0.00    +0.000 Cl
ATOM     25  C   UNL     1       2.335   3.844  20.888  0.00  0.00    +0.000 A 
ENDBRANCH  18  19
ENDBRANCH   4  18
TORSDOF 4
ENDMDL
