MODEL 1
REMARK VINA RESULT:      -8.1      0.000      0.000
REMARK  Name = 
REMARK  9 active torsions:
REMARK  status: ('A' for Active; 'I' for Inactive)
REMARK    1  A    between atoms: C_1  and  C_2
REMARK    2  A    between atoms: N_4  and  C_5
REMARK    3  A    between atoms: C_5  and  C_6
REMARK    4  A    between atoms: N_8  and  C_9
REMARK    5  A    between atoms: C_9  and  C_10
REMARK    6  A    between atoms: C_10  and  C_11
REMARK    7  A    between atoms: C_11  and  N_12
REMARK    8  A    between atoms: C_14  and  C_15
REMARK    9  A    between atoms: C_17  and  C_18
REMARK                            x       y       z     vdW  Elec       q    Type
REMARK                         _______ _______ _______ _____ _____    ______ ____
ROOT
ATOM      1  C   UNL     1       6.548   5.998  16.538  0.00  0.00    +0.000 C 
ATOM      2  O   UNL     1       7.471   6.018  15.724  0.00  0.00    +0.000 OA
ATOM      3  N   UNL     1       6.659   6.550  17.800  0.00  0.00    +0.000 N 
ATOM      4  H   UNL     1       5.867   6.507  18.431  0.00  0.00    +0.000 HD
ENDROOT
BRANCH   1   5
ATOM      5  C   UNL     1       5.156   5.506  16.141  0.00  0.00    +0.000 C 
BRANCH   5   9
ATOM      6  C   UNL     1       3.633   1.463  18.358  0.00  0.00    +0.000 C 
ATOM      7  C   UNL     1       3.652   2.949  18.206  0.00  0.00    +0.000 A 
ATOM      8  N   UNL     1       4.407   3.539  17.319  0.00  0.00    +0.000 NA
ATOM      9  N   UNL     1       4.386   4.928  17.242  0.00  0.00    +0.000 N 
ATOM     10  C   UNL     1       3.619   5.756  18.071  0.00  0.00    +0.000 A 
ATOM     11  O   UNL     1       3.666   6.978  18.007  0.00  0.00    +0.000 OA
ATOM     12  C   UNL     1       2.777   5.040  18.998  0.00  0.00    +0.000 A 
ATOM     13  C   UNL     1       1.850   5.485  19.921  0.00  0.00    +0.000 A 
ATOM     14  C   UNL     1       1.316   4.345  20.566  0.00  0.00    +0.000 A 
ATOM     15  C   UNL     1       1.932   3.240  20.017  0.00  0.00    +0.000 A 
ATOM     16  N   UNL     1       2.820   3.670  19.052  0.00  0.00    +0.000 N 
ENDBRANCH   5   9
ENDBRANCH   1   5
BRANCH   3  17
ATOM     17  C   UNL     1       7.915   7.119  18.270  0.00  0.00    +0.000 C 
BRANCH  17  18
ATOM     18  C   UNL     1       8.067   8.612  17.940  0.00  0.00    +0.000 C 
BRANCH  18  19
ATOM     19  C   UNL     1       9.017   9.341  18.930  0.00  0.00    +0.000 C 
BRANCH  19  20
ATOM     20  N   UNL     1       9.103  10.774  18.646  0.00  0.00    +0.000 NA
ATOM     21  C   UNL     1       8.821  11.626  19.796  0.00  0.00    +0.000 C 
ATOM     22  C   UNL     1      10.073  11.965  20.601  0.00  0.00    +0.000 C 
ATOM     23  C   UNL     1       9.669  12.689  21.880  0.00  0.00    +0.000 C 
ATOM     24  C   UNL     1      10.980  12.799  19.705  0.00  0.00    +0.000 C 
ATOM     25  C   UNL     1      11.401  11.953  18.494  0.00  0.00    +0.000 C 
ATOM     26  C   UNL     1      12.167  12.848  17.510  0.00  0.00    +0.000 C 
ATOM     27  C   UNL     1      10.200  11.257  17.801  0.00  0.00    +0.000 C 
ENDBRANCH  19  20
ENDBRANCH  18  19
ENDBRANCH  17  18
ENDBRANCH   3  17
TORSDOF 6
ENDMDL
MODEL 2
REMARK VINA RESULT:      -7.9      4.500      7.754
REMARK  Name = 
REMARK  9 active torsions:
REMARK  status: ('A' for Active; 'I' for Inactive)
REMARK    1  A    between atoms: C_1  and  C_2
REMARK    2  A    between atoms: N_4  and  C_5
REMARK    3  A    between atoms: C_5  and  C_6
REMARK    4  A    between atoms: N_8  and  C_9
REMARK    5  A    between atoms: C_9  and  C_10
REMARK    6  A    between atoms: C_10  and  C_11
REMARK    7  A    between atoms: C_11  and  N_12
REMARK    8  A    between atoms: C_14  and  C_15
REMARK    9  A    between atoms: C_17  and  C_18
REMARK                            x       y       z     vdW  Elec       q    Type
REMARK                         _______ _______ _______ _____ _____    ______ ____
ROOT
ATOM      1  C   UNL     1       2.327   4.774  19.828  0.00  0.00    +0.000 C 
ATOM      2  O   UNL     1       1.215   4.564  19.342  0.00  0.00    +0.000 OA
ATOM      3  N   UNL     1       2.610   5.903  20.572  0.00  0.00    +0.000 N 
ATOM      4  H   UNL     1       3.543   6.027  20.950  0.00  0.00    +0.000 HD
ENDROOT
BRANCH   1   5
ATOM      5  C   UNL     1       3.424   3.711  19.777  0.00  0.00    +0.000 C 
BRANCH   5   9
ATOM      6  C   UNL     1       7.815   5.606  18.932  0.00  0.00    +0.000 C 
ATOM      7  C   UNL     1       6.553   4.958  18.464  0.00  0.00    +0.000 A 
ATOM      8  N   UNL     1       5.620   4.588  19.300  0.00  0.00    +0.000 NA
ATOM      9  N   UNL     1       4.475   3.978  18.797  0.00  0.00    +0.000 N 
ATOM     10  C   UNL     1       4.254   3.706  17.441  0.00  0.00    +0.000 A 
ATOM     11  O   UNL     1       3.255   3.120  17.040  0.00  0.00    +0.000 OA
ATOM     12  C   UNL     1       5.301   4.178  16.568  0.00  0.00    +0.000 A 
ATOM     13  C   UNL     1       5.424   4.157  15.192  0.00  0.00    +0.000 A 
ATOM     14  C   UNL     1       6.663   4.755  14.870  0.00  0.00    +0.000 A 
ATOM     15  C   UNL     1       7.261   5.124  16.057  0.00  0.00    +0.000 A 
ATOM     16  N   UNL     1       6.419   4.776  17.094  0.00  0.00    +0.000 N 
ENDBRANCH   5   9
ENDBRANCH   1   5
BRANCH   3  17
ATOM     17  C   UNL     1       1.622   6.957  20.756  0.00  0.00    +0.000 C 
BRANCH  17  18
ATOM     18  C   UNL     1       1.788   8.125  19.771  0.00  0.00    +0.000 C 
BRANCH  18  19
ATOM     19  C   UNL     1       0.941   9.364  20.176  0.00  0.00    +0.000 C 
BRANCH  19  20
ATOM     20  N   UNL     1       0.870  10.350  19.098  0.00  0.00    +0.000 NA
ATOM     21  C   UNL     1       0.000   9.962  17.993  0.00  0.00    +0.000 C 
ATOM     22  C   UNL     1      -1.440  10.433  18.180  0.00  0.00    +0.000 C 
ATOM     23  C   UNL     1      -2.314   9.826  17.090  0.00  0.00    +0.000 C 
ATOM     24  C   UNL     1      -1.428  11.956  18.157  0.00  0.00    +0.000 C 
ATOM     25  C   UNL     1      -0.596  12.468  19.341  0.00  0.00    +0.000 C 
ATOM     26  C   UNL     1      -0.442  13.990  19.214  0.00  0.00    +0.000 C 
ATOM     27  C   UNL     1       0.786  11.772  19.452  0.00  0.00    +0.000 C 
ENDBRANCH  19  20
ENDBRANCH  18  19
ENDBRANCH  17  18
ENDBRANCH   3  17
TORSDOF 6
ENDMDL
MODEL 3
REMARK VINA RESULT:      -7.9      0.643      1.788
REMARK  Name = 
REMARK  9 active torsions:
REMARK  status: ('A' for Active; 'I' for Inactive)
REMARK    1  A    between atoms: C_1  and  C_2
REMARK    2  A    between atoms: N_4  and  C_5
REMARK    3  A    between atoms: C_5  and  C_6
REMARK    4  A    between atoms: N_8  and  C_9
REMARK    5  A    between atoms: C_9  and  C_10
REMARK    6  A    between atoms: C_10  and  C_11
REMARK    7  A    between atoms: C_11  and  N_12
REMARK    8  A    between atoms: C_14  and  C_15
REMARK    9  A    between atoms: C_17  and  C_18
REMARK                            x       y       z     vdW  Elec       q    Type
REMARK                         _______ _______ _______ _____ _____    ______ ____
ROOT
ATOM      1  C   UNL     1       6.379   6.075  16.683  0.00  0.00    +0.000 C 
ATOM      2  O   UNL     1       7.307   5.705  15.964  0.00  0.00    +0.000 OA
ATOM      3  N   UNL     1       6.564   6.932  17.752  0.00  0.00    +0.000 N 
ATOM      4  H   UNL     1       5.764   7.206  18.311  0.00  0.00    +0.000 HD
ENDROOT
BRANCH   1   5
ATOM      5  C   UNL     1       4.929   5.740  16.336  0.00  0.00    +0.000 C 
BRANCH   5   9
ATOM      6  C   UNL     1       3.666   1.425  18.173  0.00  0.00    +0.000 C 
ATOM      7  C   UNL     1       3.601   2.918  18.164  0.00  0.00    +0.000 A 
ATOM      8  N   UNL     1       4.308   3.631  17.329  0.00  0.00    +0.000 NA
ATOM      9  N   UNL     1       4.210   5.017  17.384  0.00  0.00    +0.000 N 
ATOM     10  C   UNL     1       3.414   5.719  18.298  0.00  0.00    +0.000 A 
ATOM     11  O   UNL     1       3.392   6.943  18.351  0.00  0.00    +0.000 OA
ATOM     12  C   UNL     1       2.627   4.873  19.162  0.00  0.00    +0.000 A 
ATOM     13  C   UNL     1       1.693   5.175  20.134  0.00  0.00    +0.000 A 
ATOM     14  C   UNL     1       1.233   3.952  20.673  0.00  0.00    +0.000 A 
ATOM     15  C   UNL     1       1.899   2.939  20.014  0.00  0.00    +0.000 A 
ATOM     16  N   UNL     1       2.746   3.508  19.084  0.00  0.00    +0.000 N 
ENDBRANCH   5   9
ENDBRANCH   1   5
BRANCH   3  17
ATOM     17  C   UNL     1       7.893   7.384  18.139  0.00  0.00    +0.000 C 
BRANCH  17  18
ATOM     18  C   UNL     1       8.350   8.644  17.387  0.00  0.00    +0.000 C 
BRANCH  18  19
ATOM     19  C   UNL     1       8.115   9.940  18.212  0.00  0.00    +0.000 C 
BRANCH  19  20
ATOM     20  N   UNL     1       9.335  10.384  18.886  0.00  0.00    +0.000 NA
ATOM     21  C   UNL     1      10.257  11.119  18.026  0.00  0.00    +0.000 C 
ATOM     22  C   UNL     1      10.002  12.624  18.037  0.00  0.00    +0.000 C 
ATOM     23  C   UNL     1      10.870  13.289  16.975  0.00  0.00    +0.000 C 
ATOM     24  C   UNL     1      10.293  13.125  19.446  0.00  0.00    +0.000 C 
ATOM     25  C   UNL     1       9.312  12.464  20.424  0.00  0.00    +0.000 C 
ATOM     26  C   UNL     1       9.719  12.835  21.857  0.00  0.00    +0.000 C 
ATOM     27  C   UNL     1       9.229  10.925  20.246  0.00  0.00    +0.000 C 
ENDBRANCH  19  20
ENDBRANCH  18  19
ENDBRANCH  17  18
ENDBRANCH   3  17
TORSDOF 6
ENDMDL
MODEL 4
REMARK VINA RESULT:      -7.8      4.516      7.678
REMARK  Name = 
REMARK  9 active torsions:
REMARK  status: ('A' for Active; 'I' for Inactive)
REMARK    1  A    between atoms: C_1  and  C_2
REMARK    2  A    between atoms: N_4  and  C_5
REMARK    3  A    between atoms: C_5  and  C_6
REMARK    4  A    between atoms: N_8  and  C_9
REMARK    5  A    between atoms: C_9  and  C_10
REMARK    6  A    between atoms: C_10  and  C_11
REMARK    7  A    between atoms: C_11  and  N_12
REMARK    8  A    between atoms: C_14  and  C_15
REMARK    9  A    between atoms: C_17  and  C_18
REMARK                            x       y       z     vdW  Elec       q    Type
REMARK                         _______ _______ _______ _____ _____    ______ ____
ROOT
ATOM      1  C   UNL     1       2.900   3.097  20.732  0.00  0.00    +0.000 C 
ATOM      2  O   UNL     1       2.619   2.931  21.919  0.00  0.00    +0.000 OA
ATOM      3  N   UNL     1       2.249   4.021  19.937  0.00  0.00    +0.000 N 
ATOM      4  H   UNL     1       2.521   4.117  18.965  0.00  0.00    +0.000 HD
ENDROOT
BRANCH   1   5
ATOM      5  C   UNL     1       4.107   2.402  20.102  0.00  0.00    +0.000 C 
BRANCH   5   9
ATOM      6  C   UNL     1       7.390   5.836  19.098  0.00  0.00    +0.000 C 
ATOM      7  C   UNL     1       6.324   4.877  18.679  0.00  0.00    +0.000 A 
ATOM      8  N   UNL     1       5.759   4.064  19.531  0.00  0.00    +0.000 NA
ATOM      9  N   UNL     1       4.783   3.187  19.070  0.00  0.00    +0.000 N 
ATOM     10  C   UNL     1       4.368   3.095  17.735  0.00  0.00    +0.000 A 
ATOM     11  O   UNL     1       3.540   2.274  17.357  0.00  0.00    +0.000 OA
ATOM     12  C   UNL     1       4.999   4.049  16.856  0.00  0.00    +0.000 A 
ATOM     13  C   UNL     1       4.819   4.311  15.512  0.00  0.00    +0.000 A 
ATOM     14  C   UNL     1       5.708   5.354  15.163  0.00  0.00    +0.000 A 
ATOM     15  C   UNL     1       6.403   5.697  16.304  0.00  0.00    +0.000 A 
ATOM     16  N   UNL     1       5.960   4.900  17.340  0.00  0.00    +0.000 N 
ENDBRANCH   5   9
ENDBRANCH   1   5
BRANCH   3  17
ATOM     17  C   UNL     1       1.129   4.801  20.445  0.00  0.00    +0.000 C 
BRANCH  17  18
ATOM     18  C   UNL     1       1.546   6.167  21.010  0.00  0.00    +0.000 C 
BRANCH  18  19
ATOM     19  C   UNL     1       1.886   7.191  19.891  0.00  0.00    +0.000 C 
BRANCH  19  20
ATOM     20  N   UNL     1       1.765   8.570  20.361  0.00  0.00    +0.000 NA
ATOM     21  C   UNL     1       1.241   9.496  19.362  0.00  0.00    +0.000 C 
ATOM     22  C   UNL     1      -0.281   9.612  19.405  0.00  0.00    +0.000 C 
ATOM     23  C   UNL     1      -0.756  10.437  18.215  0.00  0.00    +0.000 C 
ATOM     24  C   UNL     1      -0.653  10.228  20.747  0.00  0.00    +0.000 C 
ATOM     25  C   UNL     1      -0.212   9.282  21.872  0.00  0.00    +0.000 C 
ATOM     26  C   UNL     1      -0.430   9.983  23.220  0.00  0.00    +0.000 C 
ATOM     27  C   UNL     1       1.258   8.808  21.717  0.00  0.00    +0.000 C 
ENDBRANCH  19  20
ENDBRANCH  18  19
ENDBRANCH  17  18
ENDBRANCH   3  17
TORSDOF 6
ENDMDL
MODEL 5
REMARK VINA RESULT:      -7.7      4.477      7.660
REMARK  Name = 
REMARK  9 active torsions:
REMARK  status: ('A' for Active; 'I' for Inactive)
REMARK    1  A    between atoms: C_1  and  C_2
REMARK    2  A    between atoms: N_4  and  C_5
REMARK    3  A    between atoms: C_5  and  C_6
REMARK    4  A    between atoms: N_8  and  C_9
REMARK    5  A    between atoms: C_9  and  C_10
REMARK    6  A    between atoms: C_10  and  C_11
REMARK    7  A    between atoms: C_11  and  N_12
REMARK    8  A    between atoms: C_14  and  C_15
REMARK    9  A    between atoms: C_17  and  C_18
REMARK                            x       y       z     vdW  Elec       q    Type
REMARK                         _______ _______ _______ _____ _____    ______ ____
ROOT
ATOM      1  C   UNL     1       2.419   4.951  20.082  0.00  0.00    +0.000 C 
ATOM      2  O   UNL     1       1.306   4.765  20.574  0.00  0.00    +0.000 OA
ATOM      3  N   UNL     1       2.924   6.216  19.847  0.00  0.00    +0.000 N 
ATOM      4  H   UNL     1       3.848   6.313  19.439  0.00  0.00    +0.000 HD
ENDROOT
BRANCH   1   5
ATOM      5  C   UNL     1       3.385   3.790  19.851  0.00  0.00    +0.000 C 
BRANCH   5   9
ATOM      6  C   UNL     1       7.762   5.684  18.936  0.00  0.00    +0.000 C 
ATOM      7  C   UNL     1       6.492   5.037  18.488  0.00  0.00    +0.000 A 
ATOM      8  N   UNL     1       5.573   4.666  19.339  0.00  0.00    +0.000 NA
ATOM      9  N   UNL     1       4.421   4.057  18.854  0.00  0.00    +0.000 N 
ATOM     10  C   UNL     1       4.177   3.786  17.501  0.00  0.00    +0.000 A 
ATOM     11  O   UNL     1       3.172   3.201  17.117  0.00  0.00    +0.000 OA
ATOM     12  C   UNL     1       5.210   4.259  16.612  0.00  0.00    +0.000 A 
ATOM     13  C   UNL     1       5.310   4.238  15.234  0.00  0.00    +0.000 A 
ATOM     14  C   UNL     1       6.545   4.837  14.892  0.00  0.00    +0.000 A 
ATOM     15  C   UNL     1       7.161   5.205  16.070  0.00  0.00    +0.000 A 
ATOM     16  N   UNL     1       6.336   4.856  17.121  0.00  0.00    +0.000 N 
ENDBRANCH   5   9
ENDBRANCH   1   5
BRANCH   3  17
ATOM     17  C   UNL     1       2.127   7.408  20.097  0.00  0.00    +0.000 C 
BRANCH  17  18
ATOM     18  C   UNL     1       1.773   8.182  18.817  0.00  0.00    +0.000 C 
BRANCH  18  19
ATOM     19  C   UNL     1       1.463   9.679  19.099  0.00  0.00    +0.000 C 
BRANCH  19  20
ATOM     20  N   UNL     1       0.069   9.880  19.495  0.00  0.00    +0.000 NA
ATOM     21  C   UNL     1      -0.257   9.349  20.814  0.00  0.00    +0.000 C 
ATOM     22  C   UNL     1      -0.054  10.371  21.930  0.00  0.00    +0.000 C 
ATOM     23  C   UNL     1      -0.226   9.684  23.279  0.00  0.00    +0.000 C 
ATOM     24  C   UNL     1      -1.051  11.499  21.702  0.00  0.00    +0.000 C 
ATOM     25  C   UNL     1      -0.738  12.180  20.362  0.00  0.00    +0.000 C 
ATOM     26  C   UNL     1      -1.846  13.197  20.055  0.00  0.00    +0.000 C 
ATOM     27  C   UNL     1      -0.566  11.169  19.198  0.00  0.00    +0.000 C 
ENDBRANCH  19  20
ENDBRANCH  18  19
ENDBRANCH  17  18
ENDBRANCH   3  17
TORSDOF 6
ENDMDL
MODEL 6
REMARK VINA RESULT:      -7.7      4.571      8.005
REMARK  Name = 
REMARK  9 active torsions:
REMARK  status: ('A' for Active; 'I' for Inactive)
REMARK    1  A    between atoms: C_1  and  C_2
REMARK    2  A    between atoms: N_4  and  C_5
REMARK    3  A    between atoms: C_5  and  C_6
REMARK    4  A    between atoms: N_8  and  C_9
REMARK    5  A    between atoms: C_9  and  C_10
REMARK    6  A    between atoms: C_10  and  C_11
REMARK    7  A    between atoms: C_11  and  N_12
REMARK    8  A    between atoms: C_14  and  C_15
REMARK    9  A    between atoms: C_17  and  C_18
REMARK                            x       y       z     vdW  Elec       q    Type
REMARK                         _______ _______ _______ _____ _____    ______ ____
ROOT
ATOM      1  C   UNL     1       2.336   5.179  20.123  0.00  0.00    +0.000 C 
ATOM      2  O   UNL     1       1.147   4.889  20.253  0.00  0.00    +0.000 OA
ATOM      3  N   UNL     1       2.779   6.487  20.065  0.00  0.00    +0.000 N 
ATOM      4  H   UNL     1       3.771   6.670  19.958  0.00  0.00    +0.000 HD
ENDROOT
BRANCH   1   5
ATOM      5  C   UNL     1       3.422   4.105  20.185  0.00  0.00    +0.000 C 
BRANCH   5   9
ATOM      6  C   UNL     1       7.774   5.945  19.065  0.00  0.00    +0.000 C 
ATOM      7  C   UNL     1       6.525   5.212  18.698  0.00  0.00    +0.000 A 
ATOM      8  N   UNL     1       5.600   4.948  19.581  0.00  0.00    +0.000 NA
ATOM      9  N   UNL     1       4.468   4.249  19.174  0.00  0.00    +0.000 N 
ATOM     10  C   UNL     1       4.253   3.779  17.872  0.00  0.00    +0.000 A 
ATOM     11  O   UNL     1       3.266   3.122  17.562  0.00  0.00    +0.000 OA
ATOM     12  C   UNL     1       5.292   4.142  16.938  0.00  0.00    +0.000 A 
ATOM     13  C   UNL     1       5.415   3.924  15.579  0.00  0.00    +0.000 A 
ATOM     14  C   UNL     1       6.643   4.495  15.171  0.00  0.00    +0.000 A 
ATOM     15  C   UNL     1       7.232   5.043  16.291  0.00  0.00    +0.000 A 
ATOM     16  N   UNL     1       6.396   4.831  17.370  0.00  0.00    +0.000 N 
ENDBRANCH   5   9
ENDBRANCH   1   5
BRANCH   3  17
ATOM     17  C   UNL     1       1.845   7.604  20.073  0.00  0.00    +0.000 C 
BRANCH  17  18
ATOM     18  C   UNL     1       1.594   8.177  21.477  0.00  0.00    +0.000 C 
BRANCH  18  19
ATOM     19  C   UNL     1       0.196   8.843  21.602  0.00  0.00    +0.000 C 
BRANCH  19  20
ATOM     20  N   UNL     1       0.292  10.225  22.072  0.00  0.00    +0.000 NA
ATOM     21  C   UNL     1       0.747  11.168  21.057  0.00  0.00    +0.000 C 
ATOM     22  C   UNL     1      -0.403  11.782  20.262  0.00  0.00    +0.000 C 
ATOM     23  C   UNL     1       0.164  12.597  19.106  0.00  0.00    +0.000 C 
ATOM     24  C   UNL     1      -1.233  12.615  21.230  0.00  0.00    +0.000 C 
ATOM     25  C   UNL     1      -1.828  11.691  22.301  0.00  0.00    +0.000 C 
ATOM     26  C   UNL     1      -2.516  12.553  23.370  0.00  0.00    +0.000 C 
ATOM     27  C   UNL     1      -0.772  10.748  22.936  0.00  0.00    +0.000 C 
ENDBRANCH  19  20
ENDBRANCH  18  19
ENDBRANCH  17  18
ENDBRANCH   3  17
TORSDOF 6
ENDMDL
MODEL 7
REMARK VINA RESULT:      -7.7      4.493      7.324
REMARK  Name = 
REMARK  9 active torsions:
REMARK  status: ('A' for Active; 'I' for Inactive)
REMARK    1  A    between atoms: C_1  and  C_2
REMARK    2  A    between atoms: N_4  and  C_5
REMARK    3  A    between atoms: C_5  and  C_6
REMARK    4  A    between atoms: N_8  and  C_9
REMARK    5  A    between atoms: C_9  and  C_10
REMARK    6  A    between atoms: C_10  and  C_11
REMARK    7  A    between atoms: C_11  and  N_12
REMARK    8  A    between atoms: C_14  and  C_15
REMARK    9  A    between atoms: C_17  and  C_18
REMARK                            x       y       z     vdW  Elec       q    Type
REMARK                         _______ _______ _______ _____ _____    ______ ____
ROOT
ATOM      1  C   UNL     1       2.322   4.600  20.077  0.00  0.00    +0.000 C 
ATOM      2  O   UNL     1       1.138   4.264  20.041  0.00  0.00    +0.000 OA
ATOM      3  N   UNL     1       2.719   5.886  20.389  0.00  0.00    +0.000 N 
ATOM      4  H   UNL     1       3.709   6.109  20.405  0.00  0.00    +0.000 HD
ENDROOT
BRANCH   1   5
ATOM      5  C   UNL     1       3.440   3.567  19.940  0.00  0.00    +0.000 C 
BRANCH   5   9
ATOM      6  C   UNL     1       7.689   5.708  18.965  0.00  0.00    +0.000 C 
ATOM      7  C   UNL     1       6.450   4.992  18.534  0.00  0.00    +0.000 A 
ATOM      8  N   UNL     1       5.567   4.567  19.398  0.00  0.00    +0.000 NA
ATOM      9  N   UNL     1       4.443   3.896  18.928  0.00  0.00    +0.000 N 
ATOM     10  C   UNL     1       4.193   3.617  17.578  0.00  0.00    +0.000 A 
ATOM     11  O   UNL     1       3.216   2.978  17.206  0.00  0.00    +0.000 OA
ATOM     12  C   UNL     1       5.184   4.151  16.675  0.00  0.00    +0.000 A 
ATOM     13  C   UNL     1       5.262   4.142  15.296  0.00  0.00    +0.000 A 
ATOM     14  C   UNL     1       6.456   4.810  14.937  0.00  0.00    +0.000 A 
ATOM     15  C   UNL     1       7.070   5.207  16.107  0.00  0.00    +0.000 A 
ATOM     16  N   UNL     1       6.283   4.808  17.168  0.00  0.00    +0.000 N 
ENDBRANCH   5   9
ENDBRANCH   1   5
BRANCH   3  17
ATOM     17  C   UNL     1       1.747   6.946  20.615  0.00  0.00    +0.000 C 
BRANCH  17  18
ATOM     18  C   UNL     1       1.922   8.144  19.669  0.00  0.00    +0.000 C 
BRANCH  18  19
ATOM     19  C   UNL     1       0.921   9.292  19.980  0.00  0.00    +0.000 C 
BRANCH  19  20
ATOM     20  N   UNL     1       0.713  10.160  18.821  0.00  0.00    +0.000 NA
ATOM     21  C   UNL     1      -0.682  10.520  18.591  0.00  0.00    +0.000 C 
ATOM     22  C   UNL     1      -1.088  11.804  19.310  0.00  0.00    +0.000 C 
ATOM     23  C   UNL     1      -2.593  12.001  19.179  0.00  0.00    +0.000 C 
ATOM     24  C   UNL     1      -0.281  12.943  18.700  0.00  0.00    +0.000 C 
ATOM     25  C   UNL     1       1.211  12.695  18.962  0.00  0.00    +0.000 C 
ATOM     26  C   UNL     1       2.028  13.747  18.199  0.00  0.00    +0.000 C 
ATOM     27  C   UNL     1       1.658  11.257  18.586  0.00  0.00    +0.000 C 
ENDBRANCH  19  20
ENDBRANCH  18  19
ENDBRANCH  17  18
ENDBRANCH   3  17
TORSDOF 6
ENDMDL
MODEL 8
REMARK VINA RESULT:      -7.7      5.344      8.295
REMARK  Name = 
REMARK  9 active torsions:
REMARK  status: ('A' for Active; 'I' for Inactive)
REMARK    1  A    between atoms: C_1  and  C_2
REMARK    2  A    between atoms: N_4  and  C_5
REMARK    3  A    between atoms: C_5  and  C_6
REMARK    4  A    between atoms: N_8  and  C_9
REMARK    5  A    between atoms: C_9  and  C_10
REMARK    6  A    between atoms: C_10  and  C_11
REMARK    7  A    between atoms: C_11  and  N_12
REMARK    8  A    between atoms: C_14  and  C_15
REMARK    9  A    between atoms: C_17  and  C_18
REMARK                            x       y       z     vdW  Elec       q    Type
REMARK                         _______ _______ _______ _____ _____    ______ ____
ROOT
ATOM      1  C   UNL     1       1.335   9.652  17.975  0.00  0.00    +0.000 C 
ATOM      2  O   UNL     1       2.246  10.479  17.915  0.00  0.00    +0.000 OA
ATOM      3  N   UNL     1       1.571   8.293  18.048  0.00  0.00    +0.000 N 
ATOM      4  H   UNL     1       0.783   7.655  18.097  0.00  0.00    +0.000 HD
ENDROOT
BRANCH   1   5
ATOM      5  C   UNL     1      -0.119  10.091  18.143  0.00  0.00    +0.000 C 
BRANCH   5   9
ATOM      6  C   UNL     1       0.102   9.390  22.943  0.00  0.00    +0.000 C 
ATOM      7  C   UNL     1      -0.349  10.167  21.750  0.00  0.00    +0.000 A 
ATOM      8  N   UNL     1       0.001   9.829  20.538  0.00  0.00    +0.000 NA
ATOM      9  N   UNL     1      -0.444  10.605  19.473  0.00  0.00    +0.000 N 
ATOM     10  C   UNL     1      -1.235  11.754  19.606  0.00  0.00    +0.000 A 
ATOM     11  O   UNL     1      -1.565  12.441  18.647  0.00  0.00    +0.000 OA
ATOM     12  C   UNL     1      -1.622  12.046  20.964  0.00  0.00    +0.000 A 
ATOM     13  C   UNL     1      -2.431  13.035  21.491  0.00  0.00    +0.000 A 
ATOM     14  C   UNL     1      -2.461  12.851  22.893  0.00  0.00    +0.000 A 
ATOM     15  C   UNL     1      -1.672  11.757  23.180  0.00  0.00    +0.000 A 
ATOM     16  N   UNL     1      -1.166  11.262  21.994  0.00  0.00    +0.000 N 
ENDBRANCH   5   9
ENDBRANCH   1   5
BRANCH   3  17
ATOM     17  C   UNL     1       2.921   7.753  17.974  0.00  0.00    +0.000 C 
BRANCH  17  18
ATOM     18  C   UNL     1       3.096   6.443  18.759  0.00  0.00    +0.000 C 
BRANCH  18  19
ATOM     19  C   UNL     1       3.174   5.202  17.826  0.00  0.00    +0.000 C 
BRANCH  19  20
ATOM     20  N   UNL     1       4.415   4.452  18.022  0.00  0.00    +0.000 NA
ATOM     21  C   UNL     1       4.914   3.802  16.815  0.00  0.00    +0.000 C 
ATOM     22  C   UNL     1       5.868   4.688  16.017  0.00  0.00    +0.000 C 
ATOM     23  C   UNL     1       6.185   4.016  14.687  0.00  0.00    +0.000 C 
ATOM     24  C   UNL     1       7.102   4.919  16.879  0.00  0.00    +0.000 C 
ATOM     25  C   UNL     1       6.691   5.677  18.149  0.00  0.00    +0.000 C 
ATOM     26  C   UNL     1       7.900   5.754  19.092  0.00  0.00    +0.000 C 
ATOM     27  C   UNL     1       5.466   5.041  18.859  0.00  0.00    +0.000 C 
ENDBRANCH  19  20
ENDBRANCH  18  19
ENDBRANCH  17  18
ENDBRANCH   3  17
TORSDOF 6
ENDMDL
MODEL 9
REMARK VINA RESULT:      -7.6      1.667      2.747
REMARK  Name = 
REMARK  9 active torsions:
REMARK  status: ('A' for Active; 'I' for Inactive)
REMARK    1  A    between atoms: C_1  and  C_2
REMARK    2  A    between atoms: N_4  and  C_5
REMARK    3  A    between atoms: C_5  and  C_6
REMARK    4  A    between atoms: N_8  and  C_9
REMARK    5  A    between atoms: C_9  and  C_10
REMARK    6  A    between atoms: C_10  and  C_11
REMARK    7  A    between atoms: C_11  and  N_12
REMARK    8  A    between atoms: C_14  and  C_15
REMARK    9  A    between atoms: C_17  and  C_18
REMARK                            x       y       z     vdW  Elec       q    Type
REMARK                         _______ _______ _______ _____ _____    ______ ____
ROOT
ATOM      1  C   UNL     1       6.613   6.444  16.591  0.00  0.00    +0.000 C 
ATOM      2  O   UNL     1       7.571   5.914  16.029  0.00  0.00    +0.000 OA
ATOM      3  N   UNL     1       6.765   7.426  17.550  0.00  0.00    +0.000 N 
ATOM      4  H   UNL     1       5.940   7.830  17.981  0.00  0.00    +0.000 HD
ENDROOT
BRANCH   1   5
ATOM      5  C   UNL     1       5.179   6.163  16.140  0.00  0.00    +0.000 C 
BRANCH   5   9
ATOM      6  C   UNL     1       1.970   8.372  19.039  0.00  0.00    +0.000 C 
ATOM      7  C   UNL     1       2.748   7.168  18.619  0.00  0.00    +0.000 A 
ATOM      8  N   UNL     1       3.536   7.188  17.578  0.00  0.00    +0.000 NA
ATOM      9  N   UNL     1       4.220   6.026  17.235  0.00  0.00    +0.000 N 
ATOM     10  C   UNL     1       4.107   4.809  17.920  0.00  0.00    +0.000 A 
ATOM     11  O   UNL     1       4.687   3.793  17.557  0.00  0.00    +0.000 OA
ATOM     12  C   UNL     1       3.256   4.867  19.083  0.00  0.00    +0.000 A 
ATOM     13  C   UNL     1       2.943   3.915  20.035  0.00  0.00    +0.000 A 
ATOM     14  C   UNL     1       2.052   4.515  20.954  0.00  0.00    +0.000 A 
ATOM     15  C   UNL     1       1.848   5.814  20.538  0.00  0.00    +0.000 A 
ATOM     16  N   UNL     1       2.594   6.027  19.395  0.00  0.00    +0.000 N 
ENDBRANCH   5   9
ENDBRANCH   1   5
BRANCH   3  17
ATOM     17  C   UNL     1       8.084   7.836  18.012  0.00  0.00    +0.000 C 
BRANCH  17  18
ATOM     18  C   UNL     1       8.284   9.360  18.006  0.00  0.00    +0.000 C 
BRANCH  18  19
ATOM     19  C   UNL     1       9.110   9.852  19.227  0.00  0.00    +0.000 C 
BRANCH  19  20
ATOM     20  N   UNL     1       9.837  11.086  18.929  0.00  0.00    +0.000 NA
ATOM     21  C   UNL     1       9.231  11.895  17.878  0.00  0.00    +0.000 C 
ATOM     22  C   UNL     1       8.227  12.911  18.418  0.00  0.00    +0.000 C 
ATOM     23  C   UNL     1       7.504  13.573  17.252  0.00  0.00    +0.000 C 
ATOM     24  C   UNL     1       9.000  13.900  19.281  0.00  0.00    +0.000 C 
ATOM     25  C   UNL     1       9.615  13.152  20.471  0.00  0.00    +0.000 C 
ATOM     26  C   UNL     1      10.534  14.114  21.238  0.00  0.00    +0.000 C 
ATOM     27  C   UNL     1      10.378  11.869  20.047  0.00  0.00    +0.000 C 
ENDBRANCH  19  20
ENDBRANCH  18  19
ENDBRANCH  17  18
ENDBRANCH   3  17
TORSDOF 6
ENDMDL
