MODEL 1
REMARK VINA RESULT:      -8.4      0.000      0.000
REMARK  Name = 
REMARK  4 active torsions:
REMARK  status: ('A' for Active; 'I' for Inactive)
REMARK    1  A    between atoms: C_1  and  C_2
REMARK    2  A    between atoms: N_11  and  N_12
REMARK    3  A    between atoms: C_13  and  C_15
REMARK    4  A    between atoms: C_16  and  C_17
REMARK                            x       y       z     vdW  Elec       q    Type
REMARK                         _______ _______ _______ _____ _____    ______ ____
ROOT
ATOM      1  N   UNL     1       7.413   6.084  17.921  0.00  0.00    +0.000 N 
ATOM      2  C   UNL     1       7.360   7.435  17.646  0.00  0.00    +0.000 C 
ATOM      3  O   UNL     1       6.470   7.984  17.009  0.00  0.00    +0.000 OA
ATOM      4  H   UNL     1       7.945   5.807  18.747  0.00  0.00    +0.000 HD
ENDROOT
BRANCH   1  15
ATOM      5  C   UNL     1       6.856   4.811  15.304  0.00  0.00    +0.000 C 
ATOM      6  C   UNL     1       6.020   4.547  16.531  0.00  0.00    +0.000 A 
ATOM      7  N   UNL     1       5.090   3.646  16.392  0.00  0.00    +0.000 NA
ATOM      8  C   UNL     1       4.368   3.368  17.497  0.00  0.00    +0.000 A 
ATOM      9  S   UNL     1       3.163   2.159  17.485  0.00  0.00    +0.000 S 
ATOM     10  C   UNL     1       2.830   2.388  19.148  0.00  0.00    +0.000 A 
ATOM     11  C   UNL     1       3.618   3.376  19.700  0.00  0.00    +0.000 A 
ATOM     12  C   UNL     1       4.514   3.938  18.740  0.00  0.00    +0.000 A 
ATOM     13  C   UNL     1       5.534   4.958  18.895  0.00  0.00    +0.000 A 
ATOM     14  O   UNL     1       5.811   5.469  19.982  0.00  0.00    +0.000 OA
ATOM     15  N   UNL     1       6.258   5.241  17.719  0.00  0.00    +0.000 N 
ENDBRANCH   1  15
BRANCH   2  16
ATOM     16  C   UNL     1       8.509   8.213  18.203  0.00  0.00    +0.000 C 
ATOM     17  C   UNL     1       8.416   9.554  18.181  0.00  0.00    +0.000 C 
BRANCH  17  18
ATOM     18  C   UNL     1       9.400  10.539  18.660  0.00  0.00    +0.000 A 
ATOM     19  C   UNL     1       9.462  10.790  20.040  0.00  0.00    +0.000 A 
ATOM     20  C   UNL     1      10.425  11.647  20.577  0.00  0.00    +0.000 A 
ATOM     21  C   UNL     1      11.348  12.263  19.738  0.00  0.00    +0.000 A 
ATOM     22  C   UNL     1      11.302  12.023  18.366  0.00  0.00    +0.000 A 
ATOM     23  C   UNL     1      10.337  11.162  17.829  0.00  0.00    +0.000 A 
ENDBRANCH  17  18
ENDBRANCH   2  16
TORSDOF 3
ENDMDL
MODEL 2
REMARK VINA RESULT:      -8.3      0.263      1.056
REMARK  Name = 
REMARK  4 active torsions:
REMARK  status: ('A' for Active; 'I' for Inactive)
REMARK    1  A    between atoms: C_1  and  C_2
REMARK    2  A    between atoms: N_11  and  N_12
REMARK    3  A    between atoms: C_13  and  C_15
REMARK    4  A    between atoms: C_16  and  C_17
REMARK                            x       y       z     vdW  Elec       q    Type
REMARK                         _______ _______ _______ _____ _____    ______ ____
ROOT
ATOM      1  N   UNL     1       7.390   6.094  17.720  0.00  0.00    +0.000 N 
ATOM      2  C   UNL     1       7.299   7.460  17.547  0.00  0.00    +0.000 C 
ATOM      3  O   UNL     1       6.328   8.043  17.081  0.00  0.00    +0.000 OA
ATOM      4  H   UNL     1       8.033   5.767  18.442  0.00  0.00    +0.000 HD
ENDROOT
BRANCH   1  15
ATOM      5  C   UNL     1       6.398   5.096  15.112  0.00  0.00    +0.000 C 
ATOM      6  C   UNL     1       5.782   4.688  16.427  0.00  0.00    +0.000 A 
ATOM      7  N   UNL     1       4.842   3.789  16.351  0.00  0.00    +0.000 NA
ATOM      8  C   UNL     1       4.318   3.383  17.526  0.00  0.00    +0.000 A 
ATOM      9  S   UNL     1       3.129   2.160  17.586  0.00  0.00    +0.000 S 
ATOM     10  C   UNL     1       3.083   2.205  19.297  0.00  0.00    +0.000 A 
ATOM     11  C   UNL     1       3.953   3.144  19.812  0.00  0.00    +0.000 A 
ATOM     12  C   UNL     1       4.672   3.821  18.780  0.00  0.00    +0.000 A 
ATOM     13  C   UNL     1       5.704   4.837  18.870  0.00  0.00    +0.000 A 
ATOM     14  O   UNL     1       6.160   5.235  19.944  0.00  0.00    +0.000 OA
ATOM     15  N   UNL     1       6.218   5.257  17.626  0.00  0.00    +0.000 N 
ENDBRANCH   1  15
BRANCH   2  16
ATOM     16  C   UNL     1       8.516   8.210  17.988  0.00  0.00    +0.000 C 
ATOM     17  C   UNL     1       8.356   9.500  18.333  0.00  0.00    +0.000 C 
BRANCH  17  18
ATOM     18  C   UNL     1       9.383  10.448  18.794  0.00  0.00    +0.000 A 
ATOM     19  C   UNL     1      10.157  11.103  17.821  0.00  0.00    +0.000 A 
ATOM     20  C   UNL     1      11.092  12.077  18.178  0.00  0.00    +0.000 A 
ATOM     21  C   UNL     1      11.263  12.417  19.516  0.00  0.00    +0.000 A 
ATOM     22  C   UNL     1      10.501  11.778  20.493  0.00  0.00    +0.000 A 
ATOM     23  C   UNL     1       9.563  10.802  20.135  0.00  0.00    +0.000 A 
ENDBRANCH  17  18
ENDBRANCH   2  16
TORSDOF 3
ENDMDL
MODEL 3
REMARK VINA RESULT:      -8.0      1.419      1.467
REMARK  Name = 
REMARK  4 active torsions:
REMARK  status: ('A' for Active; 'I' for Inactive)
REMARK    1  A    between atoms: C_1  and  C_2
REMARK    2  A    between atoms: N_11  and  N_12
REMARK    3  A    between atoms: C_13  and  C_15
REMARK    4  A    between atoms: C_16  and  C_17
REMARK                            x       y       z     vdW  Elec       q    Type
REMARK                         _______ _______ _______ _____ _____    ______ ____
ROOT
ATOM      1  N   UNL     1       6.160   7.327  17.010  0.00  0.00    +0.000 N 
ATOM      2  C   UNL     1       7.239   7.332  17.870  0.00  0.00    +0.000 C 
ATOM      3  O   UNL     1       7.444   6.497  18.741  0.00  0.00    +0.000 OA
ATOM      4  H   UNL     1       6.285   7.804  16.117  0.00  0.00    +0.000 HD
ENDROOT
BRANCH   1  15
ATOM      5  C   UNL     1       7.154   4.831  15.759  0.00  0.00    +0.000 C 
ATOM      6  C   UNL     1       5.788   4.936  16.390  0.00  0.00    +0.000 A 
ATOM      7  N   UNL     1       5.106   3.828  16.437  0.00  0.00    +0.000 NA
ATOM      8  C   UNL     1       3.902   3.902  17.043  0.00  0.00    +0.000 A 
ATOM      9  S   UNL     1       2.927   2.515  17.242  0.00  0.00    +0.000 S 
ATOM     10  C   UNL     1       1.733   3.401  18.090  0.00  0.00    +0.000 A 
ATOM     11  C   UNL     1       2.069   4.734  18.211  0.00  0.00    +0.000 A 
ATOM     12  C   UNL     1       3.332   5.018  17.607  0.00  0.00    +0.000 A 
ATOM     13  C   UNL     1       4.079   6.261  17.539  0.00  0.00    +0.000 A 
ATOM     14  O   UNL     1       3.704   7.299  18.088  0.00  0.00    +0.000 OA
ATOM     15  N   UNL     1       5.322   6.157  16.882  0.00  0.00    +0.000 N 
ENDBRANCH   1  15
BRANCH   2  16
ATOM     16  C   UNL     1       8.180   8.474  17.654  0.00  0.00    +0.000 C 
ATOM     17  C   UNL     1       8.547   9.186  18.735  0.00  0.00    +0.000 C 
BRANCH  17  18
ATOM     18  C   UNL     1       9.449  10.348  18.791  0.00  0.00    +0.000 A 
ATOM     19  C   UNL     1       9.818  10.833  20.056  0.00  0.00    +0.000 A 
ATOM     20  C   UNL     1      10.736  11.878  20.189  0.00  0.00    +0.000 A 
ATOM     21  C   UNL     1      11.305  12.450  19.056  0.00  0.00    +0.000 A 
ATOM     22  C   UNL     1      10.950  11.978  17.793  0.00  0.00    +0.000 A 
ATOM     23  C   UNL     1      10.031  10.930  17.660  0.00  0.00    +0.000 A 
ENDBRANCH  17  18
ENDBRANCH   2  16
TORSDOF 3
ENDMDL
MODEL 4
REMARK VINA RESULT:      -7.9      1.554      1.782
REMARK  Name = 
REMARK  4 active torsions:
REMARK  status: ('A' for Active; 'I' for Inactive)
REMARK    1  A    between atoms: C_1  and  C_2
REMARK    2  A    between atoms: N_11  and  N_12
REMARK    3  A    between atoms: C_13  and  C_15
REMARK    4  A    between atoms: C_16  and  C_17
REMARK                            x       y       z     vdW  Elec       q    Type
REMARK                         _______ _______ _______ _____ _____    ______ ____
ROOT
ATOM      1  N   UNL     1       6.187   7.203  16.877  0.00  0.00    +0.000 N 
ATOM      2  C   UNL     1       7.242   7.248  17.766  0.00  0.00    +0.000 C 
ATOM      3  O   UNL     1       7.392   6.488  18.713  0.00  0.00    +0.000 OA
ATOM      4  H   UNL     1       6.354   7.593  15.949  0.00  0.00    +0.000 HD
ENDROOT
BRANCH   1  15
ATOM      5  C   UNL     1       7.079   4.607  15.761  0.00  0.00    +0.000 C 
ATOM      6  C   UNL     1       5.727   4.795  16.403  0.00  0.00    +0.000 A 
ATOM      7  N   UNL     1       5.009   3.715  16.524  0.00  0.00    +0.000 NA
ATOM      8  C   UNL     1       3.818   3.865  17.140  0.00  0.00    +0.000 A 
ATOM      9  S   UNL     1       2.801   2.526  17.433  0.00  0.00    +0.000 S 
ATOM     10  C   UNL     1       1.650   3.500  18.243  0.00  0.00    +0.000 A 
ATOM     11  C   UNL     1       2.032   4.825  18.281  0.00  0.00    +0.000 A 
ATOM     12  C   UNL     1       3.294   5.031  17.645  0.00  0.00    +0.000 A 
ATOM     13  C   UNL     1       4.080   6.241  17.495  0.00  0.00    +0.000 A 
ATOM     14  O   UNL     1       3.748   7.321  17.987  0.00  0.00    +0.000 OA
ATOM     15  N   UNL     1       5.309   6.058  16.829  0.00  0.00    +0.000 N 
ENDBRANCH   1  15
BRANCH   2  16
ATOM     16  C   UNL     1       8.232   8.332  17.477  0.00  0.00    +0.000 C 
ATOM     17  C   UNL     1       8.202   9.422  18.264  0.00  0.00    +0.000 C 
BRANCH  17  18
ATOM     18  C   UNL     1       9.058  10.617  18.188  0.00  0.00    +0.000 A 
ATOM     19  C   UNL     1       8.480  11.811  17.724  0.00  0.00    +0.000 A 
ATOM     20  C   UNL     1       9.206  13.004  17.704  0.00  0.00    +0.000 A 
ATOM     21  C   UNL     1      10.521  13.023  18.155  0.00  0.00    +0.000 A 
ATOM     22  C   UNL     1      11.108  11.848  18.621  0.00  0.00    +0.000 A 
ATOM     23  C   UNL     1      10.380  10.651  18.642  0.00  0.00    +0.000 A 
ENDBRANCH  17  18
ENDBRANCH   2  16
TORSDOF 3
ENDMDL
MODEL 5
REMARK VINA RESULT:      -7.5      1.496      1.660
REMARK  Name = 
REMARK  4 active torsions:
REMARK  status: ('A' for Active; 'I' for Inactive)
REMARK    1  A    between atoms: C_1  and  C_2
REMARK    2  A    between atoms: N_11  and  N_12
REMARK    3  A    between atoms: C_13  and  C_15
REMARK    4  A    between atoms: C_16  and  C_17
REMARK                            x       y       z     vdW  Elec       q    Type
REMARK                         _______ _______ _______ _____ _____    ______ ____
ROOT
ATOM      1  N   UNL     1       6.409   7.209  18.222  0.00  0.00    +0.000 N 
ATOM      2  C   UNL     1       7.355   7.616  17.303  0.00  0.00    +0.000 C 
ATOM      3  O   UNL     1       7.766   6.935  16.373  0.00  0.00    +0.000 OA
ATOM      4  H   UNL     1       5.874   7.945  18.684  0.00  0.00    +0.000 HD
ENDROOT
BRANCH   1  15
ATOM      5  C   UNL     1       7.583   4.489  18.312  0.00  0.00    +0.000 C 
ATOM      6  C   UNL     1       6.107   4.732  18.120  0.00  0.00    +0.000 A 
ATOM      7  N   UNL     1       5.363   3.664  18.092  0.00  0.00    +0.000 NA
ATOM      8  C   UNL     1       4.035   3.873  17.968  0.00  0.00    +0.000 A 
ATOM      9  S   UNL     1       2.930   2.572  17.988  0.00  0.00    +0.000 S 
ATOM     10  C   UNL     1       1.590   3.630  17.867  0.00  0.00    +0.000 A 
ATOM     11  C   UNL     1       1.980   4.951  17.803  0.00  0.00    +0.000 A 
ATOM     12  C   UNL     1       3.400   5.088  17.868  0.00  0.00    +0.000 A 
ATOM     13  C   UNL     1       4.226   6.281  17.878  0.00  0.00    +0.000 A 
ATOM     14  O   UNL     1       3.757   7.421  17.884  0.00  0.00    +0.000 OA
ATOM     15  N   UNL     1       5.609   6.030  17.986  0.00  0.00    +0.000 N 
ENDBRANCH   1  15
BRANCH   2  16
ATOM     16  C   UNL     1       7.862   9.005  17.530  0.00  0.00    +0.000 C 
ATOM     17  C   UNL     1       8.730   9.188  18.541  0.00  0.00    +0.000 C 
BRANCH  17  18
ATOM     18  C   UNL     1       9.368  10.444  18.971  0.00  0.00    +0.000 A 
ATOM     19  C   UNL     1       9.414  10.720  20.348  0.00  0.00    +0.000 A 
ATOM     20  C   UNL     1      10.076  11.849  20.836  0.00  0.00    +0.000 A 
ATOM     21  C   UNL     1      10.708  12.718  19.953  0.00  0.00    +0.000 A 
ATOM     22  C   UNL     1      10.672  12.457  18.584  0.00  0.00    +0.000 A 
ATOM     23  C   UNL     1      10.010  11.324  18.095  0.00  0.00    +0.000 A 
ENDBRANCH  17  18
ENDBRANCH   2  16
TORSDOF 3
ENDMDL
MODEL 6
REMARK VINA RESULT:      -7.4      1.518      1.952
REMARK  Name = 
REMARK  4 active torsions:
REMARK  status: ('A' for Active; 'I' for Inactive)
REMARK    1  A    between atoms: C_1  and  C_2
REMARK    2  A    between atoms: N_11  and  N_12
REMARK    3  A    between atoms: C_13  and  C_15
REMARK    4  A    between atoms: C_16  and  C_17
REMARK                            x       y       z     vdW  Elec       q    Type
REMARK                         _______ _______ _______ _____ _____    ______ ____
ROOT
ATOM      1  N   UNL     1       6.469   7.191  18.221  0.00  0.00    +0.000 N 
ATOM      2  C   UNL     1       7.398   7.620  17.296  0.00  0.00    +0.000 C 
ATOM      3  O   UNL     1       7.779   6.968  16.333  0.00  0.00    +0.000 OA
ATOM      4  H   UNL     1       5.953   7.916  18.721  0.00  0.00    +0.000 HD
ENDROOT
BRANCH   1  15
ATOM      5  C   UNL     1       7.605   4.454  18.226  0.00  0.00    +0.000 C 
ATOM      6  C   UNL     1       6.130   4.723  18.057  0.00  0.00    +0.000 A 
ATOM      7  N   UNL     1       5.371   3.666  18.008  0.00  0.00    +0.000 NA
ATOM      8  C   UNL     1       4.045   3.897  17.905  0.00  0.00    +0.000 A 
ATOM      9  S   UNL     1       2.922   2.611  17.902  0.00  0.00    +0.000 S 
ATOM     10  C   UNL     1       1.595   3.691  17.823  0.00  0.00    +0.000 A 
ATOM     11  C   UNL     1       2.003   5.008  17.790  0.00  0.00    +0.000 A 
ATOM     12  C   UNL     1       3.426   5.123  17.844  0.00  0.00    +0.000 A 
ATOM     13  C   UNL     1       4.269   6.304  17.876  0.00  0.00    +0.000 A 
ATOM     14  O   UNL     1       3.816   7.449  17.918  0.00  0.00    +0.000 OA
ATOM     15  N   UNL     1       5.650   6.030  17.963  0.00  0.00    +0.000 N 
ENDBRANCH   1  15
BRANCH   2  16
ATOM     16  C   UNL     1       7.927   8.994  17.560  0.00  0.00    +0.000 C 
ATOM     17  C   UNL     1       8.718   9.156  18.635  0.00  0.00    +0.000 C 
BRANCH  17  18
ATOM     18  C   UNL     1       9.357  10.394  19.111  0.00  0.00    +0.000 A 
ATOM     19  C   UNL     1       9.814  11.310  18.150  0.00  0.00    +0.000 A 
ATOM     20  C   UNL     1      10.354  12.542  18.527  0.00  0.00    +0.000 A 
ATOM     21  C   UNL     1      10.440  12.879  19.873  0.00  0.00    +0.000 A 
ATOM     22  C   UNL     1       9.988  11.982  20.839  0.00  0.00    +0.000 A 
ATOM     23  C   UNL     1       9.446  10.747  20.462  0.00  0.00    +0.000 A 
ENDBRANCH  17  18
ENDBRANCH   2  16
TORSDOF 3
ENDMDL
MODEL 7
REMARK VINA RESULT:      -7.4      1.286      1.672
REMARK  Name = 
REMARK  4 active torsions:
REMARK  status: ('A' for Active; 'I' for Inactive)
REMARK    1  A    between atoms: C_1  and  C_2
REMARK    2  A    between atoms: N_11  and  N_12
REMARK    3  A    between atoms: C_13  and  C_15
REMARK    4  A    between atoms: C_16  and  C_17
REMARK                            x       y       z     vdW  Elec       q    Type
REMARK                         _______ _______ _______ _____ _____    ______ ____
ROOT
ATOM      1  N   UNL     1       6.424   7.054  18.353  0.00  0.00    +0.000 N 
ATOM      2  C   UNL     1       7.389   7.171  17.374  0.00  0.00    +0.000 C 
ATOM      3  O   UNL     1       7.629   6.325  16.523  0.00  0.00    +0.000 OA
ATOM      4  H   UNL     1       6.052   7.924  18.735  0.00  0.00    +0.000 HD
ENDROOT
BRANCH   1  15
ATOM      5  C   UNL     1       4.317   7.102  16.270  0.00  0.00    +0.000 C 
ATOM      6  C   UNL     1       4.467   5.964  17.248  0.00  0.00    +0.000 A 
ATOM      7  N   UNL     1       3.669   4.953  17.057  0.00  0.00    +0.000 NA
ATOM      8  C   UNL     1       3.829   3.909  17.898  0.00  0.00    +0.000 A 
ATOM      9  S   UNL     1       2.903   2.486  17.725  0.00  0.00    +0.000 S 
ATOM     10  C   UNL     1       3.718   1.725  19.024  0.00  0.00    +0.000 A 
ATOM     11  C   UNL     1       4.673   2.547  19.585  0.00  0.00    +0.000 A 
ATOM     12  C   UNL     1       4.739   3.811  18.924  0.00  0.00    +0.000 A 
ATOM     13  C   UNL     1       5.616   4.944  19.154  0.00  0.00    +0.000 A 
ATOM     14  O   UNL     1       6.526   4.929  19.986  0.00  0.00    +0.000 OA
ATOM     15  N   UNL     1       5.412   6.027  18.275  0.00  0.00    +0.000 N 
ENDBRANCH   1  15
BRANCH   2  16
ATOM     16  C   UNL     1       8.152   8.457  17.426  0.00  0.00    +0.000 C 
ATOM     17  C   UNL     1       8.528   8.904  18.637  0.00  0.00    +0.000 C 
BRANCH  17  18
ATOM     18  C   UNL     1       9.277  10.131  18.957  0.00  0.00    +0.000 A 
ATOM     19  C   UNL     1       9.768  10.899  17.889  0.00  0.00    +0.000 A 
ATOM     20  C   UNL     1      10.414  12.118  18.113  0.00  0.00    +0.000 A 
ATOM     21  C   UNL     1      10.573  12.589  19.411  0.00  0.00    +0.000 A 
ATOM     22  C   UNL     1      10.089  11.839  20.482  0.00  0.00    +0.000 A 
ATOM     23  C   UNL     1       9.441  10.619  20.257  0.00  0.00    +0.000 A 
ENDBRANCH  17  18
ENDBRANCH   2  16
TORSDOF 3
ENDMDL
MODEL 8
REMARK VINA RESULT:      -7.4      1.746      2.192
REMARK  Name = 
REMARK  4 active torsions:
REMARK  status: ('A' for Active; 'I' for Inactive)
REMARK    1  A    between atoms: C_1  and  C_2
REMARK    2  A    between atoms: N_11  and  N_12
REMARK    3  A    between atoms: C_13  and  C_15
REMARK    4  A    between atoms: C_16  and  C_17
REMARK                            x       y       z     vdW  Elec       q    Type
REMARK                         _______ _______ _______ _____ _____    ______ ____
ROOT
ATOM      1  N   UNL     1       6.125   6.611  18.389  0.00  0.00    +0.000 N 
ATOM      2  C   UNL     1       6.746   6.784  17.168  0.00  0.00    +0.000 C 
ATOM      3  O   UNL     1       6.491   6.143  16.157  0.00  0.00    +0.000 OA
ATOM      4  H   UNL     1       6.123   7.414  19.018  0.00  0.00    +0.000 HD
ENDROOT
BRANCH   1  15
ATOM      5  C   UNL     1       3.493   7.753  17.646  0.00  0.00    +0.000 C 
ATOM      6  C   UNL     1       3.667   6.314  18.062  0.00  0.00    +0.000 A 
ATOM      7  N   UNL     1       2.598   5.575  17.981  0.00  0.00    +0.000 NA
ATOM      8  C   UNL     1       2.755   4.274  18.306  0.00  0.00    +0.000 A 
ATOM      9  S   UNL     1       1.459   3.170  18.180  0.00  0.00    +0.000 S 
ATOM     10  C   UNL     1       2.449   1.859  18.663  0.00  0.00    +0.000 A 
ATOM     11  C   UNL     1       3.742   2.260  18.924  0.00  0.00    +0.000 A 
ATOM     12  C   UNL     1       3.917   3.661  18.710  0.00  0.00    +0.000 A 
ATOM     13  C   UNL     1       5.106   4.485  18.821  0.00  0.00    +0.000 A 
ATOM     14  O   UNL     1       6.218   4.023  19.087  0.00  0.00    +0.000 OA
ATOM     15  N   UNL     1       4.907   5.842  18.497  0.00  0.00    +0.000 N 
ENDBRANCH   1  15
BRANCH   2  16
ATOM     16  C   UNL     1       7.793   7.852  17.167  0.00  0.00    +0.000 C 
ATOM     17  C   UNL     1       7.664   8.845  18.063  0.00  0.00    +0.000 C 
BRANCH  17  18
ATOM     18  C   UNL     1       8.547  10.006  18.263  0.00  0.00    +0.000 A 
ATOM     19  C   UNL     1       8.278  11.172  17.527  0.00  0.00    +0.000 A 
ATOM     20  C   UNL     1       9.021  12.338  17.725  0.00  0.00    +0.000 A 
ATOM     21  C   UNL     1      10.042  12.358  18.669  0.00  0.00    +0.000 A 
ATOM     22  C   UNL     1      10.320  11.210  19.409  0.00  0.00    +0.000 A 
ATOM     23  C   UNL     1       9.575  10.040  19.211  0.00  0.00    +0.000 A 
ENDBRANCH  17  18
ENDBRANCH   2  16
TORSDOF 3
ENDMDL
MODEL 9
REMARK VINA RESULT:      -7.2      7.682      9.369
REMARK  Name = 
REMARK  4 active torsions:
REMARK  status: ('A' for Active; 'I' for Inactive)
REMARK    1  A    between atoms: C_1  and  C_2
REMARK    2  A    between atoms: N_11  and  N_12
REMARK    3  A    between atoms: C_13  and  C_15
REMARK    4  A    between atoms: C_16  and  C_17
REMARK                            x       y       z     vdW  Elec       q    Type
REMARK                         _______ _______ _______ _____ _____    ______ ____
ROOT
ATOM      1  N   UNL     1       0.901  10.143  18.142  0.00  0.00    +0.000 N 
ATOM      2  C   UNL     1       1.546   9.067  18.715  0.00  0.00    +0.000 C 
ATOM      3  O   UNL     1       1.376   8.680  19.864  0.00  0.00    +0.000 OA
ATOM      4  H   UNL     1       0.815  10.136  17.125  0.00  0.00    +0.000 HD
ENDROOT
BRANCH   1  15
ATOM      5  C   UNL     1       1.167  12.059  20.387  0.00  0.00    +0.000 C 
ATOM      6  C   UNL     1      -0.163  11.715  19.765  0.00  0.00    +0.000 A 
ATOM      7  N   UNL     1      -1.183  12.388  20.215  0.00  0.00    +0.000 NA
ATOM      8  C   UNL     1      -2.370  12.121  19.630  0.00  0.00    +0.000 A 
ATOM      9  S   UNL     1      -3.782  12.976  20.067  0.00  0.00    +0.000 S 
ATOM     10  C   UNL     1      -4.720  12.143  18.902  0.00  0.00    +0.000 A 
ATOM     11  C   UNL     1      -3.970  11.222  18.200  0.00  0.00    +0.000 A 
ATOM     12  C   UNL     1      -2.606  11.217  18.621  0.00  0.00    +0.000 A 
ATOM     13  C   UNL     1      -1.477  10.449  18.131  0.00  0.00    +0.000 A 
ATOM     14  O   UNL     1      -1.556   9.679  17.171  0.00  0.00    +0.000 OA
ATOM     15  N   UNL     1      -0.255  10.735  18.774  0.00  0.00    +0.000 N 
ENDBRANCH   1  15
BRANCH   2  16
ATOM     16  C   UNL     1       2.505   8.376  17.798  0.00  0.00    +0.000 C 
ATOM     17  C   UNL     1       2.890   7.131  18.129  0.00  0.00    +0.000 C 
BRANCH  17  18
ATOM     18  C   UNL     1       3.818   6.247  17.405  0.00  0.00    +0.000 A 
ATOM     19  C   UNL     1       3.604   4.861  17.487  0.00  0.00    +0.000 A 
ATOM     20  C   UNL     1       4.391   3.964  16.761  0.00  0.00    +0.000 A 
ATOM     21  C   UNL     1       5.402   4.442  15.934  0.00  0.00    +0.000 A 
ATOM     22  C   UNL     1       5.626   5.815  15.840  0.00  0.00    +0.000 A 
ATOM     23  C   UNL     1       4.836   6.714  16.568  0.00  0.00    +0.000 A 
ENDBRANCH  17  18
ENDBRANCH   2  16
TORSDOF 3
ENDMDL
