MODEL 1
REMARK VINA RESULT:      -7.2      0.000      0.000
REMARK  Name = 
REMARK  12 active torsions:
REMARK  status: ('A' for Active; 'I' for Inactive)
REMARK    1  A    between atoms: C_1  and  C_2
REMARK    2  A    between atoms: C_2  and  C_3
REMARK    3  A    between atoms: C_3  and  O_4
REMARK    4  A    between atoms: O_4  and  C_5
REMARK    5  A    between atoms: C_7  and  C_8
REMARK    6  A    between atoms: C_11  and  N_12
REMARK    7  A    between atoms: N_15  and  C_16
REMARK    8  A    between atoms: C_16  and  C_17
REMARK    9  A    between atoms: C_17  and  N_18
REMARK   10  A    between atoms: C_19  and  C_21
REMARK   11  A    between atoms: C_21  and  C_22
REMARK   12  A    between atoms: C_21  and  C_23
REMARK                            x       y       z     vdW  Elec       q    Type
REMARK                         _______ _______ _______ _____ _____    ______ ____
ROOT
ATOM      1  N   UNL     1       3.350   6.127  17.457  0.00  0.00    +0.000 N 
ATOM      2  C   UNL     1       4.710   5.854  17.451  0.00  0.00    +0.000 C 
ATOM      3  O   UNL     1       5.531   6.199  18.297  0.00  0.00    +0.000 OA
ATOM      4  N   UNL     1       5.135   5.103  16.375  0.00  0.00    +0.000 N 
ATOM      5  H   UNL     1       2.758   5.691  16.765  0.00  0.00    +0.000 HD
ATOM      6  H   UNL     1       4.566   5.096  15.542  0.00  0.00    +0.000 HD
ENDROOT
BRANCH   1  13
ATOM      7  C   UNL     1       2.408   6.446  19.743  0.00  0.00    +0.000 A 
ATOM      8  C   UNL     1       1.708   7.285  20.644  0.00  0.00    +0.000 A 
ATOM      9  C   UNL     1       1.286   8.571  20.306  0.00  0.00    +0.000 A 
ATOM     10  C   UNL     1       0.573   9.431  21.305  0.00  0.00    +0.000 C 
ATOM     11  C   UNL     1       1.551   9.036  19.031  0.00  0.00    +0.000 A 
ATOM     12  C   UNL     1       2.218   8.222  18.115  0.00  0.00    +0.000 A 
ATOM     13  C   UNL     1       2.665   6.924  18.433  0.00  0.00    +0.000 A 
BRANCH   7  14
ATOM     14  O   UNL     1       2.846   5.180  20.123  0.00  0.00    +0.000 OA
BRANCH  14  15
ATOM     15  C   UNL     1       1.782   4.205  20.197  0.00  0.00    +0.000 C 
BRANCH  15  17
ATOM     16  C   UNL     1       0.714   2.282  19.008  0.00  0.00    +0.000 C 
ATOM     17  C   UNL     1       1.310   3.682  18.845  0.00  0.00    +0.000 C 
ENDBRANCH  15  17
ENDBRANCH  14  15
ENDBRANCH   7  14
ENDBRANCH   1  13
BRANCH   4  18
ATOM     18  C   UNL     1       6.572   4.840  16.217  0.00  0.00    +0.000 C 
BRANCH  18  19
ATOM     19  C   UNL     1       7.015   4.702  14.748  0.00  0.00    +0.000 C 
BRANCH  19  20
ATOM     20  N   UNL     1       6.196   3.764  13.985  0.00  0.00    +0.000 N 
ATOM     21  C   UNL     1       6.395   3.552  12.640  0.00  0.00    +0.000 C 
ATOM     22  O   UNL     1       7.291   4.120  12.019  0.00  0.00    +0.000 OA
ATOM     23  H   UNL     1       5.524   3.201  14.490  0.00  0.00    +0.000 HD
BRANCH  21  24
ATOM     24  C   UNL     1       5.456   2.523  11.997  0.00  0.00    +0.000 C 
ATOM     25  C   UNL     1       4.295   3.178  11.247  0.00  0.00    +0.000 C 
ATOM     26  C   UNL     1       6.233   1.615  11.041  0.00  0.00    +0.000 C 
ENDBRANCH  21  24
ENDBRANCH  19  20
ENDBRANCH  18  19
ENDBRANCH   4  18
TORSDOF 8
ENDMDL
MODEL 2
REMARK VINA RESULT:      -7.2      0.748      1.080
REMARK  Name = 
REMARK  12 active torsions:
REMARK  status: ('A' for Active; 'I' for Inactive)
REMARK    1  A    between atoms: C_1  and  C_2
REMARK    2  A    between atoms: C_2  and  C_3
REMARK    3  A    between atoms: C_3  and  O_4
REMARK    4  A    between atoms: O_4  and  C_5
REMARK    5  A    between atoms: C_7  and  C_8
REMARK    6  A    between atoms: C_11  and  N_12
REMARK    7  A    between atoms: N_15  and  C_16
REMARK    8  A    between atoms: C_16  and  C_17
REMARK    9  A    between atoms: C_17  and  N_18
REMARK   10  A    between atoms: C_19  and  C_21
REMARK   11  A    between atoms: C_21  and  C_22
REMARK   12  A    between atoms: C_21  and  C_23
REMARK                            x       y       z     vdW  Elec       q    Type
REMARK                         _______ _______ _______ _____ _____    ______ ____
ROOT
ATOM      1  N   UNL     1       3.267   5.614  17.482  0.00  0.00    +0.000 N 
ATOM      2  C   UNL     1       4.592   5.207  17.428  0.00  0.00    +0.000 C 
ATOM      3  O   UNL     1       5.450   5.388  18.288  0.00  0.00    +0.000 OA
ATOM      4  N   UNL     1       4.931   4.519  16.282  0.00  0.00    +0.000 N 
ATOM      5  H   UNL     1       2.628   5.304  16.763  0.00  0.00    +0.000 HD
ATOM      6  H   UNL     1       4.357   4.645  15.461  0.00  0.00    +0.000 HD
ENDROOT
BRANCH   1  13
ATOM      7  C   UNL     1       2.284   5.792  19.765  0.00  0.00    +0.000 A 
ATOM      8  C   UNL     1       1.686   6.614  20.752  0.00  0.00    +0.000 A 
ATOM      9  C   UNL     1       1.490   7.984  20.577  0.00  0.00    +0.000 A 
ATOM     10  C   UNL     1       0.878   8.816  21.661  0.00  0.00    +0.000 C 
ATOM     11  C   UNL     1       1.884   8.556  19.380  0.00  0.00    +0.000 A 
ATOM     12  C   UNL     1       2.454   7.765  18.381  0.00  0.00    +0.000 A 
ATOM     13  C   UNL     1       2.674   6.382  18.537  0.00  0.00    +0.000 A 
BRANCH   7  14
ATOM     14  O   UNL     1       2.498   4.433  19.986  0.00  0.00    +0.000 OA
BRANCH  14  15
ATOM     15  C   UNL     1       1.311   3.630  19.798  0.00  0.00    +0.000 C 
BRANCH  15  17
ATOM     16  C   UNL     1       2.250   2.290  17.908  0.00  0.00    +0.000 C 
ATOM     17  C   UNL     1       1.578   2.221  19.281  0.00  0.00    +0.000 C 
ENDBRANCH  15  17
ENDBRANCH  14  15
ENDBRANCH   7  14
ENDBRANCH   1  13
BRANCH   4  18
ATOM     18  C   UNL     1       6.332   4.128  16.077  0.00  0.00    +0.000 C 
BRANCH  18  19
ATOM     19  C   UNL     1       6.852   4.424  14.658  0.00  0.00    +0.000 C 
BRANCH  19  20
ATOM     20  N   UNL     1       6.165   3.659  13.620  0.00  0.00    +0.000 N 
ATOM     21  C   UNL     1       6.500   3.773  12.291  0.00  0.00    +0.000 C 
ATOM     22  O   UNL     1       7.414   4.502  11.911  0.00  0.00    +0.000 OA
ATOM     23  H   UNL     1       5.485   2.970  13.912  0.00  0.00    +0.000 HD
BRANCH  21  24
ATOM     24  C   UNL     1       5.688   2.887  11.336  0.00  0.00    +0.000 C 
ATOM     25  C   UNL     1       5.993   1.400  11.514  0.00  0.00    +0.000 C 
ATOM     26  C   UNL     1       4.189   3.128  11.530  0.00  0.00    +0.000 C 
ENDBRANCH  21  24
ENDBRANCH  19  20
ENDBRANCH  18  19
ENDBRANCH   4  18
TORSDOF 8
ENDMDL
MODEL 3
REMARK VINA RESULT:      -7.2      2.357      5.018
REMARK  Name = 
REMARK  12 active torsions:
REMARK  status: ('A' for Active; 'I' for Inactive)
REMARK    1  A    between atoms: C_1  and  C_2
REMARK    2  A    between atoms: C_2  and  C_3
REMARK    3  A    between atoms: C_3  and  O_4
REMARK    4  A    between atoms: O_4  and  C_5
REMARK    5  A    between atoms: C_7  and  C_8
REMARK    6  A    between atoms: C_11  and  N_12
REMARK    7  A    between atoms: N_15  and  C_16
REMARK    8  A    between atoms: C_16  and  C_17
REMARK    9  A    between atoms: C_17  and  N_18
REMARK   10  A    between atoms: C_19  and  C_21
REMARK   11  A    between atoms: C_21  and  C_22
REMARK   12  A    between atoms: C_21  and  C_23
REMARK                            x       y       z     vdW  Elec       q    Type
REMARK                         _______ _______ _______ _____ _____    ______ ____
ROOT
ATOM      1  N   UNL     1       3.414   4.089  16.751  0.00  0.00    +0.000 N 
ATOM      2  C   UNL     1       4.664   3.733  16.267  0.00  0.00    +0.000 C 
ATOM      3  O   UNL     1       5.502   3.040  16.839  0.00  0.00    +0.000 OA
ATOM      4  N   UNL     1       4.946   4.214  15.006  0.00  0.00    +0.000 N 
ATOM      5  H   UNL     1       2.768   4.567  16.139  0.00  0.00    +0.000 HD
ATOM      6  H   UNL     1       4.434   5.019  14.677  0.00  0.00    +0.000 HD
ENDROOT
BRANCH   1  13
ATOM      7  C   UNL     1       3.023   4.640  19.150  0.00  0.00    +0.000 A 
ATOM      8  C   UNL     1       2.504   4.234  20.404  0.00  0.00    +0.000 A 
ATOM      9  C   UNL     1       1.851   3.016  20.593  0.00  0.00    +0.000 A 
ATOM     10  C   UNL     1       1.295   2.644  21.933  0.00  0.00    +0.000 C 
ATOM     11  C   UNL     1       1.720   2.166  19.509  0.00  0.00    +0.000 A 
ATOM     12  C   UNL     1       2.243   2.530  18.268  0.00  0.00    +0.000 A 
ATOM     13  C   UNL     1       2.897   3.758  18.047  0.00  0.00    +0.000 A 
BRANCH   7  14
ATOM     14  O   UNL     1       3.639   5.879  18.987  0.00  0.00    +0.000 OA
BRANCH  14  15
ATOM     15  C   UNL     1       2.707   6.984  18.979  0.00  0.00    +0.000 C 
BRANCH  15  17
ATOM     16  C   UNL     1       1.813   9.042  17.878  0.00  0.00    +0.000 C 
ATOM     17  C   UNL     1       2.835   7.908  17.774  0.00  0.00    +0.000 C 
ENDBRANCH  15  17
ENDBRANCH  14  15
ENDBRANCH   7  14
ENDBRANCH   1  13
BRANCH   4  18
ATOM     18  C   UNL     1       6.281   3.980  14.439  0.00  0.00    +0.000 C 
BRANCH  18  19
ATOM     19  C   UNL     1       7.212   5.203  14.530  0.00  0.00    +0.000 C 
BRANCH  19  20
ATOM     20  N   UNL     1       7.492   5.614  15.903  0.00  0.00    +0.000 N 
ATOM     21  C   UNL     1       6.710   6.536  16.560  0.00  0.00    +0.000 C 
ATOM     22  O   UNL     1       5.720   7.041  16.034  0.00  0.00    +0.000 OA
ATOM     23  H   UNL     1       8.232   5.136  16.400  0.00  0.00    +0.000 HD
BRANCH  21  24
ATOM     24  C   UNL     1       7.136   6.843  18.002  0.00  0.00    +0.000 C 
ATOM     25  C   UNL     1       7.792   5.643  18.686  0.00  0.00    +0.000 C 
ATOM     26  C   UNL     1       8.094   8.035  18.034  0.00  0.00    +0.000 C 
ENDBRANCH  21  24
ENDBRANCH  19  20
ENDBRANCH  18  19
ENDBRANCH   4  18
TORSDOF 8
ENDMDL
MODEL 4
REMARK VINA RESULT:      -7.2      4.776      7.686
REMARK  Name = 
REMARK  12 active torsions:
REMARK  status: ('A' for Active; 'I' for Inactive)
REMARK    1  A    between atoms: C_1  and  C_2
REMARK    2  A    between atoms: C_2  and  C_3
REMARK    3  A    between atoms: C_3  and  O_4
REMARK    4  A    between atoms: O_4  and  C_5
REMARK    5  A    between atoms: C_7  and  C_8
REMARK    6  A    between atoms: C_11  and  N_12
REMARK    7  A    between atoms: N_15  and  C_16
REMARK    8  A    between atoms: C_16  and  C_17
REMARK    9  A    between atoms: C_17  and  N_18
REMARK   10  A    between atoms: C_19  and  C_21
REMARK   11  A    between atoms: C_21  and  C_22
REMARK   12  A    between atoms: C_21  and  C_23
REMARK                            x       y       z     vdW  Elec       q    Type
REMARK                         _______ _______ _______ _____ _____    ______ ____
ROOT
ATOM      1  N   UNL     1       5.143   6.448  16.927  0.00  0.00    +0.000 N 
ATOM      2  C   UNL     1       6.308   6.748  17.619  0.00  0.00    +0.000 C 
ATOM      3  O   UNL     1       6.741   6.169  18.611  0.00  0.00    +0.000 OA
ATOM      4  N   UNL     1       7.028   7.799  17.093  0.00  0.00    +0.000 N 
ATOM      5  H   UNL     1       4.952   6.923  16.057  0.00  0.00    +0.000 HD
ATOM      6  H   UNL     1       6.544   8.465  16.509  0.00  0.00    +0.000 HD
ENDROOT
BRANCH   1  13
ATOM      7  C   UNL     1       4.301   4.105  16.816  0.00  0.00    +0.000 A 
ATOM      8  C   UNL     1       3.314   3.166  17.204  0.00  0.00    +0.000 A 
ATOM      9  C   UNL     1       2.259   3.489  18.058  0.00  0.00    +0.000 A 
ATOM     10  C   UNL     1       1.255   2.454  18.462  0.00  0.00    +0.000 C 
ATOM     11  C   UNL     1       2.168   4.787  18.529  0.00  0.00    +0.000 A 
ATOM     12  C   UNL     1       3.113   5.738  18.143  0.00  0.00    +0.000 A 
ATOM     13  C   UNL     1       4.195   5.436  17.292  0.00  0.00    +0.000 A 
BRANCH   7  14
ATOM     14  O   UNL     1       5.362   3.741  15.991  0.00  0.00    +0.000 OA
BRANCH  14  15
ATOM     15  C   UNL     1       5.292   4.333  14.674  0.00  0.00    +0.000 C 
BRANCH  15  17
ATOM     16  C   UNL     1       6.189   3.438  12.520  0.00  0.00    +0.000 C 
ATOM     17  C   UNL     1       6.546   4.144  13.829  0.00  0.00    +0.000 C 
ENDBRANCH  15  17
ENDBRANCH  14  15
ENDBRANCH   7  14
ENDBRANCH   1  13
BRANCH   4  18
ATOM     18  C   UNL     1       8.226   8.265  17.804  0.00  0.00    +0.000 C 
BRANCH  18  19
ATOM     19  C   UNL     1       8.298   9.797  17.953  0.00  0.00    +0.000 C 
BRANCH  19  20
ATOM     20  N   UNL     1       9.153  10.229  19.055  0.00  0.00    +0.000 N 
ATOM     21  C   UNL     1      10.096  11.219  18.898  0.00  0.00    +0.000 C 
ATOM     22  O   UNL     1      10.247  11.810  17.830  0.00  0.00    +0.000 OA
ATOM     23  H   UNL     1       8.979   9.840  19.972  0.00  0.00    +0.000 HD
BRANCH  21  24
ATOM     24  C   UNL     1      10.899  11.560  20.160  0.00  0.00    +0.000 C 
ATOM     25  C   UNL     1      12.312  12.051  19.841  0.00  0.00    +0.000 C 
ATOM     26  C   UNL     1      10.167  12.617  20.990  0.00  0.00    +0.000 C 
ENDBRANCH  21  24
ENDBRANCH  19  20
ENDBRANCH  18  19
ENDBRANCH   4  18
TORSDOF 8
ENDMDL
MODEL 5
REMARK VINA RESULT:      -7.1      4.467      7.229
REMARK  Name = 
REMARK  12 active torsions:
REMARK  status: ('A' for Active; 'I' for Inactive)
REMARK    1  A    between atoms: C_1  and  C_2
REMARK    2  A    between atoms: C_2  and  C_3
REMARK    3  A    between atoms: C_3  and  O_4
REMARK    4  A    between atoms: O_4  and  C_5
REMARK    5  A    between atoms: C_7  and  C_8
REMARK    6  A    between atoms: C_11  and  N_12
REMARK    7  A    between atoms: N_15  and  C_16
REMARK    8  A    between atoms: C_16  and  C_17
REMARK    9  A    between atoms: C_17  and  N_18
REMARK   10  A    between atoms: C_19  and  C_21
REMARK   11  A    between atoms: C_21  and  C_22
REMARK   12  A    between atoms: C_21  and  C_23
REMARK                            x       y       z     vdW  Elec       q    Type
REMARK                         _______ _______ _______ _____ _____    ______ ____
ROOT
ATOM      1  N   UNL     1       4.869   6.038  17.012  0.00  0.00    +0.000 N 
ATOM      2  C   UNL     1       6.029   6.357  17.703  0.00  0.00    +0.000 C 
ATOM      3  O   UNL     1       6.418   5.853  18.753  0.00  0.00    +0.000 OA
ATOM      4  N   UNL     1       6.799   7.331  17.105  0.00  0.00    +0.000 N 
ATOM      5  H   UNL     1       4.716   6.440  16.098  0.00  0.00    +0.000 HD
ATOM      6  H   UNL     1       6.354   7.959  16.452  0.00  0.00    +0.000 HD
ENDROOT
BRANCH   1  13
ATOM      7  C   UNL     1       2.698   5.505  18.114  0.00  0.00    +0.000 A 
ATOM      8  C   UNL     1       1.774   4.513  18.523  0.00  0.00    +0.000 A 
ATOM      9  C   UNL     1       1.960   3.155  18.267  0.00  0.00    +0.000 A 
ATOM     10  C   UNL     1       0.939   2.146  18.696  0.00  0.00    +0.000 C 
ATOM     11  C   UNL     1       3.106   2.763  17.598  0.00  0.00    +0.000 A 
ATOM     12  C   UNL     1       4.046   3.717  17.204  0.00  0.00    +0.000 A 
ATOM     13  C   UNL     1       3.877   5.096  17.440  0.00  0.00    +0.000 A 
BRANCH   7  14
ATOM     14  O   UNL     1       2.465   6.857  18.354  0.00  0.00    +0.000 OA
BRANCH  14  15
ATOM     15  C   UNL     1       2.148   7.146  19.735  0.00  0.00    +0.000 C 
BRANCH  15  17
ATOM     16  C   UNL     1       1.380   9.265  18.655  0.00  0.00    +0.000 C 
ATOM     17  C   UNL     1       1.667   8.570  19.987  0.00  0.00    +0.000 C 
ENDBRANCH  15  17
ENDBRANCH  14  15
ENDBRANCH   7  14
ENDBRANCH   1  13
BRANCH   4  18
ATOM     18  C   UNL     1       7.998   7.816  17.802  0.00  0.00    +0.000 C 
BRANCH  18  19
ATOM     19  C   UNL     1       8.090   9.352  17.875  0.00  0.00    +0.000 C 
BRANCH  19  20
ATOM     20  N   UNL     1       8.948   9.827  18.957  0.00  0.00    +0.000 N 
ATOM     21  C   UNL     1       9.720  10.959  18.829  0.00  0.00    +0.000 C 
ATOM     22  O   UNL     1       9.706  11.643  17.808  0.00  0.00    +0.000 OA
ATOM     23  H   UNL     1       8.898   9.349  19.847  0.00  0.00    +0.000 HD
BRANCH  21  24
ATOM     24  C   UNL     1      10.551  11.324  20.066  0.00  0.00    +0.000 C 
ATOM     25  C   UNL     1      11.989  11.708  19.713  0.00  0.00    +0.000 C 
ATOM     26  C   UNL     1       9.890  12.471  20.834  0.00  0.00    +0.000 C 
ENDBRANCH  21  24
ENDBRANCH  19  20
ENDBRANCH  18  19
ENDBRANCH   4  18
TORSDOF 8
ENDMDL
MODEL 6
REMARK VINA RESULT:      -7.0      3.683      7.998
REMARK  Name = 
REMARK  12 active torsions:
REMARK  status: ('A' for Active; 'I' for Inactive)
REMARK    1  A    between atoms: C_1  and  C_2
REMARK    2  A    between atoms: C_2  and  C_3
REMARK    3  A    between atoms: C_3  and  O_4
REMARK    4  A    between atoms: O_4  and  C_5
REMARK    5  A    between atoms: C_7  and  C_8
REMARK    6  A    between atoms: C_11  and  N_12
REMARK    7  A    between atoms: N_15  and  C_16
REMARK    8  A    between atoms: C_16  and  C_17
REMARK    9  A    between atoms: C_17  and  N_18
REMARK   10  A    between atoms: C_19  and  C_21
REMARK   11  A    between atoms: C_21  and  C_22
REMARK   12  A    between atoms: C_21  and  C_23
REMARK                            x       y       z     vdW  Elec       q    Type
REMARK                         _______ _______ _______ _____ _____    ______ ____
ROOT
ATOM      1  N   UNL     1       2.843   7.204  18.740  0.00  0.00    +0.000 N 
ATOM      2  C   UNL     1       2.144   8.341  18.360  0.00  0.00    +0.000 C 
ATOM      3  O   UNL     1       2.024   8.781  17.220  0.00  0.00    +0.000 OA
ATOM      4  N   UNL     1       1.523   9.001  19.399  0.00  0.00    +0.000 N 
ATOM      5  H   UNL     1       2.772   6.879  19.693  0.00  0.00    +0.000 HD
ATOM      6  H   UNL     1       1.868   8.851  20.335  0.00  0.00    +0.000 HD
ENDROOT
BRANCH   1  13
ATOM      7  C   UNL     1       3.367   4.976  17.752  0.00  0.00    +0.000 A 
ATOM      8  C   UNL     1       4.182   4.213  16.881  0.00  0.00    +0.000 A 
ATOM      9  C   UNL     1       5.197   4.778  16.108  0.00  0.00    +0.000 A 
ATOM     10  C   UNL     1       6.014   3.933  15.180  0.00  0.00    +0.000 C 
ATOM     11  C   UNL     1       5.422   6.139  16.212  0.00  0.00    +0.000 A 
ATOM     12  C   UNL     1       4.650   6.911  17.081  0.00  0.00    +0.000 A 
ATOM     13  C   UNL     1       3.612   6.368  17.864  0.00  0.00    +0.000 A 
BRANCH   7  14
ATOM     14  O   UNL     1       2.338   4.387  18.484  0.00  0.00    +0.000 OA
BRANCH  14  15
ATOM     15  C   UNL     1       1.915   3.112  17.950  0.00  0.00    +0.000 C 
BRANCH  15  17
ATOM     16  C   UNL     1       1.050   2.812  20.276  0.00  0.00    +0.000 C 
ATOM     17  C   UNL     1       0.908   2.367  18.819  0.00  0.00    +0.000 C 
ENDBRANCH  15  17
ENDBRANCH  14  15
ENDBRANCH   7  14
ENDBRANCH   1  13
BRANCH   4  18
ATOM     18  C   UNL     1       0.838  10.271  19.124  0.00  0.00    +0.000 C 
BRANCH  18  19
ATOM     19  C   UNL     1      -0.671  10.236  19.434  0.00  0.00    +0.000 C 
BRANCH  19  20
ATOM     20  N   UNL     1      -1.505  10.200  18.236  0.00  0.00    +0.000 N 
ATOM     21  C   UNL     1      -1.992  11.348  17.654  0.00  0.00    +0.000 C 
ATOM     22  O   UNL     1      -1.727  12.464  18.097  0.00  0.00    +0.000 OA
ATOM     23  H   UNL     1      -1.649   9.306  17.785  0.00  0.00    +0.000 HD
BRANCH  21  24
ATOM     24  C   UNL     1      -2.839  11.130  16.393  0.00  0.00    +0.000 C 
ATOM     25  C   UNL     1      -2.726   9.706  15.850  0.00  0.00    +0.000 C 
ATOM     26  C   UNL     1      -4.308  11.453  16.675  0.00  0.00    +0.000 C 
ENDBRANCH  21  24
ENDBRANCH  19  20
ENDBRANCH  18  19
ENDBRANCH   4  18
TORSDOF 8
ENDMDL
MODEL 7
REMARK VINA RESULT:      -7.0      0.719      1.156
REMARK  Name = 
REMARK  12 active torsions:
REMARK  status: ('A' for Active; 'I' for Inactive)
REMARK    1  A    between atoms: C_1  and  C_2
REMARK    2  A    between atoms: C_2  and  C_3
REMARK    3  A    between atoms: C_3  and  O_4
REMARK    4  A    between atoms: O_4  and  C_5
REMARK    5  A    between atoms: C_7  and  C_8
REMARK    6  A    between atoms: C_11  and  N_12
REMARK    7  A    between atoms: N_15  and  C_16
REMARK    8  A    between atoms: C_16  and  C_17
REMARK    9  A    between atoms: C_17  and  N_18
REMARK   10  A    between atoms: C_19  and  C_21
REMARK   11  A    between atoms: C_21  and  C_22
REMARK   12  A    between atoms: C_21  and  C_23
REMARK                            x       y       z     vdW  Elec       q    Type
REMARK                         _______ _______ _______ _____ _____    ______ ____
ROOT
ATOM      1  N   UNL     1       3.285   6.080  17.363  0.00  0.00    +0.000 N 
ATOM      2  C   UNL     1       4.593   6.219  16.922  0.00  0.00    +0.000 C 
ATOM      3  O   UNL     1       5.423   7.026  17.332  0.00  0.00    +0.000 OA
ATOM      4  N   UNL     1       4.960   5.328  15.936  0.00  0.00    +0.000 N 
ATOM      5  H   UNL     1       2.735   5.302  17.029  0.00  0.00    +0.000 HD
ATOM      6  H   UNL     1       4.232   4.902  15.381  0.00  0.00    +0.000 HD
ENDROOT
BRANCH   1  13
ATOM      7  C   UNL     1       2.430   6.465  19.672  0.00  0.00    +0.000 A 
ATOM      8  C   UNL     1       1.771   7.332  20.577  0.00  0.00    +0.000 A 
ATOM      9  C   UNL     1       1.349   8.614  20.223  0.00  0.00    +0.000 A 
ATOM     10  C   UNL     1       0.681   9.505  21.224  0.00  0.00    +0.000 C 
ATOM     11  C   UNL     1       1.571   9.044  18.927  0.00  0.00    +0.000 A 
ATOM     12  C   UNL     1       2.197   8.201  18.008  0.00  0.00    +0.000 A 
ATOM     13  C   UNL     1       2.644   6.907  18.342  0.00  0.00    +0.000 A 
BRANCH   7  14
ATOM     14  O   UNL     1       2.872   5.204  20.068  0.00  0.00    +0.000 OA
BRANCH  14  15
ATOM     15  C   UNL     1       2.011   4.131  19.623  0.00  0.00    +0.000 C 
BRANCH  15  17
ATOM     16  C   UNL     1       1.916   2.756  21.708  0.00  0.00    +0.000 C 
ATOM     17  C   UNL     1       1.095   3.568  20.704  0.00  0.00    +0.000 C 
ENDBRANCH  15  17
ENDBRANCH  14  15
ENDBRANCH   7  14
ENDBRANCH   1  13
BRANCH   4  18
ATOM     18  C   UNL     1       6.292   5.451  15.328  0.00  0.00    +0.000 C 
BRANCH  18  19
ATOM     19  C   UNL     1       6.894   4.104  14.887  0.00  0.00    +0.000 C 
BRANCH  19  20
ATOM     20  N   UNL     1       6.185   3.495  13.764  0.00  0.00    +0.000 N 
ATOM     21  C   UNL     1       6.548   3.736  12.459  0.00  0.00    +0.000 C 
ATOM     22  O   UNL     1       7.504   4.453  12.171  0.00  0.00    +0.000 OA
ATOM     23  H   UNL     1       5.465   2.815  13.970  0.00  0.00    +0.000 HD
BRANCH  21  24
ATOM     24  C   UNL     1       5.706   3.005  11.404  0.00  0.00    +0.000 C 
ATOM     25  C   UNL     1       5.917   1.491  11.433  0.00  0.00    +0.000 C 
ATOM     26  C   UNL     1       4.221   3.318  11.595  0.00  0.00    +0.000 C 
ENDBRANCH  21  24
ENDBRANCH  19  20
ENDBRANCH  18  19
ENDBRANCH   4  18
TORSDOF 8
ENDMDL
MODEL 8
REMARK VINA RESULT:      -7.0      2.890      4.990
REMARK  Name = 
REMARK  12 active torsions:
REMARK  status: ('A' for Active; 'I' for Inactive)
REMARK    1  A    between atoms: C_1  and  C_2
REMARK    2  A    between atoms: C_2  and  C_3
REMARK    3  A    between atoms: C_3  and  O_4
REMARK    4  A    between atoms: O_4  and  C_5
REMARK    5  A    between atoms: C_7  and  C_8
REMARK    6  A    between atoms: C_11  and  N_12
REMARK    7  A    between atoms: N_15  and  C_16
REMARK    8  A    between atoms: C_16  and  C_17
REMARK    9  A    between atoms: C_17  and  N_18
REMARK   10  A    between atoms: C_19  and  C_21
REMARK   11  A    between atoms: C_21  and  C_22
REMARK   12  A    between atoms: C_21  and  C_23
REMARK                            x       y       z     vdW  Elec       q    Type
REMARK                         _______ _______ _______ _____ _____    ______ ____
ROOT
ATOM      1  N   UNL     1       2.406   6.452  20.279  0.00  0.00    +0.000 N 
ATOM      2  C   UNL     1       2.372   5.263  19.566  0.00  0.00    +0.000 C 
ATOM      3  O   UNL     1       2.017   5.117  18.399  0.00  0.00    +0.000 OA
ATOM      4  N   UNL     1       2.804   4.161  20.274  0.00  0.00    +0.000 N 
ATOM      5  H   UNL     1       2.827   6.463  21.196  0.00  0.00    +0.000 HD
ATOM      6  H   UNL     1       2.783   4.203  21.282  0.00  0.00    +0.000 HD
ENDROOT
BRANCH   1  13
ATOM      7  C   UNL     1       1.273   8.646  20.619  0.00  0.00    +0.000 A 
ATOM      8  C   UNL     1       0.855   9.879  20.059  0.00  0.00    +0.000 A 
ATOM      9  C   UNL     1       1.122  10.238  18.738  0.00  0.00    +0.000 A 
ATOM     10  C   UNL     1       0.683  11.565  18.201  0.00  0.00    +0.000 C 
ATOM     11  C   UNL     1       1.811   9.342  17.940  0.00  0.00    +0.000 A 
ATOM     12  C   UNL     1       2.214   8.111  18.458  0.00  0.00    +0.000 A 
ATOM     13  C   UNL     1       1.968   7.727  19.792  0.00  0.00    +0.000 A 
BRANCH   7  14
ATOM     14  O   UNL     1       1.022   8.333  21.952  0.00  0.00    +0.000 OA
BRANCH  14  15
ATOM     15  C   UNL     1       0.794   9.497  22.780  0.00  0.00    +0.000 C 
BRANCH  15  17
ATOM     16  C   UNL     1      -1.131  11.082  22.954  0.00  0.00    +0.000 C 
ATOM     17  C   UNL     1      -0.645   9.662  23.254  0.00  0.00    +0.000 C 
ENDBRANCH  15  17
ENDBRANCH  14  15
ENDBRANCH   7  14
ENDBRANCH   1  13
BRANCH   4  18
ATOM     18  C   UNL     1       2.716   2.835  19.648  0.00  0.00    +0.000 C 
BRANCH  18  19
ATOM     19  C   UNL     1       4.066   2.310  19.125  0.00  0.00    +0.000 C 
BRANCH  19  20
ATOM     20  N   UNL     1       4.577   3.067  17.985  0.00  0.00    +0.000 N 
ATOM     21  C   UNL     1       5.433   4.132  18.143  0.00  0.00    +0.000 C 
ATOM     22  O   UNL     1       5.834   4.484  19.251  0.00  0.00    +0.000 OA
ATOM     23  H   UNL     1       4.353   2.734  17.056  0.00  0.00    +0.000 HD
BRANCH  21  24
ATOM     24  C   UNL     1       5.883   4.806  16.840  0.00  0.00    +0.000 C 
ATOM     25  C   UNL     1       5.803   3.866  15.637  0.00  0.00    +0.000 C 
ATOM     26  C   UNL     1       5.044   6.056  16.568  0.00  0.00    +0.000 C 
ENDBRANCH  21  24
ENDBRANCH  19  20
ENDBRANCH  18  19
ENDBRANCH   4  18
TORSDOF 8
ENDMDL
MODEL 9
REMARK VINA RESULT:      -6.9      4.514      7.048
REMARK  Name = 
REMARK  12 active torsions:
REMARK  status: ('A' for Active; 'I' for Inactive)
REMARK    1  A    between atoms: C_1  and  C_2
REMARK    2  A    between atoms: C_2  and  C_3
REMARK    3  A    between atoms: C_3  and  O_4
REMARK    4  A    between atoms: O_4  and  C_5
REMARK    5  A    between atoms: C_7  and  C_8
REMARK    6  A    between atoms: C_11  and  N_12
REMARK    7  A    between atoms: N_15  and  C_16
REMARK    8  A    between atoms: C_16  and  C_17
REMARK    9  A    between atoms: C_17  and  N_18
REMARK   10  A    between atoms: C_19  and  C_21
REMARK   11  A    between atoms: C_21  and  C_22
REMARK   12  A    between atoms: C_21  and  C_23
REMARK                            x       y       z     vdW  Elec       q    Type
REMARK                         _______ _______ _______ _____ _____    ______ ____
ROOT
ATOM      1  N   UNL     1       4.769   6.249  16.977  0.00  0.00    +0.000 N 
ATOM      2  C   UNL     1       5.958   6.541  17.629  0.00  0.00    +0.000 C 
ATOM      3  O   UNL     1       6.377   6.019  18.659  0.00  0.00    +0.000 OA
ATOM      4  N   UNL     1       6.724   7.509  17.014  0.00  0.00    +0.000 N 
ATOM      5  H   UNL     1       4.590   6.664  16.074  0.00  0.00    +0.000 HD
ATOM      6  H   UNL     1       6.266   8.151  16.385  0.00  0.00    +0.000 HD
ENDROOT
BRANCH   1  13
ATOM      7  C   UNL     1       2.683   5.727  18.237  0.00  0.00    +0.000 A 
ATOM      8  C   UNL     1       1.754   4.746  18.662  0.00  0.00    +0.000 A 
ATOM      9  C   UNL     1       1.854   3.403  18.300  0.00  0.00    +0.000 A 
ATOM     10  C   UNL     1       0.830   2.408  18.753  0.00  0.00    +0.000 C 
ATOM     11  C   UNL     1       2.916   3.015  17.503  0.00  0.00    +0.000 A 
ATOM     12  C   UNL     1       3.860   3.956  17.089  0.00  0.00    +0.000 A 
ATOM     13  C   UNL     1       3.776   5.320  17.431  0.00  0.00    +0.000 A 
BRANCH   7  14
ATOM     14  O   UNL     1       2.534   7.067  18.587  0.00  0.00    +0.000 OA
BRANCH  14  15
ATOM     15  C   UNL     1       2.089   7.255  19.949  0.00  0.00    +0.000 C 
BRANCH  15  17
ATOM     16  C   UNL     1       0.689   8.551  21.565  0.00  0.00    +0.000 C 
ATOM     17  C   UNL     1       1.395   8.588  20.208  0.00  0.00    +0.000 C 
ENDBRANCH  15  17
ENDBRANCH  14  15
ENDBRANCH   7  14
ENDBRANCH   1  13
BRANCH   4  18
ATOM     18  C   UNL     1       7.956   7.964  17.672  0.00  0.00    +0.000 C 
BRANCH  18  19
ATOM     19  C   UNL     1       7.967   9.474  17.980  0.00  0.00    +0.000 C 
BRANCH  19  20
ATOM     20  N   UNL     1       9.303   9.996  18.257  0.00  0.00    +0.000 N 
ATOM     21  C   UNL     1       9.604  11.331  18.123  0.00  0.00    +0.000 C 
ATOM     22  O   UNL     1       8.757  12.158  17.790  0.00  0.00    +0.000 OA
ATOM     23  H   UNL     1       9.991   9.359  18.638  0.00  0.00    +0.000 HD
BRANCH  21  24
ATOM     24  C   UNL     1      11.050  11.712  18.468  0.00  0.00    +0.000 C 
ATOM     25  C   UNL     1      11.510  12.980  17.748  0.00  0.00    +0.000 C 
ATOM     26  C   UNL     1      11.207  11.897  19.979  0.00  0.00    +0.000 C 
ENDBRANCH  21  24
ENDBRANCH  19  20
ENDBRANCH  18  19
ENDBRANCH   4  18
TORSDOF 8
ENDMDL
