MODEL 1
REMARK VINA RESULT:      -8.6      0.000      0.000
REMARK  Name = 
REMARK  17 active torsions:
REMARK  status: ('A' for Active; 'I' for Inactive)
REMARK    1  A    between atoms: C_1  and  O_2
REMARK    2  A    between atoms: O_2  and  C_3
REMARK    3  A    between atoms: C_5  and  O_6
REMARK    4  A    between atoms: C_7  and  C_8
REMARK    5  A    between atoms: C_8  and  C_9
REMARK    6  A    between atoms: C_10  and  C_11
REMARK    7  A    between atoms: C_10  and  C_12
REMARK    8  A    between atoms: C_13  and  C_14
REMARK    9  A    between atoms: C_19  and  O_20
REMARK   10  A    between atoms: C_21  and  C_22
REMARK   11  A    between atoms: C_22  and  C_23
REMARK   12  A    between atoms: C_24  and  C_25
REMARK   13  A    between atoms: C_24  and  C_26
REMARK   14  A    between atoms: C_26  and  C_27
REMARK   15  A    between atoms: C_27  and  C_28
REMARK   16  A    between atoms: C_29  and  C_30
REMARK   17  A    between atoms: C_29  and  C_31
REMARK                            x       y       z     vdW  Elec       q    Type
REMARK                         _______ _______ _______ _____ _____    ______ ____
ROOT
ATOM      1  C   UNL     1       4.939   4.029  16.435  0.00  0.00    +0.000 A 
ATOM      2  C   UNL     1       4.948   3.061  17.406  0.00  0.00    +0.000 A 
ATOM      3  C   UNL     1       3.628   3.042  17.867  0.00  0.00    +0.000 A 
ATOM      4  C   UNL     1       2.746   2.068  18.344  0.00  0.00    +0.000 A 
ATOM      5  C   UNL     1       1.549   2.505  18.896  0.00  0.00    +0.000 A 
ATOM      6  C   UNL     1       1.396   3.858  19.220  0.00  0.00    +0.000 A 
ATOM      7  C   UNL     1       2.324   4.870  18.831  0.00  0.00    +0.000 A 
ATOM      8  C   UNL     1       3.295   4.389  17.922  0.00  0.00    +0.000 A 
ATOM      9  O   UNL     1       4.063   5.019  16.935  0.00  0.00    +0.000 OA
ENDROOT
BRANCH   1  14
ATOM     10  C   UNL     1       5.669   3.407  12.755  0.00  0.00    +0.000 A 
ATOM     11  C   UNL     1       6.725   4.262  12.481  0.00  0.00    +0.000 A 
ATOM     12  C   UNL     1       7.265   5.024  13.503  0.00  0.00    +0.000 A 
ATOM     13  C   UNL     1       6.755   4.998  14.831  0.00  0.00    +0.000 A 
ATOM     14  C   UNL     1       5.610   4.173  15.109  0.00  0.00    +0.000 A 
ATOM     15  C   UNL     1       5.146   3.345  14.058  0.00  0.00    +0.000 A 
BRANCH  10  17
ATOM     16  C   UNL     1       6.035   1.551  11.326  0.00  0.00    +0.000 C 
ATOM     17  O   UNL     1       5.249   2.683  11.674  0.00  0.00    +0.000 OA
ENDBRANCH  10  17
BRANCH  12  18
ATOM     18  O   UNL     1       8.322   5.856  13.211  0.00  0.00    +0.000 OA
ATOM     19  H   UNL     1       8.617   6.292  14.022  0.00  0.00    +0.000 HD
ENDBRANCH  12  18
BRANCH  13  20
ATOM     20  C   UNL     1       7.474   5.898  15.836  0.00  0.00    +0.000 C 
BRANCH  20  21
ATOM     21  C   UNL     1       7.374   5.501  17.302  0.00  0.00    +0.000 C 
ATOM     22  C   UNL     1       7.707   6.203  18.410  0.00  0.00    +0.000 C 
ATOM     23  C   UNL     1       8.171   7.628  18.443  0.00  0.00    +0.000 C 
ATOM     24  C   UNL     1       7.697   5.568  19.781  0.00  0.00    +0.000 C 
ENDBRANCH  20  21
ENDBRANCH  13  20
ENDBRANCH   1  14
BRANCH   6  25
ATOM     25  O   UNL     1       0.327   4.208  19.998  0.00  0.00    +0.000 OA
ATOM     26  H   UNL     1       0.630   4.698  20.783  0.00  0.00    +0.000 HD
ENDBRANCH   6  25
BRANCH   7  27
ATOM     27  C   UNL     1       2.501   6.089  19.743  0.00  0.00    +0.000 C 
BRANCH  27  28
ATOM     28  C   UNL     1       2.173   7.458  19.199  0.00  0.00    +0.000 C 
ATOM     29  C   UNL     1       1.504   8.465  19.820  0.00  0.00    +0.000 C 
ATOM     30  C   UNL     1       0.947   8.372  21.224  0.00  0.00    +0.000 C 
BRANCH  29  31
ATOM     31  C   UNL     1       1.197   9.819  19.163  0.00  0.00    +0.000 C 
BRANCH  31  32
ATOM     32  C   UNL     1      -0.288  10.162  19.030  0.00  0.00    +0.000 C 
BRANCH  32  33
ATOM     33  C   UNL     1      -0.936   9.842  17.696  0.00  0.00    +0.000 C 
ATOM     34  C   UNL     1      -2.070  10.434  17.282  0.00  0.00    +0.000 C 
ATOM     35  C   UNL     1      -2.804  11.484  18.065  0.00  0.00    +0.000 C 
ATOM     36  C   UNL     1      -2.713  10.082  15.959  0.00  0.00    +0.000 C 
ENDBRANCH  32  33
ENDBRANCH  31  32
ENDBRANCH  29  31
ENDBRANCH  27  28
ENDBRANCH   7  27
TORSDOF 11
ENDMDL
MODEL 2
REMARK VINA RESULT:      -8.5      2.928      6.537
REMARK  Name = 
REMARK  17 active torsions:
REMARK  status: ('A' for Active; 'I' for Inactive)
REMARK    1  A    between atoms: C_1  and  O_2
REMARK    2  A    between atoms: O_2  and  C_3
REMARK    3  A    between atoms: C_5  and  O_6
REMARK    4  A    between atoms: C_7  and  C_8
REMARK    5  A    between atoms: C_8  and  C_9
REMARK    6  A    between atoms: C_10  and  C_11
REMARK    7  A    between atoms: C_10  and  C_12
REMARK    8  A    between atoms: C_13  and  C_14
REMARK    9  A    between atoms: C_19  and  O_20
REMARK   10  A    between atoms: C_21  and  C_22
REMARK   11  A    between atoms: C_22  and  C_23
REMARK   12  A    between atoms: C_24  and  C_25
REMARK   13  A    between atoms: C_24  and  C_26
REMARK   14  A    between atoms: C_26  and  C_27
REMARK   15  A    between atoms: C_27  and  C_28
REMARK   16  A    between atoms: C_29  and  C_30
REMARK   17  A    between atoms: C_29  and  C_31
REMARK                            x       y       z     vdW  Elec       q    Type
REMARK                         _______ _______ _______ _____ _____    ______ ____
ROOT
ATOM      1  C   UNL     1       1.878   7.862  18.842  0.00  0.00    +0.000 A 
ATOM      2  C   UNL     1       1.799   8.644  17.718  0.00  0.00    +0.000 A 
ATOM      3  C   UNL     1       1.950   9.945  18.207  0.00  0.00    +0.000 A 
ATOM      4  C   UNL     1       2.532  11.129  17.744  0.00  0.00    +0.000 A 
ATOM      5  C   UNL     1       2.293  12.285  18.473  0.00  0.00    +0.000 A 
ATOM      6  C   UNL     1       1.278  12.292  19.437  0.00  0.00    +0.000 A 
ATOM      7  C   UNL     1       0.595  11.117  19.869  0.00  0.00    +0.000 A 
ATOM      8  C   UNL     1       1.190   9.935  19.368  0.00  0.00    +0.000 A 
ATOM      9  O   UNL     1       1.219   8.616  19.840  0.00  0.00    +0.000 OA
ENDROOT
BRANCH   1  14
ATOM     10  C   UNL     1       2.519   4.602  20.692  0.00  0.00    +0.000 A 
ATOM     11  C   UNL     1       3.479   3.969  19.918  0.00  0.00    +0.000 A 
ATOM     12  C   UNL     1       3.986   4.614  18.802  0.00  0.00    +0.000 A 
ATOM     13  C   UNL     1       3.532   5.897  18.386  0.00  0.00    +0.000 A 
ATOM     14  C   UNL     1       2.481   6.529  19.137  0.00  0.00    +0.000 A 
ATOM     15  C   UNL     1       2.055   5.875  20.318  0.00  0.00    +0.000 A 
BRANCH  10  17
ATOM     16  C   UNL     1       1.535   2.614  21.528  0.00  0.00    +0.000 C 
ATOM     17  O   UNL     1       2.126   3.881  21.784  0.00  0.00    +0.000 OA
ENDBRANCH  10  17
BRANCH  12  18
ATOM     18  O   UNL     1       4.949   3.973  18.057  0.00  0.00    +0.000 OA
ATOM     19  H   UNL     1       5.445   4.628  17.548  0.00  0.00    +0.000 HD
ENDBRANCH  12  18
BRANCH  13  20
ATOM     20  C   UNL     1       4.203   6.464  17.135  0.00  0.00    +0.000 C 
BRANCH  20  21
ATOM     21  C   UNL     1       5.423   7.348  17.355  0.00  0.00    +0.000 C 
ATOM     22  C   UNL     1       6.736   7.060  17.200  0.00  0.00    +0.000 C 
ATOM     23  C   UNL     1       7.298   5.782  16.655  0.00  0.00    +0.000 C 
ATOM     24  C   UNL     1       7.814   8.024  17.638  0.00  0.00    +0.000 C 
ENDBRANCH  20  21
ENDBRANCH  13  20
ENDBRANCH   1  14
BRANCH   6  25
ATOM     25  O   UNL     1       0.890  13.503  19.943  0.00  0.00    +0.000 OA
ATOM     26  H   UNL     1       0.472  13.384  20.814  0.00  0.00    +0.000 HD
ENDBRANCH   6  25
BRANCH   7  27
ATOM     27  C   UNL     1      -0.864  11.242  20.321  0.00  0.00    +0.000 C 
BRANCH  27  28
ATOM     28  C   UNL     1      -1.895  11.721  19.329  0.00  0.00    +0.000 C 
ATOM     29  C   UNL     1      -2.372  11.064  18.239  0.00  0.00    +0.000 C 
ATOM     30  C   UNL     1      -1.924   9.682  17.819  0.00  0.00    +0.000 C 
BRANCH  29  31
ATOM     31  C   UNL     1      -3.408  11.656  17.271  0.00  0.00    +0.000 C 
BRANCH  31  32
ATOM     32  C   UNL     1      -4.706  10.858  17.132  0.00  0.00    +0.000 C 
BRANCH  32  33
ATOM     33  C   UNL     1      -5.558  10.733  18.382  0.00  0.00    +0.000 C 
ATOM     34  C   UNL     1      -6.634  11.506  18.604  0.00  0.00    +0.000 C 
ATOM     35  C   UNL     1      -7.131  12.551  17.647  0.00  0.00    +0.000 C 
ATOM     36  C   UNL     1      -7.454  11.382  19.869  0.00  0.00    +0.000 C 
ENDBRANCH  32  33
ENDBRANCH  31  32
ENDBRANCH  29  31
ENDBRANCH  27  28
ENDBRANCH   7  27
TORSDOF 11
ENDMDL
MODEL 3
REMARK VINA RESULT:      -8.3      1.190      1.963
REMARK  Name = 
REMARK  17 active torsions:
REMARK  status: ('A' for Active; 'I' for Inactive)
REMARK    1  A    between atoms: C_1  and  O_2
REMARK    2  A    between atoms: O_2  and  C_3
REMARK    3  A    between atoms: C_5  and  O_6
REMARK    4  A    between atoms: C_7  and  C_8
REMARK    5  A    between atoms: C_8  and  C_9
REMARK    6  A    between atoms: C_10  and  C_11
REMARK    7  A    between atoms: C_10  and  C_12
REMARK    8  A    between atoms: C_13  and  C_14
REMARK    9  A    between atoms: C_19  and  O_20
REMARK   10  A    between atoms: C_21  and  C_22
REMARK   11  A    between atoms: C_22  and  C_23
REMARK   12  A    between atoms: C_24  and  C_25
REMARK   13  A    between atoms: C_24  and  C_26
REMARK   14  A    between atoms: C_26  and  C_27
REMARK   15  A    between atoms: C_27  and  C_28
REMARK   16  A    between atoms: C_29  and  C_30
REMARK   17  A    between atoms: C_29  and  C_31
REMARK                            x       y       z     vdW  Elec       q    Type
REMARK                         _______ _______ _______ _____ _____    ______ ____
ROOT
ATOM      1  C   UNL     1       4.879   3.962  16.475  0.00  0.00    +0.000 A 
ATOM      2  C   UNL     1       4.799   2.947  17.394  0.00  0.00    +0.000 A 
ATOM      3  C   UNL     1       3.485   3.030  17.866  0.00  0.00    +0.000 A 
ATOM      4  C   UNL     1       2.515   2.121  18.299  0.00  0.00    +0.000 A 
ATOM      5  C   UNL     1       1.369   2.640  18.884  0.00  0.00    +0.000 A 
ATOM      6  C   UNL     1       1.348   3.983  19.280  0.00  0.00    +0.000 A 
ATOM      7  C   UNL     1       2.366   4.920  18.936  0.00  0.00    +0.000 A 
ATOM      8  C   UNL     1       3.283   4.397  17.995  0.00  0.00    +0.000 A 
ATOM      9  O   UNL     1       4.105   5.003  17.034  0.00  0.00    +0.000 OA
ENDROOT
BRANCH   1  14
ATOM     10  C   UNL     1       5.631   3.346  12.799  0.00  0.00    +0.000 A 
ATOM     11  C   UNL     1       6.682   4.209  12.530  0.00  0.00    +0.000 A 
ATOM     12  C   UNL     1       7.212   4.975  13.555  0.00  0.00    +0.000 A 
ATOM     13  C   UNL     1       6.695   4.944  14.880  0.00  0.00    +0.000 A 
ATOM     14  C   UNL     1       5.556   4.111  15.153  0.00  0.00    +0.000 A 
ATOM     15  C   UNL     1       5.103   3.280  14.099  0.00  0.00    +0.000 A 
BRANCH  10  17
ATOM     16  C   UNL     1       6.153   1.679  11.196  0.00  0.00    +0.000 C 
ATOM     17  O   UNL     1       5.222   2.619  11.716  0.00  0.00    +0.000 OA
ENDBRANCH  10  17
BRANCH  12  18
ATOM     18  O   UNL     1       8.264   5.814  13.268  0.00  0.00    +0.000 OA
ATOM     19  H   UNL     1       8.780   5.962  14.072  0.00  0.00    +0.000 HD
ENDBRANCH  12  18
BRANCH  13  20
ATOM     20  C   UNL     1       7.403   5.850  15.889  0.00  0.00    +0.000 C 
BRANCH  20  21
ATOM     21  C   UNL     1       7.316   5.441  17.352  0.00  0.00    +0.000 C 
ATOM     22  C   UNL     1       7.673   6.127  18.463  0.00  0.00    +0.000 C 
ATOM     23  C   UNL     1       8.159   7.544  18.503  0.00  0.00    +0.000 C 
ATOM     24  C   UNL     1       7.672   5.479  19.827  0.00  0.00    +0.000 C 
ENDBRANCH  20  21
ENDBRANCH  13  20
ENDBRANCH   1  14
BRANCH   6  25
ATOM     25  O   UNL     1       0.320   4.391  20.086  0.00  0.00    +0.000 OA
ATOM     26  H   UNL     1       0.349   3.913  20.933  0.00  0.00    +0.000 HD
ENDBRANCH   6  25
BRANCH   7  27
ATOM     27  C   UNL     1       2.664   6.067  19.909  0.00  0.00    +0.000 C 
BRANCH  27  28
ATOM     28  C   UNL     1       1.933   7.375  19.736  0.00  0.00    +0.000 C 
ATOM     29  C   UNL     1       2.103   8.305  18.760  0.00  0.00    +0.000 C 
ATOM     30  C   UNL     1       3.106   8.176  17.634  0.00  0.00    +0.000 C 
BRANCH  29  31
ATOM     31  C   UNL     1       1.321   9.625  18.690  0.00  0.00    +0.000 C 
BRANCH  31  32
ATOM     32  C   UNL     1      -0.078   9.591  19.308  0.00  0.00    +0.000 C 
BRANCH  32  33
ATOM     33  C   UNL     1      -0.384  10.659  20.342  0.00  0.00    +0.000 C 
ATOM     34  C   UNL     1      -0.468  10.391  21.656  0.00  0.00    +0.000 C 
ATOM     35  C   UNL     1      -0.246   9.031  22.253  0.00  0.00    +0.000 C 
ATOM     36  C   UNL     1      -0.799  11.466  22.667  0.00  0.00    +0.000 C 
ENDBRANCH  32  33
ENDBRANCH  31  32
ENDBRANCH  29  31
ENDBRANCH  27  28
ENDBRANCH   7  27
TORSDOF 11
ENDMDL
MODEL 4
REMARK VINA RESULT:      -8.2      3.066      8.650
REMARK  Name = 
REMARK  17 active torsions:
REMARK  status: ('A' for Active; 'I' for Inactive)
REMARK    1  A    between atoms: C_1  and  O_2
REMARK    2  A    between atoms: O_2  and  C_3
REMARK    3  A    between atoms: C_5  and  O_6
REMARK    4  A    between atoms: C_7  and  C_8
REMARK    5  A    between atoms: C_8  and  C_9
REMARK    6  A    between atoms: C_10  and  C_11
REMARK    7  A    between atoms: C_10  and  C_12
REMARK    8  A    between atoms: C_13  and  C_14
REMARK    9  A    between atoms: C_19  and  O_20
REMARK   10  A    between atoms: C_21  and  C_22
REMARK   11  A    between atoms: C_22  and  C_23
REMARK   12  A    between atoms: C_24  and  C_25
REMARK   13  A    between atoms: C_24  and  C_26
REMARK   14  A    between atoms: C_26  and  C_27
REMARK   15  A    between atoms: C_27  and  C_28
REMARK   16  A    between atoms: C_29  and  C_30
REMARK   17  A    between atoms: C_29  and  C_31
REMARK                            x       y       z     vdW  Elec       q    Type
REMARK                         _______ _______ _______ _____ _____    ______ ____
ROOT
ATOM      1  C   UNL     1       2.785   7.474  18.303  0.00  0.00    +0.000 A 
ATOM      2  C   UNL     1       2.646   6.534  17.314  0.00  0.00    +0.000 A 
ATOM      3  C   UNL     1       3.638   5.594  17.607  0.00  0.00    +0.000 A 
ATOM      4  C   UNL     1       3.771   4.206  17.492  0.00  0.00    +0.000 A 
ATOM      5  C   UNL     1       5.027   3.664  17.727  0.00  0.00    +0.000 A 
ATOM      6  C   UNL     1       6.142   4.509  17.775  0.00  0.00    +0.000 A 
ATOM      7  C   UNL     1       6.050   5.932  17.800  0.00  0.00    +0.000 A 
ATOM      8  C   UNL     1       4.721   6.382  17.973  0.00  0.00    +0.000 A 
ATOM      9  O   UNL     1       4.180   7.556  18.513  0.00  0.00    +0.000 OA
ENDROOT
BRANCH   1  14
ATOM     10  C   UNL     1       0.636  10.467  19.239  0.00  0.00    +0.000 A 
ATOM     11  C   UNL     1       0.015  10.071  20.414  0.00  0.00    +0.000 A 
ATOM     12  C   UNL     1       0.324   8.838  20.963  0.00  0.00    +0.000 A 
ATOM     13  C   UNL     1       1.232   7.931  20.349  0.00  0.00    +0.000 A 
ATOM     14  C   UNL     1       1.823   8.299  19.091  0.00  0.00    +0.000 A 
ATOM     15  C   UNL     1       1.548   9.603  18.611  0.00  0.00    +0.000 A 
BRANCH  10  17
ATOM     16  C   UNL     1      -1.053  11.866  18.338  0.00  0.00    +0.000 C 
ATOM     17  O   UNL     1       0.276  11.717  18.819  0.00  0.00    +0.000 OA
ENDBRANCH  10  17
BRANCH  12  18
ATOM     18  O   UNL     1      -0.294   8.471  22.137  0.00  0.00    +0.000 OA
ATOM     19  H   UNL     1      -0.442   7.516  22.133  0.00  0.00    +0.000 HD
ENDBRANCH  12  18
BRANCH  13  20
ATOM     20  C   UNL     1       1.462   6.616  21.094  0.00  0.00    +0.000 C 
BRANCH  20  21
ATOM     21  C   UNL     1       0.990   5.347  20.400  0.00  0.00    +0.000 C 
ATOM     22  C   UNL     1       1.347   4.060  20.619  0.00  0.00    +0.000 C 
ATOM     23  C   UNL     1       2.248   3.571  21.712  0.00  0.00    +0.000 C 
ATOM     24  C   UNL     1       0.894   2.947  19.703  0.00  0.00    +0.000 C 
ENDBRANCH  20  21
ENDBRANCH  13  20
ENDBRANCH   1  14
BRANCH   6  25
ATOM     25  O   UNL     1       7.381   3.929  17.738  0.00  0.00    +0.000 OA
ATOM     26  H   UNL     1       7.718   3.915  16.825  0.00  0.00    +0.000 HD
ENDBRANCH   6  25
BRANCH   7  27
ATOM     27  C   UNL     1       7.179   6.750  17.161  0.00  0.00    +0.000 C 
BRANCH  27  28
ATOM     28  C   UNL     1       8.110   7.528  18.057  0.00  0.00    +0.000 C 
ATOM     29  C   UNL     1       8.233   8.877  18.162  0.00  0.00    +0.000 C 
ATOM     30  C   UNL     1       7.421   9.868  17.357  0.00  0.00    +0.000 C 
BRANCH  29  31
ATOM     31  C   UNL     1       9.238   9.574  19.092  0.00  0.00    +0.000 C 
BRANCH  31  32
ATOM     32  C   UNL     1       9.335  11.092  18.934  0.00  0.00    +0.000 C 
BRANCH  32  33
ATOM     33  C   UNL     1      10.447  11.606  18.038  0.00  0.00    +0.000 C 
ATOM     34  C   UNL     1      10.465  12.860  17.554  0.00  0.00    +0.000 C 
ATOM     35  C   UNL     1       9.418  13.893  17.856  0.00  0.00    +0.000 C 
ATOM     36  C   UNL     1      11.570  13.344  16.641  0.00  0.00    +0.000 C 
ENDBRANCH  32  33
ENDBRANCH  31  32
ENDBRANCH  29  31
ENDBRANCH  27  28
ENDBRANCH   7  27
TORSDOF 11
ENDMDL
MODEL 5
REMARK VINA RESULT:      -8.0      1.093      1.661
REMARK  Name = 
REMARK  17 active torsions:
REMARK  status: ('A' for Active; 'I' for Inactive)
REMARK    1  A    between atoms: C_1  and  O_2
REMARK    2  A    between atoms: O_2  and  C_3
REMARK    3  A    between atoms: C_5  and  O_6
REMARK    4  A    between atoms: C_7  and  C_8
REMARK    5  A    between atoms: C_8  and  C_9
REMARK    6  A    between atoms: C_10  and  C_11
REMARK    7  A    between atoms: C_10  and  C_12
REMARK    8  A    between atoms: C_13  and  C_14
REMARK    9  A    between atoms: C_19  and  O_20
REMARK   10  A    between atoms: C_21  and  C_22
REMARK   11  A    between atoms: C_22  and  C_23
REMARK   12  A    between atoms: C_24  and  C_25
REMARK   13  A    between atoms: C_24  and  C_26
REMARK   14  A    between atoms: C_26  and  C_27
REMARK   15  A    between atoms: C_27  and  C_28
REMARK   16  A    between atoms: C_29  and  C_30
REMARK   17  A    between atoms: C_29  and  C_31
REMARK                            x       y       z     vdW  Elec       q    Type
REMARK                         _______ _______ _______ _____ _____    ______ ____
ROOT
ATOM      1  C   UNL     1       4.967   3.969  16.387  0.00  0.00    +0.000 A 
ATOM      2  C   UNL     1       4.988   2.996  17.354  0.00  0.00    +0.000 A 
ATOM      3  C   UNL     1       3.669   2.956  17.814  0.00  0.00    +0.000 A 
ATOM      4  C   UNL     1       2.799   1.968  18.285  0.00  0.00    +0.000 A 
ATOM      5  C   UNL     1       1.597   2.385  18.838  0.00  0.00    +0.000 A 
ATOM      6  C   UNL     1       1.425   3.734  19.168  0.00  0.00    +0.000 A 
ATOM      7  C   UNL     1       2.338   4.761  18.785  0.00  0.00    +0.000 A 
ATOM      8  C   UNL     1       3.316   4.298  17.875  0.00  0.00    +0.000 A 
ATOM      9  O   UNL     1       4.077   4.944  16.891  0.00  0.00    +0.000 OA
ENDROOT
BRANCH   1  14
ATOM     10  C   UNL     1       5.722   3.360  12.710  0.00  0.00    +0.000 A 
ATOM     11  C   UNL     1       6.755   4.244  12.437  0.00  0.00    +0.000 A 
ATOM     12  C   UNL     1       7.271   5.022  13.459  0.00  0.00    +0.000 A 
ATOM     13  C   UNL     1       6.759   4.984  14.786  0.00  0.00    +0.000 A 
ATOM     14  C   UNL     1       5.637   4.129  15.063  0.00  0.00    +0.000 A 
ATOM     15  C   UNL     1       5.198   3.287  14.012  0.00  0.00    +0.000 A 
BRANCH  10  17
ATOM     16  C   UNL     1       6.030   1.412  11.396  0.00  0.00    +0.000 C 
ATOM     17  O   UNL     1       5.325   2.623  11.630  0.00  0.00    +0.000 OA
ENDBRANCH  10  17
BRANCH  12  18
ATOM     18  O   UNL     1       8.306   5.882  13.168  0.00  0.00    +0.000 OA
ATOM     19  H   UNL     1       8.840   6.017  13.962  0.00  0.00    +0.000 HD
ENDBRANCH  12  18
BRANCH  13  20
ATOM     20  C   UNL     1       7.451   5.906  15.791  0.00  0.00    +0.000 C 
BRANCH  20  21
ATOM     21  C   UNL     1       7.366   5.504  17.256  0.00  0.00    +0.000 C 
ATOM     22  C   UNL     1       7.689   6.210  18.364  0.00  0.00    +0.000 C 
ATOM     23  C   UNL     1       8.124   7.644  18.398  0.00  0.00    +0.000 C 
ATOM     24  C   UNL     1       7.699   5.572  19.734  0.00  0.00    +0.000 C 
ENDBRANCH  20  21
ENDBRANCH  13  20
ENDBRANCH   1  14
BRANCH   6  25
ATOM     25  O   UNL     1       0.350   4.065  19.948  0.00  0.00    +0.000 OA
ATOM     26  H   UNL     1      -0.060   3.261  20.313  0.00  0.00    +0.000 HD
ENDBRANCH   6  25
BRANCH   7  27
ATOM     27  C   UNL     1       2.497   5.978  19.703  0.00  0.00    +0.000 C 
BRANCH  27  28
ATOM     28  C   UNL     1       1.914   7.299  19.267  0.00  0.00    +0.000 C 
ATOM     29  C   UNL     1       2.387   8.149  18.318  0.00  0.00    +0.000 C 
ATOM     30  C   UNL     1       3.640   7.899  17.507  0.00  0.00    +0.000 C 
BRANCH  29  31
ATOM     31  C   UNL     1       1.728   9.491  17.967  0.00  0.00    +0.000 C 
BRANCH  31  32
ATOM     32  C   UNL     1       0.362   9.739  18.610  0.00  0.00    +0.000 C 
BRANCH  32  33
ATOM     33  C   UNL     1      -0.140  11.171  18.595  0.00  0.00    +0.000 C 
ATOM     34  C   UNL     1       0.076  12.023  19.611  0.00  0.00    +0.000 C 
ATOM     35  C   UNL     1       0.849  11.676  20.851  0.00  0.00    +0.000 C 
ATOM     36  C   UNL     1      -0.455  13.439  19.587  0.00  0.00    +0.000 C 
ENDBRANCH  32  33
ENDBRANCH  31  32
ENDBRANCH  29  31
ENDBRANCH  27  28
ENDBRANCH   7  27
TORSDOF 11
ENDMDL
MODEL 6
REMARK VINA RESULT:      -8.0      1.423      2.060
REMARK  Name = 
REMARK  17 active torsions:
REMARK  status: ('A' for Active; 'I' for Inactive)
REMARK    1  A    between atoms: C_1  and  O_2
REMARK    2  A    between atoms: O_2  and  C_3
REMARK    3  A    between atoms: C_5  and  O_6
REMARK    4  A    between atoms: C_7  and  C_8
REMARK    5  A    between atoms: C_8  and  C_9
REMARK    6  A    between atoms: C_10  and  C_11
REMARK    7  A    between atoms: C_10  and  C_12
REMARK    8  A    between atoms: C_13  and  C_14
REMARK    9  A    between atoms: C_19  and  O_20
REMARK   10  A    between atoms: C_21  and  C_22
REMARK   11  A    between atoms: C_22  and  C_23
REMARK   12  A    between atoms: C_24  and  C_25
REMARK   13  A    between atoms: C_24  and  C_26
REMARK   14  A    between atoms: C_26  and  C_27
REMARK   15  A    between atoms: C_27  and  C_28
REMARK   16  A    between atoms: C_29  and  C_30
REMARK   17  A    between atoms: C_29  and  C_31
REMARK                            x       y       z     vdW  Elec       q    Type
REMARK                         _______ _______ _______ _____ _____    ______ ____
ROOT
ATOM      1  C   UNL     1       5.004   4.114  16.429  0.00  0.00    +0.000 A 
ATOM      2  C   UNL     1       5.137   3.262  17.496  0.00  0.00    +0.000 A 
ATOM      3  C   UNL     1       3.827   3.098  17.954  0.00  0.00    +0.000 A 
ATOM      4  C   UNL     1       3.087   2.059  18.527  0.00  0.00    +0.000 A 
ATOM      5  C   UNL     1       1.831   2.371  19.029  0.00  0.00    +0.000 A 
ATOM      6  C   UNL     1       1.478   3.713  19.211  0.00  0.00    +0.000 A 
ATOM      7  C   UNL     1       2.254   4.804  18.721  0.00  0.00    +0.000 A 
ATOM      8  C   UNL     1       3.300   4.380  17.869  0.00  0.00    +0.000 A 
ATOM      9  O   UNL     1       3.986   5.012  16.823  0.00  0.00    +0.000 OA
ENDROOT
BRANCH   1  14
ATOM     10  C   UNL     1       5.702   3.401  12.760  0.00  0.00    +0.000 A 
ATOM     11  C   UNL     1       6.770   4.232  12.461  0.00  0.00    +0.000 A 
ATOM     12  C   UNL     1       7.328   5.007  13.464  0.00  0.00    +0.000 A 
ATOM     13  C   UNL     1       6.826   5.018  14.794  0.00  0.00    +0.000 A 
ATOM     14  C   UNL     1       5.670   4.219  15.097  0.00  0.00    +0.000 A 
ATOM     15  C   UNL     1       5.186   3.376  14.067  0.00  0.00    +0.000 A 
BRANCH  10  17
ATOM     16  C   UNL     1       4.024   3.050  11.122  0.00  0.00    +0.000 C 
ATOM     17  O   UNL     1       5.264   2.661  11.698  0.00  0.00    +0.000 OA
ENDBRANCH  10  17
BRANCH  12  18
ATOM     18  O   UNL     1       8.397   5.815  13.148  0.00  0.00    +0.000 OA
ATOM     19  H   UNL     1       8.139   6.421  12.440  0.00  0.00    +0.000 HD
ENDBRANCH  12  18
BRANCH  13  20
ATOM     20  C   UNL     1       7.565   5.928  15.776  0.00  0.00    +0.000 C 
BRANCH  20  21
ATOM     21  C   UNL     1       7.459   5.571  17.251  0.00  0.00    +0.000 C 
ATOM     22  C   UNL     1       7.740   6.321  18.343  0.00  0.00    +0.000 C 
ATOM     23  C   UNL     1       8.137   7.766  18.339  0.00  0.00    +0.000 C 
ATOM     24  C   UNL     1       7.736   5.727  19.732  0.00  0.00    +0.000 C 
ENDBRANCH  20  21
ENDBRANCH  13  20
ENDBRANCH   1  14
BRANCH   6  25
ATOM     25  O   UNL     1       0.356   3.980  19.947  0.00  0.00    +0.000 OA
ATOM     26  H   UNL     1      -0.239   3.209  19.945  0.00  0.00    +0.000 HD
ENDBRANCH   6  25
BRANCH   7  27
ATOM     27  C   UNL     1       2.237   6.123  19.502  0.00  0.00    +0.000 C 
BRANCH  27  28
ATOM     28  C   UNL     1       2.253   7.422  18.736  0.00  0.00    +0.000 C 
ATOM     29  C   UNL     1       1.722   8.617  19.106  0.00  0.00    +0.000 C 
ATOM     30  C   UNL     1       0.988   8.850  20.409  0.00  0.00    +0.000 C 
BRANCH  29  31
ATOM     31  C   UNL     1       1.770   9.881  18.234  0.00  0.00    +0.000 C 
BRANCH  31  32
ATOM     32  C   UNL     1       1.013  11.089  18.789  0.00  0.00    +0.000 C 
BRANCH  32  33
ATOM     33  C   UNL     1       1.841  12.328  19.077  0.00  0.00    +0.000 C 
ATOM     34  C   UNL     1       1.606  13.126  20.133  0.00  0.00    +0.000 C 
ATOM     35  C   UNL     1       0.531  12.878  21.151  0.00  0.00    +0.000 C 
ATOM     36  C   UNL     1       2.427  14.370  20.387  0.00  0.00    +0.000 C 
ENDBRANCH  32  33
ENDBRANCH  31  32
ENDBRANCH  29  31
ENDBRANCH  27  28
ENDBRANCH   7  27
TORSDOF 11
ENDMDL
MODEL 7
REMARK VINA RESULT:      -7.9      2.859      6.279
REMARK  Name = 
REMARK  17 active torsions:
REMARK  status: ('A' for Active; 'I' for Inactive)
REMARK    1  A    between atoms: C_1  and  O_2
REMARK    2  A    between atoms: O_2  and  C_3
REMARK    3  A    between atoms: C_5  and  O_6
REMARK    4  A    between atoms: C_7  and  C_8
REMARK    5  A    between atoms: C_8  and  C_9
REMARK    6  A    between atoms: C_10  and  C_11
REMARK    7  A    between atoms: C_10  and  C_12
REMARK    8  A    between atoms: C_13  and  C_14
REMARK    9  A    between atoms: C_19  and  O_20
REMARK   10  A    between atoms: C_21  and  C_22
REMARK   11  A    between atoms: C_22  and  C_23
REMARK   12  A    between atoms: C_24  and  C_25
REMARK   13  A    between atoms: C_24  and  C_26
REMARK   14  A    between atoms: C_26  and  C_27
REMARK   15  A    between atoms: C_27  and  C_28
REMARK   16  A    between atoms: C_29  and  C_30
REMARK   17  A    between atoms: C_29  and  C_31
REMARK                            x       y       z     vdW  Elec       q    Type
REMARK                         _______ _______ _______ _____ _____    ______ ____
ROOT
ATOM      1  C   UNL     1       2.614   7.814  17.936  0.00  0.00    +0.000 A 
ATOM      2  C   UNL     1       2.306   8.850  17.091  0.00  0.00    +0.000 A 
ATOM      3  C   UNL     1       2.198   9.953  17.944  0.00  0.00    +0.000 A 
ATOM      4  C   UNL     1       2.484  11.319  17.858  0.00  0.00    +0.000 A 
ATOM      5  C   UNL     1       2.040  12.130  18.893  0.00  0.00    +0.000 A 
ATOM      6  C   UNL     1       1.102  11.631  19.803  0.00  0.00    +0.000 A 
ATOM      7  C   UNL     1       0.714  10.259  19.861  0.00  0.00    +0.000 A 
ATOM      8  C   UNL     1       1.523   9.437  19.041  0.00  0.00    +0.000 A 
ATOM      9  O   UNL     1       1.863   8.079  19.103  0.00  0.00    +0.000 OA
ENDROOT
BRANCH   1  14
ATOM     10  C   UNL     1       5.840   5.833  17.574  0.00  0.00    +0.000 A 
ATOM     11  C   UNL     1       5.419   4.513  17.610  0.00  0.00    +0.000 A 
ATOM     12  C   UNL     1       4.066   4.233  17.696  0.00  0.00    +0.000 A 
ATOM     13  C   UNL     1       3.077   5.251  17.789  0.00  0.00    +0.000 A 
ATOM     14  C   UNL     1       3.506   6.622  17.832  0.00  0.00    +0.000 A 
ATOM     15  C   UNL     1       4.890   6.866  17.652  0.00  0.00    +0.000 A 
BRANCH  10  17
ATOM     16  C   UNL     1       7.853   6.679  18.496  0.00  0.00    +0.000 C 
ATOM     17  O   UNL     1       7.193   5.979  17.450  0.00  0.00    +0.000 OA
ENDBRANCH  10  17
BRANCH  12  18
ATOM     18  O   UNL     1       3.670   2.915  17.716  0.00  0.00    +0.000 OA
ATOM     19  H   UNL     1       4.327   2.379  17.253  0.00  0.00    +0.000 HD
ENDBRANCH  12  18
BRANCH  13  20
ATOM     20  C   UNL     1       1.629   4.764  17.873  0.00  0.00    +0.000 C 
BRANCH  20  21
ATOM     21  C   UNL     1       1.296   3.803  19.004  0.00  0.00    +0.000 C 
ATOM     22  C   UNL     1       1.477   3.945  20.338  0.00  0.00    +0.000 C 
ATOM     23  C   UNL     1       1.974   5.176  21.032  0.00  0.00    +0.000 C 
ATOM     24  C   UNL     1       1.240   2.799  21.294  0.00  0.00    +0.000 C 
ENDBRANCH  20  21
ENDBRANCH  13  20
ENDBRANCH   1  14
BRANCH   6  25
ATOM     25  O   UNL     1       0.489  12.525  20.638  0.00  0.00    +0.000 OA
ATOM     26  H   UNL     1       0.328  13.364  20.171  0.00  0.00    +0.000 HD
ENDBRANCH   6  25
BRANCH   7  27
ATOM     27  C   UNL     1      -0.711   9.920  20.312  0.00  0.00    +0.000 C 
BRANCH  27  28
ATOM     28  C   UNL     1      -1.866  10.678  19.707  0.00  0.00    +0.000 C 
ATOM     29  C   UNL     1      -2.277  10.679  18.411  0.00  0.00    +0.000 C 
ATOM     30  C   UNL     1      -1.610   9.884  17.310  0.00  0.00    +0.000 C 
BRANCH  29  31
ATOM     31  C   UNL     1      -3.457  11.514  17.890  0.00  0.00    +0.000 C 
BRANCH  31  32
ATOM     32  C   UNL     1      -4.833  10.857  18.020  0.00  0.00    +0.000 C 
BRANCH  32  33
ATOM     33  C   UNL     1      -5.780  11.474  19.033  0.00  0.00    +0.000 C 
ATOM     34  C   UNL     1      -6.736  10.763  19.655  0.00  0.00    +0.000 C 
ATOM     35  C   UNL     1      -6.961   9.293  19.446  0.00  0.00    +0.000 C 
ATOM     36  C   UNL     1      -7.687  11.403  20.642  0.00  0.00    +0.000 C 
ENDBRANCH  32  33
ENDBRANCH  31  32
ENDBRANCH  29  31
ENDBRANCH  27  28
ENDBRANCH   7  27
TORSDOF 11
ENDMDL
MODEL 8
REMARK VINA RESULT:      -7.9      3.110      9.817
REMARK  Name = 
REMARK  17 active torsions:
REMARK  status: ('A' for Active; 'I' for Inactive)
REMARK    1  A    between atoms: C_1  and  O_2
REMARK    2  A    between atoms: O_2  and  C_3
REMARK    3  A    between atoms: C_5  and  O_6
REMARK    4  A    between atoms: C_7  and  C_8
REMARK    5  A    between atoms: C_8  and  C_9
REMARK    6  A    between atoms: C_10  and  C_11
REMARK    7  A    between atoms: C_10  and  C_12
REMARK    8  A    between atoms: C_13  and  C_14
REMARK    9  A    between atoms: C_19  and  O_20
REMARK   10  A    between atoms: C_21  and  C_22
REMARK   11  A    between atoms: C_22  and  C_23
REMARK   12  A    between atoms: C_24  and  C_25
REMARK   13  A    between atoms: C_24  and  C_26
REMARK   14  A    between atoms: C_26  and  C_27
REMARK   15  A    between atoms: C_27  and  C_28
REMARK   16  A    between atoms: C_29  and  C_30
REMARK   17  A    between atoms: C_29  and  C_31
REMARK                            x       y       z     vdW  Elec       q    Type
REMARK                         _______ _______ _______ _____ _____    ______ ____
ROOT
ATOM      1  C   UNL     1       1.531   9.536  18.148  0.00  0.00    +0.000 A 
ATOM      2  C   UNL     1       0.978   8.281  18.141  0.00  0.00    +0.000 A 
ATOM      3  C   UNL     1       1.992   7.470  18.662  0.00  0.00    +0.000 A 
ATOM      4  C   UNL     1       2.049   6.326  19.464  0.00  0.00    +0.000 A 
ATOM      5  C   UNL     1       3.281   5.702  19.599  0.00  0.00    +0.000 A 
ATOM      6  C   UNL     1       4.322   6.042  18.728  0.00  0.00    +0.000 A 
ATOM      7  C   UNL     1       4.266   7.147  17.827  0.00  0.00    +0.000 A 
ATOM      8  C   UNL     1       3.136   7.968  18.054  0.00  0.00    +0.000 A 
ATOM      9  O   UNL     1       2.886   9.324  17.808  0.00  0.00    +0.000 OA
ENDROOT
BRANCH   1  14
ATOM     10  C   UNL     1       1.570  13.234  19.036  0.00  0.00    +0.000 A 
ATOM     11  C   UNL     1       0.231  13.590  19.013  0.00  0.00    +0.000 A 
ATOM     12  C   UNL     1      -0.727  12.621  18.763  0.00  0.00    +0.000 A 
ATOM     13  C   UNL     1      -0.392  11.267  18.487  0.00  0.00    +0.000 A 
ATOM     14  C   UNL     1       0.997  10.901  18.431  0.00  0.00    +0.000 A 
ATOM     15  C   UNL     1       1.937  11.902  18.779  0.00  0.00    +0.000 A 
BRANCH  10  17
ATOM     16  C   UNL     1       2.201  15.480  18.617  0.00  0.00    +0.000 C 
ATOM     17  O   UNL     1       2.412  14.268  19.330  0.00  0.00    +0.000 OA
ENDBRANCH  10  17
BRANCH  12  18
ATOM     18  O   UNL     1      -2.051  12.995  18.758  0.00  0.00    +0.000 OA
ATOM     19  H   UNL     1      -2.197  13.641  18.054  0.00  0.00    +0.000 HD
ENDBRANCH  12  18
BRANCH  13  20
ATOM     20  C   UNL     1      -1.574  10.328  18.238  0.00  0.00    +0.000 C 
BRANCH  20  21
ATOM     21  C   UNL     1      -1.988  10.121  16.789  0.00  0.00    +0.000 C 
ATOM     22  C   UNL     1      -3.141  10.454  16.165  0.00  0.00    +0.000 C 
ATOM     23  C   UNL     1      -4.276  11.226  16.766  0.00  0.00    +0.000 C 
ATOM     24  C   UNL     1      -3.434  10.005  14.752  0.00  0.00    +0.000 C 
ENDBRANCH  20  21
ENDBRANCH  13  20
ENDBRANCH   1  14
BRANCH   6  25
ATOM     25  O   UNL     1       5.425   5.232  18.708  0.00  0.00    +0.000 OA
ATOM     26  H   UNL     1       5.218   4.374  19.121  0.00  0.00    +0.000 HD
ENDBRANCH   6  25
BRANCH   7  27
ATOM     27  C   UNL     1       5.031   7.051  16.502  0.00  0.00    +0.000 C 
BRANCH  27  28
ATOM     28  C   UNL     1       5.079   5.726  15.784  0.00  0.00    +0.000 C 
ATOM     29  C   UNL     1       6.160   4.930  15.571  0.00  0.00    +0.000 C 
ATOM     30  C   UNL     1       7.561   5.263  16.037  0.00  0.00    +0.000 C 
BRANCH  29  31
ATOM     31  C   UNL     1       6.106   3.604  14.798  0.00  0.00    +0.000 C 
BRANCH  31  32
ATOM     32  C   UNL     1       6.324   3.715  13.288  0.00  0.00    +0.000 C 
BRANCH  32  33
ATOM     33  C   UNL     1       5.076   3.851  12.436  0.00  0.00    +0.000 C 
ATOM     34  C   UNL     1       4.731   2.943  11.507  0.00  0.00    +0.000 C 
ATOM     35  C   UNL     1       5.512   1.692  11.224  0.00  0.00    +0.000 C 
ATOM     36  C   UNL     1       3.496   3.111  10.651  0.00  0.00    +0.000 C 
ENDBRANCH  32  33
ENDBRANCH  31  32
ENDBRANCH  29  31
ENDBRANCH  27  28
ENDBRANCH   7  27
TORSDOF 11
ENDMDL
MODEL 9
REMARK VINA RESULT:      -7.8      4.376      9.991
REMARK  Name = 
REMARK  17 active torsions:
REMARK  status: ('A' for Active; 'I' for Inactive)
REMARK    1  A    between atoms: C_1  and  O_2
REMARK    2  A    between atoms: O_2  and  C_3
REMARK    3  A    between atoms: C_5  and  O_6
REMARK    4  A    between atoms: C_7  and  C_8
REMARK    5  A    between atoms: C_8  and  C_9
REMARK    6  A    between atoms: C_10  and  C_11
REMARK    7  A    between atoms: C_10  and  C_12
REMARK    8  A    between atoms: C_13  and  C_14
REMARK    9  A    between atoms: C_19  and  O_20
REMARK   10  A    between atoms: C_21  and  C_22
REMARK   11  A    between atoms: C_22  and  C_23
REMARK   12  A    between atoms: C_24  and  C_25
REMARK   13  A    between atoms: C_24  and  C_26
REMARK   14  A    between atoms: C_26  and  C_27
REMARK   15  A    between atoms: C_27  and  C_28
REMARK   16  A    between atoms: C_29  and  C_30
REMARK   17  A    between atoms: C_29  and  C_31
REMARK                            x       y       z     vdW  Elec       q    Type
REMARK                         _______ _______ _______ _____ _____    ______ ____
ROOT
ATOM      1  C   UNL     1       1.030  11.772  18.862  0.00  0.00    +0.000 A 
ATOM      2  C   UNL     1      -0.108  11.102  19.234  0.00  0.00    +0.000 A 
ATOM      3  C   UNL     1       0.371  10.028  19.989  0.00  0.00    +0.000 A 
ATOM      4  C   UNL     1      -0.070   9.309  21.104  0.00  0.00    +0.000 A 
ATOM      5  C   UNL     1       0.627   8.156  21.438  0.00  0.00    +0.000 A 
ATOM      6  C   UNL     1       1.525   7.606  20.516  0.00  0.00    +0.000 A 
ATOM      7  C   UNL     1       1.930   8.268  19.320  0.00  0.00    +0.000 A 
ATOM      8  C   UNL     1       1.484   9.610  19.271  0.00  0.00    +0.000 A 
ATOM      9  O   UNL     1       1.974  10.749  18.619  0.00  0.00    +0.000 OA
ENDROOT
BRANCH   1  14
ATOM     10  C   UNL     1       3.087  14.831  17.930  0.00  0.00    +0.000 A 
ATOM     11  C   UNL     1       2.280  15.895  18.305  0.00  0.00    +0.000 A 
ATOM     12  C   UNL     1       1.067  15.643  18.924  0.00  0.00    +0.000 A 
ATOM     13  C   UNL     1       0.587  14.325  19.162  0.00  0.00    +0.000 A 
ATOM     14  C   UNL     1       1.379  13.214  18.707  0.00  0.00    +0.000 A 
ATOM     15  C   UNL     1       2.650  13.516  18.160  0.00  0.00    +0.000 A 
BRANCH  10  17
ATOM     16  C   UNL     1       5.454  14.792  18.032  0.00  0.00    +0.000 C 
ATOM     17  O   UNL     1       4.272  15.209  17.364  0.00  0.00    +0.000 OA
ENDBRANCH  10  17
BRANCH  12  18
ATOM     18  O   UNL     1       0.290  16.714  19.300  0.00  0.00    +0.000 OA
ATOM     19  H   UNL     1      -0.512  16.729  18.761  0.00  0.00    +0.000 HD
ENDBRANCH  12  18
BRANCH  13  20
ATOM     20  C   UNL     1      -0.770  14.229  19.861  0.00  0.00    +0.000 C 
BRANCH  20  21
ATOM     21  C   UNL     1      -0.763  14.323  21.380  0.00  0.00    +0.000 C 
ATOM     22  C   UNL     1      -1.410  13.562  22.293  0.00  0.00    +0.000 C 
ATOM     23  C   UNL     1      -2.230  12.342  22.001  0.00  0.00    +0.000 C 
ATOM     24  C   UNL     1      -1.415  13.923  23.761  0.00  0.00    +0.000 C 
ENDBRANCH  20  21
ENDBRANCH  13  20
ENDBRANCH   1  14
BRANCH   6  25
ATOM     25  O   UNL     1       1.989   6.341  20.759  0.00  0.00    +0.000 OA
ATOM     26  H   UNL     1       2.057   5.844  19.924  0.00  0.00    +0.000 HD
ENDBRANCH   6  25
BRANCH   7  27
ATOM     27  C   UNL     1       2.289   7.417  18.097  0.00  0.00    +0.000 C 
BRANCH  27  28
ATOM     28  C   UNL     1       3.682   7.514  17.527  0.00  0.00    +0.000 C 
ATOM     29  C   UNL     1       4.760   6.741  17.822  0.00  0.00    +0.000 C 
ATOM     30  C   UNL     1       4.740   5.605  18.821  0.00  0.00    +0.000 C 
BRANCH  29  31
ATOM     31  C   UNL     1       6.151   6.942  17.201  0.00  0.00    +0.000 C 
BRANCH  31  32
ATOM     32  C   UNL     1       6.942   5.659  16.935  0.00  0.00    +0.000 C 
BRANCH  32  33
ATOM     33  C   UNL     1       6.977   5.175  15.497  0.00  0.00    +0.000 C 
ATOM     34  C   UNL     1       6.073   4.313  15.002  0.00  0.00    +0.000 C 
ATOM     35  C   UNL     1       4.923   3.755  15.790  0.00  0.00    +0.000 C 
ATOM     36  C   UNL     1       6.141   3.824  13.572  0.00  0.00    +0.000 C 
ENDBRANCH  32  33
ENDBRANCH  31  32
ENDBRANCH  29  31
ENDBRANCH  27  28
ENDBRANCH   7  27
TORSDOF 11
ENDMDL
