MODEL 1
REMARK VINA RESULT:      -7.5      0.000      0.000
REMARK  Name = 
REMARK  8 active torsions:
REMARK  status: ('A' for Active; 'I' for Inactive)
REMARK    1  A    between atoms: C_1  and  C_2
REMARK    2  A    between atoms: C_2  and  C_4
REMARK    3  A    between atoms: C_9  and  N_10
REMARK    4  A    between atoms: C_11  and  C_13
REMARK    5  A    between atoms: C_13  and  N_14
REMARK    6  A    between atoms: N_14  and  C_15
REMARK    7  A    between atoms: N_14  and  S_16
REMARK    8  A    between atoms: S_16  and  C_19
REMARK                            x       y       z     vdW  Elec       q    Type
REMARK                         _______ _______ _______ _____ _____    ______ ____
ROOT
ATOM      1  N   UNL     1       2.922   7.455  17.803  0.00  0.00    +0.000 N 
ATOM      2  C   UNL     1       2.171   8.314  18.587  0.00  0.00    +0.000 C 
ATOM      3  O   UNL     1       1.952   8.165  19.790  0.00  0.00    +0.000 OA
ATOM      4  H   UNL     1       3.234   7.807  16.891  0.00  0.00    +0.000 HD
ENDROOT
BRANCH   1  10
ATOM      5  C   UNL     1       4.821   5.852  17.840  0.00  0.00    +0.000 A 
ATOM      6  C   UNL     1       5.408   4.666  18.330  0.00  0.00    +0.000 A 
ATOM      7  C   UNL     1       4.664   3.865  19.165  0.00  0.00    +0.000 A 
ATOM      8  C   UNL     1       3.380   4.190  19.510  0.00  0.00    +0.000 A 
ATOM      9  C   UNL     1       2.776   5.344  19.063  0.00  0.00    +0.000 A 
ATOM     10  C   UNL     1       3.501   6.225  18.238  0.00  0.00    +0.000 A 
ATOM     11  O   UNL     1       2.809   3.263  20.324  0.00  0.00    +0.000 OA
ATOM     12  C   UNL     1       3.891   2.322  20.467  0.00  0.00    +0.000 C 
ATOM     13  O   UNL     1       5.073   2.697  19.725  0.00  0.00    +0.000 OA
BRANCH   5  15
ATOM     14  C   UNL     1       6.931   7.281  17.411  0.00  0.00    +0.000 C 
ATOM     15  C   UNL     1       5.625   6.705  16.913  0.00  0.00    +0.000 C 
ATOM     16  O   UNL     1       5.227   6.911  15.768  0.00  0.00    +0.000 OA
ENDBRANCH   5  15
ENDBRANCH   1  10
BRANCH   2  17
ATOM     17  C   UNL     1       1.668   9.576  17.919  0.00  0.00    +0.000 C 
BRANCH  17  18
ATOM     18  N   UNL     1       1.490  10.799  18.749  0.00  0.00    +0.000 NA
ATOM     19  C   UNL     1       2.236  11.963  18.208  0.00  0.00    +0.000 C 
BRANCH  18  20
ATOM     20  S   UNL     1      -0.185  11.158  18.972  0.00  0.00    +0.000 S 
ATOM     21  O   UNL     1      -0.408  12.553  18.661  0.00  0.00    +0.000 OA
ATOM     22  O   UNL     1      -0.949  10.109  18.326  0.00  0.00    +0.000 OA
BRANCH  20  23
ATOM     23  C   UNL     1      -0.551  10.995  20.704  0.00  0.00    +0.000 A 
ATOM     24  C   UNL     1      -0.211  10.043  21.648  0.00  0.00    +0.000 A 
ATOM     25  C   UNL     1      -0.744  10.344  22.936  0.00  0.00    +0.000 A 
ATOM     26  C   UNL     1      -1.473  11.515  22.928  0.00  0.00    +0.000 A 
ATOM     27  S   UNL     1      -1.499  12.248  21.383  0.00  0.00    +0.000 S 
ENDBRANCH  20  23
ENDBRANCH  18  20
ENDBRANCH  17  18
ENDBRANCH   2  17
TORSDOF 6
ENDMDL
MODEL 2
REMARK VINA RESULT:      -7.4      3.904      6.185
REMARK  Name = 
REMARK  8 active torsions:
REMARK  status: ('A' for Active; 'I' for Inactive)
REMARK    1  A    between atoms: C_1  and  C_2
REMARK    2  A    between atoms: C_2  and  C_4
REMARK    3  A    between atoms: C_9  and  N_10
REMARK    4  A    between atoms: C_11  and  C_13
REMARK    5  A    between atoms: C_13  and  N_14
REMARK    6  A    between atoms: N_14  and  C_15
REMARK    7  A    between atoms: N_14  and  S_16
REMARK    8  A    between atoms: S_16  and  C_19
REMARK                            x       y       z     vdW  Elec       q    Type
REMARK                         _______ _______ _______ _____ _____    ______ ____
ROOT
ATOM      1  N   UNL     1       4.869   3.467  17.232  0.00  0.00    +0.000 N 
ATOM      2  C   UNL     1       3.490   3.347  17.269  0.00  0.00    +0.000 C 
ATOM      3  O   UNL     1       2.736   3.553  16.317  0.00  0.00    +0.000 OA
ATOM      4  H   UNL     1       5.396   3.038  18.001  0.00  0.00    +0.000 HD
ENDROOT
BRANCH   1  10
ATOM      5  C   UNL     1       6.741   4.802  16.290  0.00  0.00    +0.000 A 
ATOM      6  C   UNL     1       7.532   5.187  15.186  0.00  0.00    +0.000 A 
ATOM      7  C   UNL     1       7.184   4.722  13.939  0.00  0.00    +0.000 A 
ATOM      8  C   UNL     1       6.094   3.915  13.756  0.00  0.00    +0.000 A 
ATOM      9  C   UNL     1       5.305   3.507  14.809  0.00  0.00    +0.000 A 
ATOM     10  C   UNL     1       5.634   3.917  16.114  0.00  0.00    +0.000 A 
ATOM     11  O   UNL     1       5.907   3.581  12.451  0.00  0.00    +0.000 OA
ATOM     12  C   UNL     1       7.019   4.257  11.834  0.00  0.00    +0.000 C 
ATOM     13  O   UNL     1       7.832   4.992  12.776  0.00  0.00    +0.000 OA
BRANCH   5  15
ATOM     14  C   UNL     1       7.217   6.828  17.823  0.00  0.00    +0.000 C 
ATOM     15  C   UNL     1       7.110   5.332  17.639  0.00  0.00    +0.000 C 
ATOM     16  O   UNL     1       7.303   4.554  18.571  0.00  0.00    +0.000 OA
ENDBRANCH   5  15
ENDBRANCH   1  10
BRANCH   2  17
ATOM     17  C   UNL     1       2.889   2.831  18.559  0.00  0.00    +0.000 C 
BRANCH  17  18
ATOM     18  N   UNL     1       1.965   3.717  19.319  0.00  0.00    +0.000 NA
ATOM     19  C   UNL     1       1.081   2.956  20.238  0.00  0.00    +0.000 C 
BRANCH  18  20
ATOM     20  S   UNL     1       2.837   4.956  20.149  0.00  0.00    +0.000 S 
ATOM     21  O   UNL     1       2.296   5.092  21.483  0.00  0.00    +0.000 OA
ATOM     22  O   UNL     1       4.250   4.722  19.928  0.00  0.00    +0.000 OA
BRANCH  20  23
ATOM     23  C   UNL     1       2.492   6.500  19.338  0.00  0.00    +0.000 A 
ATOM     24  C   UNL     1       2.730   6.958  18.055  0.00  0.00    +0.000 A 
ATOM     25  C   UNL     1       2.264   8.292  17.862  0.00  0.00    +0.000 A 
ATOM     26  C   UNL     1       1.688   8.804  19.005  0.00  0.00    +0.000 A 
ATOM     27  S   UNL     1       1.698   7.679  20.293  0.00  0.00    +0.000 S 
ENDBRANCH  20  23
ENDBRANCH  18  20
ENDBRANCH  17  18
ENDBRANCH   2  17
TORSDOF 6
ENDMDL
MODEL 3
REMARK VINA RESULT:      -7.4      3.439      7.965
REMARK  Name = 
REMARK  8 active torsions:
REMARK  status: ('A' for Active; 'I' for Inactive)
REMARK    1  A    between atoms: C_1  and  C_2
REMARK    2  A    between atoms: C_2  and  C_4
REMARK    3  A    between atoms: C_9  and  N_10
REMARK    4  A    between atoms: C_11  and  C_13
REMARK    5  A    between atoms: C_13  and  N_14
REMARK    6  A    between atoms: N_14  and  C_15
REMARK    7  A    between atoms: N_14  and  S_16
REMARK    8  A    between atoms: S_16  and  C_19
REMARK                            x       y       z     vdW  Elec       q    Type
REMARK                         _______ _______ _______ _____ _____    ______ ____
ROOT
ATOM      1  N   UNL     1       2.307   7.442  20.438  0.00  0.00    +0.000 N 
ATOM      2  C   UNL     1       1.989   6.096  20.486  0.00  0.00    +0.000 C 
ATOM      3  O   UNL     1       0.872   5.642  20.741  0.00  0.00    +0.000 OA
ATOM      4  H   UNL     1       3.191   7.697  19.982  0.00  0.00    +0.000 HD
ENDROOT
BRANCH   1  10
ATOM      5  C   UNL     1       1.027   9.455  19.743  0.00  0.00    +0.000 A 
ATOM      6  C   UNL     1       0.097  10.475  20.041  0.00  0.00    +0.000 A 
ATOM      7  C   UNL     1      -0.384  10.563  21.327  0.00  0.00    +0.000 A 
ATOM      8  C   UNL     1       0.028   9.700  22.305  0.00  0.00    +0.000 A 
ATOM      9  C   UNL     1       0.923   8.685  22.051  0.00  0.00    +0.000 A 
ATOM     10  C   UNL     1       1.421   8.518  20.745  0.00  0.00    +0.000 A 
ATOM     11  O   UNL     1      -0.547   9.965  23.509  0.00  0.00    +0.000 OA
ATOM     12  C   UNL     1      -1.385  11.087  23.171  0.00  0.00    +0.000 C 
ATOM     13  O   UNL     1      -1.280  11.477  21.783  0.00  0.00    +0.000 OA
BRANCH   5  15
ATOM     14  C   UNL     1       2.183  10.621  17.746  0.00  0.00    +0.000 C 
ATOM     15  C   UNL     1       1.566   9.380  18.350  0.00  0.00    +0.000 C 
ATOM     16  O   UNL     1       1.514   8.321  17.729  0.00  0.00    +0.000 OA
ENDBRANCH   5  15
ENDBRANCH   1  10
BRANCH   2  17
ATOM     17  C   UNL     1       3.085   5.126  20.101  0.00  0.00    +0.000 C 
BRANCH  17  18
ATOM     18  N   UNL     1       2.826   4.161  18.996  0.00  0.00    +0.000 NA
ATOM     19  C   UNL     1       2.283   4.823  17.783  0.00  0.00    +0.000 C 
BRANCH  18  20
ATOM     20  S   UNL     1       4.239   3.232  18.641  0.00  0.00    +0.000 S 
ATOM     21  O   UNL     1       4.847   2.815  19.885  0.00  0.00    +0.000 OA
ATOM     22  O   UNL     1       3.886   2.271  17.615  0.00  0.00    +0.000 OA
BRANCH  20  23
ATOM     23  C   UNL     1       5.423   4.313  17.873  0.00  0.00    +0.000 A 
ATOM     24  C   UNL     1       6.255   5.297  18.373  0.00  0.00    +0.000 A 
ATOM     25  C   UNL     1       7.046   5.906  17.353  0.00  0.00    +0.000 A 
ATOM     26  C   UNL     1       6.788   5.364  16.112  0.00  0.00    +0.000 A 
ATOM     27  S   UNL     1       5.613   4.123  16.182  0.00  0.00    +0.000 S 
ENDBRANCH  20  23
ENDBRANCH  18  20
ENDBRANCH  17  18
ENDBRANCH   2  17
TORSDOF 6
ENDMDL
MODEL 4
REMARK VINA RESULT:      -7.4      2.285      4.191
REMARK  Name = 
REMARK  8 active torsions:
REMARK  status: ('A' for Active; 'I' for Inactive)
REMARK    1  A    between atoms: C_1  and  C_2
REMARK    2  A    between atoms: C_2  and  C_4
REMARK    3  A    between atoms: C_9  and  N_10
REMARK    4  A    between atoms: C_11  and  C_13
REMARK    5  A    between atoms: C_13  and  N_14
REMARK    6  A    between atoms: N_14  and  C_15
REMARK    7  A    between atoms: N_14  and  S_16
REMARK    8  A    between atoms: S_16  and  C_19
REMARK                            x       y       z     vdW  Elec       q    Type
REMARK                         _______ _______ _______ _____ _____    ______ ____
ROOT
ATOM      1  N   UNL     1       2.476   7.335  18.865  0.00  0.00    +0.000 N 
ATOM      2  C   UNL     1       1.999   8.560  18.431  0.00  0.00    +0.000 C 
ATOM      3  O   UNL     1       2.141   9.013  17.294  0.00  0.00    +0.000 OA
ATOM      4  H   UNL     1       2.090   6.967  19.741  0.00  0.00    +0.000 HD
ENDROOT
BRANCH   1  10
ATOM      5  C   UNL     1       3.008   5.029  18.106  0.00  0.00    +0.000 A 
ATOM      6  C   UNL     1       3.755   4.154  17.289  0.00  0.00    +0.000 A 
ATOM      7  C   UNL     1       4.763   4.684  16.516  0.00  0.00    +0.000 A 
ATOM      8  C   UNL     1       5.053   6.021  16.538  0.00  0.00    +0.000 A 
ATOM      9  C   UNL     1       4.339   6.908  17.312  0.00  0.00    +0.000 A 
ATOM     10  C   UNL     1       3.270   6.433  18.094  0.00  0.00    +0.000 A 
ATOM     11  O   UNL     1       6.093   6.341  15.722  0.00  0.00    +0.000 OA
ATOM     12  C   UNL     1       6.413   5.051  15.168  0.00  0.00    +0.000 C 
ATOM     13  O   UNL     1       5.574   3.989  15.676  0.00  0.00    +0.000 OA
BRANCH   5  15
ATOM     14  C   UNL     1       1.165   3.249  18.445  0.00  0.00    +0.000 C 
ATOM     15  C   UNL     1       1.931   4.445  18.963  0.00  0.00    +0.000 C 
ATOM     16  O   UNL     1       1.697   4.929  20.068  0.00  0.00    +0.000 OA
ENDBRANCH   5  15
ENDBRANCH   1  10
BRANCH   2  17
ATOM     17  C   UNL     1       1.159   9.347  19.415  0.00  0.00    +0.000 C 
BRANCH  17  18
ATOM     18  N   UNL     1       0.498  10.596  18.948  0.00  0.00    +0.000 NA
ATOM     19  C   UNL     1      -0.926  10.381  18.587  0.00  0.00    +0.000 C 
BRANCH  18  20
ATOM     20  S   UNL     1       0.680  11.865  20.106  0.00  0.00    +0.000 S 
ATOM     21  O   UNL     1      -0.525  12.664  20.116  0.00  0.00    +0.000 OA
ATOM     22  O   UNL     1       1.206  11.278  21.322  0.00  0.00    +0.000 OA
BRANCH  20  23
ATOM     23  C   UNL     1       1.963  12.951  19.527  0.00  0.00    +0.000 A 
ATOM     24  C   UNL     1       2.535  13.145  18.283  0.00  0.00    +0.000 A 
ATOM     25  C   UNL     1       3.549  14.149  18.304  0.00  0.00    +0.000 A 
ATOM     26  C   UNL     1       3.714  14.683  19.565  0.00  0.00    +0.000 A 
ATOM     27  S   UNL     1       2.645  13.989  20.705  0.00  0.00    +0.000 S 
ENDBRANCH  20  23
ENDBRANCH  18  20
ENDBRANCH  17  18
ENDBRANCH   2  17
TORSDOF 6
ENDMDL
MODEL 5
REMARK VINA RESULT:      -7.3      3.473      8.020
REMARK  Name = 
REMARK  8 active torsions:
REMARK  status: ('A' for Active; 'I' for Inactive)
REMARK    1  A    between atoms: C_1  and  C_2
REMARK    2  A    between atoms: C_2  and  C_4
REMARK    3  A    between atoms: C_9  and  N_10
REMARK    4  A    between atoms: C_11  and  C_13
REMARK    5  A    between atoms: C_13  and  N_14
REMARK    6  A    between atoms: N_14  and  C_15
REMARK    7  A    between atoms: N_14  and  S_16
REMARK    8  A    between atoms: S_16  and  C_19
REMARK                            x       y       z     vdW  Elec       q    Type
REMARK                         _______ _______ _______ _____ _____    ______ ____
ROOT
ATOM      1  N   UNL     1       2.228   7.770  19.672  0.00  0.00    +0.000 N 
ATOM      2  C   UNL     1       2.191   6.423  19.990  0.00  0.00    +0.000 C 
ATOM      3  O   UNL     1       1.392   5.902  20.770  0.00  0.00    +0.000 OA
ATOM      4  H   UNL     1       2.764   8.039  18.839  0.00  0.00    +0.000 HD
ENDROOT
BRANCH   1  10
ATOM      5  C   UNL     1       1.127   9.994  19.543  0.00  0.00    +0.000 A 
ATOM      6  C   UNL     1       0.255  10.959  20.092  0.00  0.00    +0.000 A 
ATOM      7  C   UNL     1      -0.284  10.719  21.335  0.00  0.00    +0.000 A 
ATOM      8  C   UNL     1       0.016   9.584  22.038  0.00  0.00    +0.000 A 
ATOM      9  C   UNL     1       0.852   8.614  21.531  0.00  0.00    +0.000 A 
ATOM     10  C   UNL     1       1.403   8.783  20.247  0.00  0.00    +0.000 A 
ATOM     11  O   UNL     1      -0.600   9.544  23.249  0.00  0.00    +0.000 OA
ATOM     12  C   UNL     1      -1.340  10.780  23.221  0.00  0.00    +0.000 C 
ATOM     13  O   UNL     1      -1.137  11.537  22.006  0.00  0.00    +0.000 OA
BRANCH   5  15
ATOM     14  C   UNL     1       2.306  11.645  17.941  0.00  0.00    +0.000 C 
ATOM     15  C   UNL     1       1.730  10.272  18.203  0.00  0.00    +0.000 C 
ATOM     16  O   UNL     1       1.763   9.387  17.350  0.00  0.00    +0.000 OA
ENDBRANCH   5  15
ENDBRANCH   1  10
BRANCH   2  17
ATOM     17  C   UNL     1       3.149   5.523  19.239  0.00  0.00    +0.000 C 
BRANCH  17  18
ATOM     18  N   UNL     1       2.736   4.120  18.959  0.00  0.00    +0.000 NA
ATOM     19  C   UNL     1       1.668   4.039  17.931  0.00  0.00    +0.000 C 
BRANCH  18  20
ATOM     20  S   UNL     1       4.100   3.144  18.544  0.00  0.00    +0.000 S 
ATOM     21  O   UNL     1       4.959   3.027  19.701  0.00  0.00    +0.000 OA
ATOM     22  O   UNL     1       3.606   1.971  17.850  0.00  0.00    +0.000 OA
BRANCH  20  23
ATOM     23  C   UNL     1       5.054   4.028  17.332  0.00  0.00    +0.000 A 
ATOM     24  C   UNL     1       4.835   4.320  15.998  0.00  0.00    +0.000 A 
ATOM     25  C   UNL     1       5.904   5.073  15.427  0.00  0.00    +0.000 A 
ATOM     26  C   UNL     1       6.900   5.327  16.346  0.00  0.00    +0.000 A 
ATOM     27  S   UNL     1       6.539   4.675  17.885  0.00  0.00    +0.000 S 
ENDBRANCH  20  23
ENDBRANCH  18  20
ENDBRANCH  17  18
ENDBRANCH   2  17
TORSDOF 6
ENDMDL
MODEL 6
REMARK VINA RESULT:      -7.3      2.252      4.103
REMARK  Name = 
REMARK  8 active torsions:
REMARK  status: ('A' for Active; 'I' for Inactive)
REMARK    1  A    between atoms: C_1  and  C_2
REMARK    2  A    between atoms: C_2  and  C_4
REMARK    3  A    between atoms: C_9  and  N_10
REMARK    4  A    between atoms: C_11  and  C_13
REMARK    5  A    between atoms: C_13  and  N_14
REMARK    6  A    between atoms: N_14  and  C_15
REMARK    7  A    between atoms: N_14  and  S_16
REMARK    8  A    between atoms: S_16  and  C_19
REMARK                            x       y       z     vdW  Elec       q    Type
REMARK                         _______ _______ _______ _____ _____    ______ ____
ROOT
ATOM      1  N   UNL     1       3.009   6.841  19.354  0.00  0.00    +0.000 N 
ATOM      2  C   UNL     1       2.147   7.899  19.119  0.00  0.00    +0.000 C 
ATOM      3  O   UNL     1       1.750   8.255  18.007  0.00  0.00    +0.000 OA
ATOM      4  H   UNL     1       3.069   6.493  20.317  0.00  0.00    +0.000 HD
ENDROOT
BRANCH   1  10
ATOM      5  C   UNL     1       3.350   4.647  18.239  0.00  0.00    +0.000 A 
ATOM      6  C   UNL     1       3.924   3.880  17.202  0.00  0.00    +0.000 A 
ATOM      7  C   UNL     1       4.793   4.502  16.335  0.00  0.00    +0.000 A 
ATOM      8  C   UNL     1       5.111   5.826  16.468  0.00  0.00    +0.000 A 
ATOM      9  C   UNL     1       4.562   6.610  17.458  0.00  0.00    +0.000 A 
ATOM     10  C   UNL     1       3.636   6.041  18.352  0.00  0.00    +0.000 A 
ATOM     11  O   UNL     1       5.999   6.245  15.527  0.00  0.00    +0.000 OA
ATOM     12  C   UNL     1       6.190   5.033  14.773  0.00  0.00    +0.000 C 
ATOM     13  O   UNL     1       5.430   3.916  15.287  0.00  0.00    +0.000 OA
BRANCH   5  15
ATOM     14  C   UNL     1       1.164   3.331  18.652  0.00  0.00    +0.000 C 
ATOM     15  C   UNL     1       2.427   3.961  19.194  0.00  0.00    +0.000 C 
ATOM     16  O   UNL     1       2.711   3.906  20.388  0.00  0.00    +0.000 OA
ENDBRANCH   5  15
ENDBRANCH   1  10
BRANCH   2  17
ATOM     17  C   UNL     1       1.583   8.598  20.337  0.00  0.00    +0.000 C 
BRANCH  17  18
ATOM     18  N   UNL     1       0.125   8.897  20.376  0.00  0.00    +0.000 NA
ATOM     19  C   UNL     1      -0.495   8.522  21.672  0.00  0.00    +0.000 C 
BRANCH  18  20
ATOM     20  S   UNL     1      -0.179  10.550  19.975  0.00  0.00    +0.000 S 
ATOM     21  O   UNL     1      -0.897  11.170  21.067  0.00  0.00    +0.000 OA
ATOM     22  O   UNL     1       1.056  11.113  19.468  0.00  0.00    +0.000 OA
BRANCH  20  23
ATOM     23  C   UNL     1      -1.300  10.578  18.595  0.00  0.00    +0.000 A 
ATOM     24  C   UNL     1      -1.347   9.864  17.412  0.00  0.00    +0.000 A 
ATOM     25  C   UNL     1      -2.457  10.239  16.598  0.00  0.00    +0.000 A 
ATOM     26  C   UNL     1      -3.216  11.227  17.189  0.00  0.00    +0.000 A 
ATOM     27  S   UNL     1      -2.600  11.685  18.718  0.00  0.00    +0.000 S 
ENDBRANCH  20  23
ENDBRANCH  18  20
ENDBRANCH  17  18
ENDBRANCH   2  17
TORSDOF 6
ENDMDL
MODEL 7
REMARK VINA RESULT:      -7.2      1.841      3.380
REMARK  Name = 
REMARK  8 active torsions:
REMARK  status: ('A' for Active; 'I' for Inactive)
REMARK    1  A    between atoms: C_1  and  C_2
REMARK    2  A    between atoms: C_2  and  C_4
REMARK    3  A    between atoms: C_9  and  N_10
REMARK    4  A    between atoms: C_11  and  C_13
REMARK    5  A    between atoms: C_13  and  N_14
REMARK    6  A    between atoms: N_14  and  C_15
REMARK    7  A    between atoms: N_14  and  S_16
REMARK    8  A    between atoms: S_16  and  C_19
REMARK                            x       y       z     vdW  Elec       q    Type
REMARK                         _______ _______ _______ _____ _____    ______ ____
ROOT
ATOM      1  N   UNL     1       2.322   7.608  18.850  0.00  0.00    +0.000 N 
ATOM      2  C   UNL     1       1.895   8.819  18.332  0.00  0.00    +0.000 C 
ATOM      3  O   UNL     1       2.115   9.216  17.186  0.00  0.00    +0.000 OA
ATOM      4  H   UNL     1       1.876   7.288  19.716  0.00  0.00    +0.000 HD
ENDROOT
BRANCH   1  10
ATOM      5  C   UNL     1       2.981   5.257  18.389  0.00  0.00    +0.000 A 
ATOM      6  C   UNL     1       3.755   4.325  17.664  0.00  0.00    +0.000 A 
ATOM      7  C   UNL     1       4.694   4.804  16.780  0.00  0.00    +0.000 A 
ATOM      8  C   UNL     1       4.893   6.146  16.606  0.00  0.00    +0.000 A 
ATOM      9  C   UNL     1       4.150   7.087  17.284  0.00  0.00    +0.000 A 
ATOM     10  C   UNL     1       3.146   6.659  18.173  0.00  0.00    +0.000 A 
ATOM     11  O   UNL     1       5.877   6.415  15.706  0.00  0.00    +0.000 OA
ATOM     12  C   UNL     1       6.263   5.082  15.319  0.00  0.00    +0.000 C 
ATOM     13  O   UNL     1       5.518   4.051  16.005  0.00  0.00    +0.000 OA
BRANCH   5  15
ATOM     14  C   UNL     1       1.122   3.555  18.961  0.00  0.00    +0.000 C 
ATOM     15  C   UNL     1       1.980   4.731  19.367  0.00  0.00    +0.000 C 
ATOM     16  O   UNL     1       1.881   5.246  20.479  0.00  0.00    +0.000 OA
ENDBRANCH   5  15
ENDBRANCH   1  10
BRANCH   2  17
ATOM     17  C   UNL     1       1.010   9.663  19.224  0.00  0.00    +0.000 C 
BRANCH  17  18
ATOM     18  N   UNL     1       0.143  10.697  18.594  0.00  0.00    +0.000 NA
ATOM     19  C   UNL     1      -1.261  10.242  18.443  0.00  0.00    +0.000 C 
BRANCH  18  20
ATOM     20  S   UNL     1       0.243  12.195  19.450  0.00  0.00    +0.000 S 
ATOM     21  O   UNL     1       1.604  12.386  19.897  0.00  0.00    +0.000 OA
ATOM     22  O   UNL     1      -0.440  13.199  18.659  0.00  0.00    +0.000 OA
BRANCH  20  23
ATOM     23  C   UNL     1      -0.726  12.040  20.933  0.00  0.00    +0.000 A 
ATOM     24  C   UNL     1      -0.532  11.339  22.109  0.00  0.00    +0.000 A 
ATOM     25  C   UNL     1      -1.603  11.526  23.033  0.00  0.00    +0.000 A 
ATOM     26  C   UNL     1      -2.575  12.364  22.527  0.00  0.00    +0.000 A 
ATOM     27  S   UNL     1      -2.189  12.927  20.959  0.00  0.00    +0.000 S 
ENDBRANCH  20  23
ENDBRANCH  18  20
ENDBRANCH  17  18
ENDBRANCH   2  17
TORSDOF 6
ENDMDL
MODEL 8
REMARK VINA RESULT:      -7.2      3.164      7.654
REMARK  Name = 
REMARK  8 active torsions:
REMARK  status: ('A' for Active; 'I' for Inactive)
REMARK    1  A    between atoms: C_1  and  C_2
REMARK    2  A    between atoms: C_2  and  C_4
REMARK    3  A    between atoms: C_9  and  N_10
REMARK    4  A    between atoms: C_11  and  C_13
REMARK    5  A    between atoms: C_13  and  N_14
REMARK    6  A    between atoms: N_14  and  C_15
REMARK    7  A    between atoms: N_14  and  S_16
REMARK    8  A    between atoms: S_16  and  C_19
REMARK                            x       y       z     vdW  Elec       q    Type
REMARK                         _______ _______ _______ _____ _____    ______ ____
ROOT
ATOM      1  N   UNL     1       1.649   8.590  19.844  0.00  0.00    +0.000 N 
ATOM      2  C   UNL     1       1.723   7.278  20.281  0.00  0.00    +0.000 C 
ATOM      3  O   UNL     1       0.940   6.749  21.072  0.00  0.00    +0.000 OA
ATOM      4  H   UNL     1       2.198   8.837  19.014  0.00  0.00    +0.000 HD
ENDROOT
BRANCH   1  10
ATOM      5  C   UNL     1      -0.235  10.144  19.389  0.00  0.00    +0.000 A 
ATOM      6  C   UNL     1      -1.208  11.054  19.856  0.00  0.00    +0.000 A 
ATOM      7  C   UNL     1      -1.199  11.392  21.189  0.00  0.00    +0.000 A 
ATOM      8  C   UNL     1      -0.269  10.878  22.051  0.00  0.00    +0.000 A 
ATOM      9  C   UNL     1       0.689   9.978  21.636  0.00  0.00    +0.000 A 
ATOM     10  C   UNL     1       0.705   9.562  20.292  0.00  0.00    +0.000 A 
ATOM     11  O   UNL     1      -0.415  11.350  23.317  0.00  0.00    +0.000 OA
ATOM     12  C   UNL     1      -1.559  12.210  23.158  0.00  0.00    +0.000 C 
ATOM     13  O   UNL     1      -2.059  12.247  21.802  0.00  0.00    +0.000 OA
BRANCH   5  15
ATOM     14  C   UNL     1      -1.524   9.937  17.158  0.00  0.00    +0.000 C 
ATOM     15  C   UNL     1      -0.234   9.800  17.934  0.00  0.00    +0.000 C 
ATOM     16  O   UNL     1       0.805   9.429  17.392  0.00  0.00    +0.000 OA
ENDBRANCH   5  15
ENDBRANCH   1  10
BRANCH   2  17
ATOM     17  C   UNL     1       2.798   6.415  19.654  0.00  0.00    +0.000 C 
BRANCH  17  18
ATOM     18  N   UNL     1       2.724   6.134  18.193  0.00  0.00    +0.000 NA
ATOM     19  C   UNL     1       3.951   6.559  17.473  0.00  0.00    +0.000 C 
BRANCH  18  20
ATOM     20  S   UNL     1       2.352   4.473  17.899  0.00  0.00    +0.000 S 
ATOM     21  O   UNL     1       1.063   4.393  17.248  0.00  0.00    +0.000 OA
ATOM     22  O   UNL     1       3.528   3.855  17.321  0.00  0.00    +0.000 OA
BRANCH  20  23
ATOM     23  C   UNL     1       2.138   3.676  19.474  0.00  0.00    +0.000 A 
ATOM     24  C   UNL     1       1.037   3.493  20.289  0.00  0.00    +0.000 A 
ATOM     25  C   UNL     1       1.358   2.775  21.479  0.00  0.00    +0.000 A 
ATOM     26  C   UNL     1       2.694   2.437  21.528  0.00  0.00    +0.000 A 
ATOM     27  S   UNL     1       3.546   2.970  20.144  0.00  0.00    +0.000 S 
ENDBRANCH  20  23
ENDBRANCH  18  20
ENDBRANCH  17  18
ENDBRANCH   2  17
TORSDOF 6
ENDMDL
MODEL 9
REMARK VINA RESULT:      -7.2      2.057      3.868
REMARK  Name = 
REMARK  8 active torsions:
REMARK  status: ('A' for Active; 'I' for Inactive)
REMARK    1  A    between atoms: C_1  and  C_2
REMARK    2  A    between atoms: C_2  and  C_4
REMARK    3  A    between atoms: C_9  and  N_10
REMARK    4  A    between atoms: C_11  and  C_13
REMARK    5  A    between atoms: C_13  and  N_14
REMARK    6  A    between atoms: N_14  and  C_15
REMARK    7  A    between atoms: N_14  and  S_16
REMARK    8  A    between atoms: S_16  and  C_19
REMARK                            x       y       z     vdW  Elec       q    Type
REMARK                         _______ _______ _______ _____ _____    ______ ____
ROOT
ATOM      1  N   UNL     1       3.159   6.452  19.522  0.00  0.00    +0.000 N 
ATOM      2  C   UNL     1       2.309   7.528  19.332  0.00  0.00    +0.000 C 
ATOM      3  O   UNL     1       1.936   7.950  18.235  0.00  0.00    +0.000 OA
ATOM      4  H   UNL     1       3.199   6.050  20.466  0.00  0.00    +0.000 HD
ENDROOT
BRANCH   1  10
ATOM      5  C   UNL     1       3.455   4.341  18.246  0.00  0.00    +0.000 A 
ATOM      6  C   UNL     1       4.045   3.632  17.178  0.00  0.00    +0.000 A 
ATOM      7  C   UNL     1       4.985   4.276  16.407  0.00  0.00    +0.000 A 
ATOM      8  C   UNL     1       5.357   5.567  16.665  0.00  0.00    +0.000 A 
ATOM      9  C   UNL     1       4.796   6.297  17.690  0.00  0.00    +0.000 A 
ATOM     10  C   UNL     1       3.799   5.705  18.488  0.00  0.00    +0.000 A 
ATOM     11  O   UNL     1       6.311   6.016  15.805  0.00  0.00    +0.000 OA
ATOM     12  C   UNL     1       6.484   4.860  14.963  0.00  0.00    +0.000 C 
ATOM     13  O   UNL     1       5.647   3.746  15.346  0.00  0.00    +0.000 OA
BRANCH   5  15
ATOM     14  C   UNL     1       1.520   2.638  18.437  0.00  0.00    +0.000 C 
ATOM     15  C   UNL     1       2.453   3.627  19.096  0.00  0.00    +0.000 C 
ATOM     16  O   UNL     1       2.412   3.842  20.306  0.00  0.00    +0.000 OA
ENDBRANCH   5  15
ENDBRANCH   1  10
BRANCH   2  17
ATOM     17  C   UNL     1       1.728   8.162  20.578  0.00  0.00    +0.000 C 
BRANCH  17  18
ATOM     18  N   UNL     1       0.426   8.877  20.472  0.00  0.00    +0.000 NA
ATOM     19  C   UNL     1      -0.512   8.508  21.562  0.00  0.00    +0.000 C 
BRANCH  18  20
ATOM     20  S   UNL     1       0.663  10.586  20.381  0.00  0.00    +0.000 S 
ATOM     21  O   UNL     1       1.071  11.069  21.682  0.00  0.00    +0.000 OA
ATOM     22  O   UNL     1       1.449  10.858  19.194  0.00  0.00    +0.000 OA
BRANCH  20  23
ATOM     23  C   UNL     1      -0.918  11.339  20.070  0.00  0.00    +0.000 A 
ATOM     24  C   UNL     1      -1.686  12.235  20.791  0.00  0.00    +0.000 A 
ATOM     25  C   UNL     1      -2.905  12.560  20.124  0.00  0.00    +0.000 A 
ATOM     26  C   UNL     1      -3.021  11.900  18.919  0.00  0.00    +0.000 A 
ATOM     27  S   UNL     1      -1.666  10.910  18.592  0.00  0.00    +0.000 S 
ENDBRANCH  20  23
ENDBRANCH  18  20
ENDBRANCH  17  18
ENDBRANCH   2  17
TORSDOF 6
ENDMDL
