MODEL 1
REMARK VINA RESULT:      -6.2      0.000      0.000
REMARK  Name = 
REMARK  2 active torsions:
REMARK  status: ('A' for Active; 'I' for Inactive)
REMARK    1  A    between atoms: C_1  and  N_2
REMARK    2  A    between atoms: C_6  and  C_7
REMARK                            x       y       z     vdW  Elec       q    Type
REMARK                         _______ _______ _______ _____ _____    ______ ____
ROOT
ATOM      1  C   UNL     1       0.117   9.979  20.471  0.00  0.00    +0.000 C 
ATOM      2  O   UNL     1      -0.239   9.994  21.650  0.00  0.00    +0.000 OA
ATOM      3  N   UNL     1       1.081   9.065  20.016  0.00  0.00    +0.000 N 
ATOM      4  C   UNL     1       1.475   7.942  20.856  0.00  0.00    +0.000 C 
ATOM      5  C   UNL     1       1.455   6.656  20.032  0.00  0.00    +0.000 C 
ATOM      6  C   UNL     1       2.283   6.781  18.736  0.00  0.00    +0.000 C 
ATOM      7  C   UNL     1       2.051   8.093  17.971  0.00  0.00    +0.000 C 
ATOM      8  C   UNL     1       1.997   9.300  18.903  0.00  0.00    +0.000 C 
ATOM      9  C   UNL     1       2.056   5.551  17.829  0.00  0.00    +0.000 C 
ATOM     10  N   UNL     1       3.371   5.092  18.148  0.00  0.00    +0.000 N 
ATOM     11  C   UNL     1       3.701   3.784  18.556  0.00  0.00    +0.000 A 
ATOM     12  C   UNL     1       3.038   2.690  17.994  0.00  0.00    +0.000 A 
ATOM     13  C   UNL     1       3.327   1.400  18.431  0.00  0.00    +0.000 A 
ATOM     14  C   UNL     1       4.289   1.224  19.414  0.00  0.00    +0.000 A 
ATOM     15  C   UNL     1       4.926   2.350  19.900  0.00  0.00    +0.000 A 
ATOM     16  N   UNL     1       4.659   3.609  19.497  0.00  0.00    +0.000 NA
ATOM     17  C   UNL     1       3.750   6.298  18.831  0.00  0.00    +0.000 C 
ENDROOT
BRANCH   1  23
ATOM     18  C   UNL     1       0.895  12.949  19.937  0.00  0.00    +0.000 C 
ATOM     19  N   UNL     1      -0.129  12.193  19.249  0.00  0.00    +0.000 N 
ATOM     20  C   UNL     1      -0.889  12.714  18.229  0.00  0.00    +0.000 A 
ATOM     21  C   UNL     1      -1.802  11.764  17.845  0.00  0.00    +0.000 A 
ATOM     22  C   UNL     1      -1.588  10.639  18.666  0.00  0.00    +0.000 A 
ATOM     23  C   UNL     1      -0.487  10.872  19.483  0.00  0.00    +0.000 A 
ENDBRANCH   1  23
TORSDOF 1
ENDMDL
MODEL 2
REMARK VINA RESULT:      -6.2      2.262      8.300
REMARK  Name = 
REMARK  2 active torsions:
REMARK  status: ('A' for Active; 'I' for Inactive)
REMARK    1  A    between atoms: C_1  and  N_2
REMARK    2  A    between atoms: C_6  and  C_7
REMARK                            x       y       z     vdW  Elec       q    Type
REMARK                         _______ _______ _______ _____ _____    ______ ____
ROOT
ATOM      1  C   UNL     1       2.947   5.658  18.175  0.00  0.00    +0.000 C 
ATOM      2  O   UNL     1       3.619   5.891  17.169  0.00  0.00    +0.000 OA
ATOM      3  N   UNL     1       2.589   6.687  19.061  0.00  0.00    +0.000 N 
ATOM      4  C   UNL     1       2.765   8.080  18.671  0.00  0.00    +0.000 C 
ATOM      5  C   UNL     1       1.488   8.861  18.976  0.00  0.00    +0.000 C 
ATOM      6  C   UNL     1       1.029   8.680  20.439  0.00  0.00    +0.000 C 
ATOM      7  C   UNL     1       1.083   7.227  20.933  0.00  0.00    +0.000 C 
ATOM      8  C   UNL     1       2.358   6.515  20.493  0.00  0.00    +0.000 C 
ATOM      9  C   UNL     1      -0.373   9.295  20.645  0.00  0.00    +0.000 C 
ATOM     10  N   UNL     1       0.222  10.362  21.387  0.00  0.00    +0.000 N 
ATOM     11  C   UNL     1      -0.035  11.734  21.189  0.00  0.00    +0.000 A 
ATOM     12  C   UNL     1      -1.326  12.162  20.867  0.00  0.00    +0.000 A 
ATOM     13  C   UNL     1      -1.572  13.510  20.623  0.00  0.00    +0.000 A 
ATOM     14  C   UNL     1      -0.524  14.414  20.722  0.00  0.00    +0.000 A 
ATOM     15  C   UNL     1       0.718  13.921  21.077  0.00  0.00    +0.000 A 
ATOM     16  N   UNL     1       0.982  12.619  21.312  0.00  0.00    +0.000 NA
ATOM     17  C   UNL     1       1.525   9.758  21.433  0.00  0.00    +0.000 C 
ENDROOT
BRANCH   1  23
ATOM     18  C   UNL     1       4.573   3.294  19.390  0.00  0.00    +0.000 C 
ATOM     19  N   UNL     1       3.178   3.270  19.008  0.00  0.00    +0.000 N 
ATOM     20  C   UNL     1       2.376   2.164  19.163  0.00  0.00    +0.000 A 
ATOM     21  C   UNL     1       1.139   2.453  18.645  0.00  0.00    +0.000 A 
ATOM     22  C   UNL     1       1.202   3.774  18.156  0.00  0.00    +0.000 A 
ATOM     23  C   UNL     1       2.446   4.315  18.461  0.00  0.00    +0.000 A 
ENDBRANCH   1  23
TORSDOF 1
ENDMDL
MODEL 3
REMARK VINA RESULT:      -6.2      2.472      8.240
REMARK  Name = 
REMARK  2 active torsions:
REMARK  status: ('A' for Active; 'I' for Inactive)
REMARK    1  A    between atoms: C_1  and  N_2
REMARK    2  A    between atoms: C_6  and  C_7
REMARK                            x       y       z     vdW  Elec       q    Type
REMARK                         _______ _______ _______ _____ _____    ______ ____
ROOT
ATOM      1  C   UNL     1       3.244   6.040  19.166  0.00  0.00    +0.000 C 
ATOM      2  O   UNL     1       3.394   5.246  20.096  0.00  0.00    +0.000 OA
ATOM      3  N   UNL     1       2.280   7.060  19.232  0.00  0.00    +0.000 N 
ATOM      4  C   UNL     1       1.634   7.372  20.500  0.00  0.00    +0.000 C 
ATOM      5  C   UNL     1       1.659   8.882  20.727  0.00  0.00    +0.000 C 
ATOM      6  C   UNL     1       1.081   9.663  19.528  0.00  0.00    +0.000 C 
ATOM      7  C   UNL     1       1.576   9.163  18.162  0.00  0.00    +0.000 C 
ATOM      8  C   UNL     1       1.597   7.640  18.079  0.00  0.00    +0.000 C 
ATOM      9  C   UNL     1       1.328  11.178  19.699  0.00  0.00    +0.000 C 
ATOM     10  N   UNL     1      -0.063  11.359  19.972  0.00  0.00    +0.000 N 
ATOM     11  C   UNL     1      -0.592  12.091  21.054  0.00  0.00    +0.000 A 
ATOM     12  C   UNL     1       0.038  13.264  21.476  0.00  0.00    +0.000 A 
ATOM     13  C   UNL     1      -0.454  13.962  22.576  0.00  0.00    +0.000 A 
ATOM     14  C   UNL     1      -1.583  13.484  23.225  0.00  0.00    +0.000 A 
ATOM     15  C   UNL     1      -2.171  12.336  22.730  0.00  0.00    +0.000 A 
ATOM     16  N   UNL     1      -1.709  11.639  21.672  0.00  0.00    +0.000 NA
ATOM     17  C   UNL     1      -0.424  10.013  19.622  0.00  0.00    +0.000 C 
ENDROOT
BRANCH   1  23
ATOM     18  C   UNL     1       3.505   3.664  17.167  0.00  0.00    +0.000 C 
ATOM     19  N   UNL     1       4.202   4.930  17.092  0.00  0.00    +0.000 N 
ATOM     20  C   UNL     1       5.076   5.246  16.079  0.00  0.00    +0.000 A 
ATOM     21  C   UNL     1       5.608   6.483  16.342  0.00  0.00    +0.000 A 
ATOM     22  C   UNL     1       5.041   6.921  17.556  0.00  0.00    +0.000 A 
ATOM     23  C   UNL     1       4.097   5.992  17.980  0.00  0.00    +0.000 A 
ENDBRANCH   1  23
TORSDOF 1
ENDMDL
MODEL 4
REMARK VINA RESULT:      -6.1      2.179      8.292
REMARK  Name = 
REMARK  2 active torsions:
REMARK  status: ('A' for Active; 'I' for Inactive)
REMARK    1  A    between atoms: C_1  and  N_2
REMARK    2  A    between atoms: C_6  and  C_7
REMARK                            x       y       z     vdW  Elec       q    Type
REMARK                         _______ _______ _______ _____ _____    ______ ____
ROOT
ATOM      1  C   UNL     1       3.575   5.389  19.632  0.00  0.00    +0.000 C 
ATOM      2  O   UNL     1       3.290   4.751  20.646  0.00  0.00    +0.000 OA
ATOM      3  N   UNL     1       2.739   6.415  19.161  0.00  0.00    +0.000 N 
ATOM      4  C   UNL     1       1.669   6.929  20.006  0.00  0.00    +0.000 C 
ATOM      5  C   UNL     1       1.710   8.456  20.009  0.00  0.00    +0.000 C 
ATOM      6  C   UNL     1       1.708   9.042  18.581  0.00  0.00    +0.000 C 
ATOM      7  C   UNL     1       2.664   8.328  17.613  0.00  0.00    +0.000 C 
ATOM      8  C   UNL     1       2.608   6.811  17.762  0.00  0.00    +0.000 C 
ATOM      9  C   UNL     1       1.975  10.563  18.620  0.00  0.00    +0.000 C 
ATOM     10  N   UNL     1       0.606  10.796  18.285  0.00  0.00    +0.000 N 
ATOM     11  C   UNL     1      -0.253  11.695  18.949  0.00  0.00    +0.000 A 
ATOM     12  C   UNL     1       0.242  12.915  19.418  0.00  0.00    +0.000 A 
ATOM     13  C   UNL     1      -0.593  13.782  20.118  0.00  0.00    +0.000 A 
ATOM     14  C   UNL     1      -1.917  13.423  20.322  0.00  0.00    +0.000 A 
ATOM     15  C   UNL     1      -2.343  12.216  19.801  0.00  0.00    +0.000 A 
ATOM     16  N   UNL     1      -1.552  11.356  19.126  0.00  0.00    +0.000 NA
ATOM     17  C   UNL     1       0.317   9.415  18.014  0.00  0.00    +0.000 C 
ENDROOT
BRANCH   1  23
ATOM     18  C   UNL     1       3.981   3.409  17.260  0.00  0.00    +0.000 C 
ATOM     19  N   UNL     1       4.990   4.265  17.847  0.00  0.00    +0.000 N 
ATOM     20  C   UNL     1       6.286   4.318  17.391  0.00  0.00    +0.000 A 
ATOM     21  C   UNL     1       6.991   5.173  18.201  0.00  0.00    +0.000 A 
ATOM     22  C   UNL     1       6.091   5.643  19.178  0.00  0.00    +0.000 A 
ATOM     23  C   UNL     1       4.820   5.146  18.906  0.00  0.00    +0.000 A 
ENDBRANCH   1  23
TORSDOF 1
ENDMDL
MODEL 5
REMARK VINA RESULT:      -6.0      2.161      8.276
REMARK  Name = 
REMARK  2 active torsions:
REMARK  status: ('A' for Active; 'I' for Inactive)
REMARK    1  A    between atoms: C_1  and  N_2
REMARK    2  A    between atoms: C_6  and  C_7
REMARK                            x       y       z     vdW  Elec       q    Type
REMARK                         _______ _______ _______ _____ _____    ______ ____
ROOT
ATOM      1  C   UNL     1       3.022   5.364  18.065  0.00  0.00    +0.000 C 
ATOM      2  O   UNL     1       3.775   5.368  17.090  0.00  0.00    +0.000 OA
ATOM      3  N   UNL     1       2.718   6.550  18.752  0.00  0.00    +0.000 N 
ATOM      4  C   UNL     1       3.061   7.840  18.168  0.00  0.00    +0.000 C 
ATOM      5  C   UNL     1       1.856   8.774  18.249  0.00  0.00    +0.000 C 
ATOM      6  C   UNL     1       1.290   8.874  19.682  0.00  0.00    +0.000 C 
ATOM      7  C   UNL     1       1.162   7.520  20.397  0.00  0.00    +0.000 C 
ATOM      8  C   UNL     1       2.382   6.632  20.171  0.00  0.00    +0.000 C 
ATOM      9  C   UNL     1      -0.050   9.641  19.682  0.00  0.00    +0.000 C 
ATOM     10  N   UNL     1       0.605  10.754  20.295  0.00  0.00    +0.000 N 
ATOM     11  C   UNL     1       0.504  12.094  19.869  0.00  0.00    +0.000 A 
ATOM     12  C   UNL     1      -0.713  12.582  19.386  0.00  0.00    +0.000 A 
ATOM     13  C   UNL     1      -0.802  13.891  18.919  0.00  0.00    +0.000 A 
ATOM     14  C   UNL     1       0.325  14.697  18.959  0.00  0.00    +0.000 A 
ATOM     15  C   UNL     1       1.485  14.156  19.481  0.00  0.00    +0.000 A 
ATOM     16  N   UNL     1       1.598  12.890  19.933  0.00  0.00    +0.000 NA
ATOM     17  C   UNL     1       1.832  10.047  20.534  0.00  0.00    +0.000 C 
ENDROOT
BRANCH   1  23
ATOM     18  C   UNL     1       4.336   3.052  19.689  0.00  0.00    +0.000 C 
ATOM     19  N   UNL     1       2.960   3.114  19.242  0.00  0.00    +0.000 N 
ATOM     20  C   UNL     1       2.038   2.131  19.513  0.00  0.00    +0.000 A 
ATOM     21  C   UNL     1       0.859   2.465  18.896  0.00  0.00    +0.000 A 
ATOM     22  C   UNL     1       1.083   3.686  18.226  0.00  0.00    +0.000 A 
ATOM     23  C   UNL     1       2.367   4.136  18.514  0.00  0.00    +0.000 A 
ENDBRANCH   1  23
TORSDOF 1
ENDMDL
MODEL 6
REMARK VINA RESULT:      -6.0      9.392     11.044
REMARK  Name = 
REMARK  2 active torsions:
REMARK  status: ('A' for Active; 'I' for Inactive)
REMARK    1  A    between atoms: C_1  and  N_2
REMARK    2  A    between atoms: C_6  and  C_7
REMARK                            x       y       z     vdW  Elec       q    Type
REMARK                         _______ _______ _______ _____ _____    ______ ____
ROOT
ATOM      1  C   UNL     1       8.414  14.115  19.312  0.00  0.00    +0.000 C 
ATOM      2  O   UNL     1       7.619  14.835  18.706  0.00  0.00    +0.000 OA
ATOM      3  N   UNL     1       8.357  13.990  20.710  0.00  0.00    +0.000 N 
ATOM      4  C   UNL     1       7.197  14.484  21.440  0.00  0.00    +0.000 C 
ATOM      5  C   UNL     1       6.717  13.415  22.420  0.00  0.00    +0.000 C 
ATOM      6  C   UNL     1       7.854  12.908  23.332  0.00  0.00    +0.000 C 
ATOM      7  C   UNL     1       9.169  12.623  22.590  0.00  0.00    +0.000 C 
ATOM      8  C   UNL     1       9.502  13.708  21.571  0.00  0.00    +0.000 C 
ATOM      9  C   UNL     1       7.387  11.680  24.146  0.00  0.00    +0.000 C 
ATOM     10  N   UNL     1       7.351  12.493  25.321  0.00  0.00    +0.000 N 
ATOM     11  C   UNL     1       6.278  12.558  26.234  0.00  0.00    +0.000 A 
ATOM     12  C   UNL     1       5.554  11.403  26.542  0.00  0.00    +0.000 A 
ATOM     13  C   UNL     1       4.464  11.474  27.404  0.00  0.00    +0.000 A 
ATOM     14  C   UNL     1       4.125  12.699  27.960  0.00  0.00    +0.000 A 
ATOM     15  C   UNL     1       4.907  13.791  27.635  0.00  0.00    +0.000 A 
ATOM     16  N   UNL     1       5.963  13.748  26.797  0.00  0.00    +0.000 NA
ATOM     17  C   UNL     1       7.983  13.623  24.699  0.00  0.00    +0.000 C 
ENDROOT
BRANCH   1  23
ATOM     18  C   UNL     1      10.982  15.185  17.909  0.00  0.00    +0.000 C 
ATOM     19  N   UNL     1      10.556  13.803  17.984  0.00  0.00    +0.000 N 
ATOM     20  C   UNL     1      11.276  12.766  17.443  0.00  0.00    +0.000 A 
ATOM     21  C   UNL     1      10.568  11.606  17.632  0.00  0.00    +0.000 A 
ATOM     22  C   UNL     1       9.380  11.960  18.303  0.00  0.00    +0.000 A 
ATOM     23  C   UNL     1       9.412  13.318  18.602  0.00  0.00    +0.000 A 
ENDBRANCH   1  23
TORSDOF 1
ENDMDL
MODEL 7
REMARK VINA RESULT:      -5.8      0.624      1.293
REMARK  Name = 
REMARK  2 active torsions:
REMARK  status: ('A' for Active; 'I' for Inactive)
REMARK    1  A    between atoms: C_1  and  N_2
REMARK    2  A    between atoms: C_6  and  C_7
REMARK                            x       y       z     vdW  Elec       q    Type
REMARK                         _______ _______ _______ _____ _____    ______ ____
ROOT
ATOM      1  C   UNL     1       0.363  10.430  20.508  0.00  0.00    +0.000 C 
ATOM      2  O   UNL     1       0.013  10.427  21.689  0.00  0.00    +0.000 OA
ATOM      3  N   UNL     1       1.249   9.459  20.012  0.00  0.00    +0.000 N 
ATOM      4  C   UNL     1       1.552   8.275  20.805  0.00  0.00    +0.000 C 
ATOM      5  C   UNL     1       1.424   7.029  19.931  0.00  0.00    +0.000 C 
ATOM      6  C   UNL     1       2.257   7.138  18.635  0.00  0.00    +0.000 C 
ATOM      7  C   UNL     1       2.130   8.494  17.925  0.00  0.00    +0.000 C 
ATOM      8  C   UNL     1       2.177   9.663  18.904  0.00  0.00    +0.000 C 
ATOM      9  C   UNL     1       1.928   5.968  17.682  0.00  0.00    +0.000 C 
ATOM     10  N   UNL     1       3.202   5.391  17.975  0.00  0.00    +0.000 N 
ATOM     11  C   UNL     1       3.425   4.045  18.329  0.00  0.00    +0.000 A 
ATOM     12  C   UNL     1       2.673   3.032  17.727  0.00  0.00    +0.000 A 
ATOM     13  C   UNL     1       2.857   1.707  18.112  0.00  0.00    +0.000 A 
ATOM     14  C   UNL     1       3.804   1.413  19.082  0.00  0.00    +0.000 A 
ATOM     15  C   UNL     1       4.532   2.463  19.608  0.00  0.00    +0.000 A 
ATOM     16  N   UNL     1       4.367   3.755  19.257  0.00  0.00    +0.000 NA
ATOM     17  C   UNL     1       3.680   6.533  18.704  0.00  0.00    +0.000 C 
ENDROOT
BRANCH   1  23
ATOM     18  C   UNL     1      -1.795   9.908  18.323  0.00  0.00    +0.000 C 
ATOM     19  N   UNL     1      -1.134  11.166  18.593  0.00  0.00    +0.000 N 
ATOM     20  C   UNL     1      -1.410  12.323  17.903  0.00  0.00    +0.000 A 
ATOM     21  C   UNL     1      -0.570  13.307  18.359  0.00  0.00    +0.000 A 
ATOM     22  C   UNL     1       0.243  12.720  19.351  0.00  0.00    +0.000 A 
ATOM     23  C   UNL     1      -0.168  11.408  19.560  0.00  0.00    +0.000 A 
ENDBRANCH   1  23
TORSDOF 1
ENDMDL
MODEL 8
REMARK VINA RESULT:      -5.7      9.312     11.057
REMARK  Name = 
REMARK  2 active torsions:
REMARK  status: ('A' for Active; 'I' for Inactive)
REMARK    1  A    between atoms: C_1  and  N_2
REMARK    2  A    between atoms: C_6  and  C_7
REMARK                            x       y       z     vdW  Elec       q    Type
REMARK                         _______ _______ _______ _____ _____    ______ ____
ROOT
ATOM      1  C   UNL     1       8.665  14.757  18.883  0.00  0.00    +0.000 C 
ATOM      2  O   UNL     1       7.778  15.399  18.320  0.00  0.00    +0.000 OA
ATOM      3  N   UNL     1       8.623  14.522  20.267  0.00  0.00    +0.000 N 
ATOM      4  C   UNL     1       7.403  14.790  21.015  0.00  0.00    +0.000 C 
ATOM      5  C   UNL     1       7.079  13.594  21.909  0.00  0.00    +0.000 C 
ATOM      6  C   UNL     1       8.274  13.188  22.796  0.00  0.00    +0.000 C 
ATOM      7  C   UNL     1       9.618  13.149  22.053  0.00  0.00    +0.000 C 
ATOM      8  C   UNL     1       9.794  14.343  21.120  0.00  0.00    +0.000 C 
ATOM      9  C   UNL     1       7.986  11.850  23.513  0.00  0.00    +0.000 C 
ATOM     10  N   UNL     1       7.830  12.560  24.743  0.00  0.00    +0.000 N 
ATOM     11  C   UNL     1       6.757  12.403  25.644  0.00  0.00    +0.000 A 
ATOM     12  C   UNL     1       6.205  11.137  25.857  0.00  0.00    +0.000 A 
ATOM     13  C   UNL     1       5.114  10.988  26.708  0.00  0.00    +0.000 A 
ATOM     14  C   UNL     1       4.601  12.108  27.347  0.00  0.00    +0.000 A 
ATOM     15  C   UNL     1       5.220  13.321  27.113  0.00  0.00    +0.000 A 
ATOM     16  N   UNL     1       6.273  13.492  26.288  0.00  0.00    +0.000 NA
ATOM     17  C   UNL     1       8.296  13.811  24.213  0.00  0.00    +0.000 C 
ENDROOT
BRANCH   1  23
ATOM     18  C   UNL     1       9.108  11.724  18.321  0.00  0.00    +0.000 C 
ATOM     19  N   UNL     1       9.955  12.812  17.880  0.00  0.00    +0.000 N 
ATOM     20  C   UNL     1      11.082  12.623  17.117  0.00  0.00    +0.000 A 
ATOM     21  C   UNL     1      11.685  13.842  16.931  0.00  0.00    +0.000 A 
ATOM     22  C   UNL     1      10.897  14.793  17.611  0.00  0.00    +0.000 A 
ATOM     23  C   UNL     1       9.769  14.165  18.130  0.00  0.00    +0.000 A 
ENDBRANCH   1  23
TORSDOF 1
ENDMDL
MODEL 9
REMARK VINA RESULT:      -5.6      6.260      8.545
REMARK  Name = 
REMARK  2 active torsions:
REMARK  status: ('A' for Active; 'I' for Inactive)
REMARK    1  A    between atoms: C_1  and  N_2
REMARK    2  A    between atoms: C_6  and  C_7
REMARK                            x       y       z     vdW  Elec       q    Type
REMARK                         _______ _______ _______ _____ _____    ______ ____
ROOT
ATOM      1  C   UNL     1       3.409  16.444  19.551  0.00  0.00    +0.000 C 
ATOM      2  O   UNL     1       3.151  17.487  18.949  0.00  0.00    +0.000 OA
ATOM      3  N   UNL     1       2.415  15.482  19.795  0.00  0.00    +0.000 N 
ATOM      4  C   UNL     1       1.133  15.567  19.108  0.00  0.00    +0.000 C 
ATOM      5  C   UNL     1       0.773  14.201  18.528  0.00  0.00    +0.000 C 
ATOM      6  C   UNL     1       0.834  13.082  19.590  0.00  0.00    +0.000 C 
ATOM      7  C   UNL     1       2.078  13.143  20.489  0.00  0.00    +0.000 C 
ATOM      8  C   UNL     1       2.398  14.567  20.933  0.00  0.00    +0.000 C 
ATOM      9  C   UNL     1       0.686  11.696  18.925  0.00  0.00    +0.000 C 
ATOM     10  N   UNL     1      -0.630  11.591  19.472  0.00  0.00    +0.000 N 
ATOM     11  C   UNL     1      -1.784  11.220  18.753  0.00  0.00    +0.000 A 
ATOM     12  C   UNL     1      -1.702  10.242  17.758  0.00  0.00    +0.000 A 
ATOM     13  C   UNL     1      -2.830   9.910  17.013  0.00  0.00    +0.000 A 
ATOM     14  C   UNL     1      -4.029  10.551  17.286  0.00  0.00    +0.000 A 
ATOM     15  C   UNL     1      -4.042  11.484  18.306  0.00  0.00    +0.000 A 
ATOM     16  N   UNL     1      -2.961  11.827  19.037  0.00  0.00    +0.000 NA
ATOM     17  C   UNL     1      -0.504  12.760  20.298  0.00  0.00    +0.000 C 
ENDROOT
BRANCH   1  23
ATOM     18  C   UNL     1       5.500  14.715  18.018  0.00  0.00    +0.000 C 
ATOM     19  N   UNL     1       5.696  15.368  19.295  0.00  0.00    +0.000 N 
ATOM     20  C   UNL     1       6.879  15.314  19.991  0.00  0.00    +0.000 A 
ATOM     21  C   UNL     1       6.709  15.978  21.181  0.00  0.00    +0.000 A 
ATOM     22  C   UNL     1       5.377  16.439  21.202  0.00  0.00    +0.000 A 
ATOM     23  C   UNL     1       4.769  16.136  19.988  0.00  0.00    +0.000 A 
ENDBRANCH   1  23
TORSDOF 1
ENDMDL
