MODEL 1
REMARK VINA RESULT:      -7.1      0.000      0.000
REMARK  Name = 
REMARK  7 active torsions:
REMARK  status: ('A' for Active; 'I' for Inactive)
REMARK    1  A    between atoms: C_1  and  C_2
REMARK    2  A    between atoms: C_6  and  S_7
REMARK    3  A    between atoms: S_7  and  C_8
REMARK    4  A    between atoms: C_8  and  C_9
REMARK    5  A    between atoms: N_11  and  C_12
REMARK    6  A    between atoms: C_12  and  C_13
REMARK    7  A    between atoms: N_18  and  C_19
REMARK                            x       y       z     vdW  Elec       q    Type
REMARK                         _______ _______ _______ _____ _____    ______ ____
ROOT
ATOM      1  C   UNL     1       1.535   2.409  22.223  0.00  0.00    +0.000 C 
ATOM      2  C   UNL     1       0.915   2.726  20.861  0.00  0.00    +0.000 C 
ATOM      3  C   UNL     1       0.991   4.225  20.482  0.00  0.00    +0.000 C 
ATOM      4  C   UNL     1       2.038   4.408  19.409  0.00  0.00    +0.000 A 
ATOM      5  N   UNL     1       2.531   5.646  19.111  0.00  0.00    +0.000 NA
ATOM      6  C   UNL     1       3.480   5.705  18.222  0.00  0.00    +0.000 A 
ATOM      7  N   UNL     1       4.036   4.580  17.585  0.00  0.00    +0.000 N 
ATOM      8  C   UNL     1       3.587   3.290  17.908  0.00  0.00    +0.000 A 
ATOM      9  O   UNL     1       4.056   2.241  17.471  0.00  0.00    +0.000 OA
ATOM     10  C   UNL     1       2.459   3.259  18.866  0.00  0.00    +0.000 A 
ATOM     11  S   UNL     1       1.756   1.828  19.491  0.00  0.00    +0.000 S 
ENDROOT
BRANCH   7  12
ATOM     12  C   UNL     1       5.102   4.674  16.624  0.00  0.00    +0.000 A 
ATOM     13  C   UNL     1       6.435   4.787  17.039  0.00  0.00    +0.000 A 
ATOM     14  C   UNL     1       7.468   4.851  16.098  0.00  0.00    +0.000 A 
ATOM     15  C   UNL     1       7.177   4.821  14.737  0.00  0.00    +0.000 A 
ATOM     16  C   UNL     1       5.852   4.741  14.311  0.00  0.00    +0.000 A 
ATOM     17  C   UNL     1       4.819   4.680  15.249  0.00  0.00    +0.000 A 
ENDBRANCH   7  12
BRANCH   6  18
ATOM     18  S   UNL     1       4.140   7.297  17.839  0.00  0.00    +0.000 S 
BRANCH  18  19
ATOM     19  C   UNL     1       2.749   8.204  17.122  0.00  0.00    +0.000 C 
BRANCH  19  20
ATOM     20  C   UNL     1       1.952   8.918  18.194  0.00  0.00    +0.000 C 
ATOM     21  O   UNL     1       1.953   8.545  19.363  0.00  0.00    +0.000 OA
ATOM     22  N   UNL     1       1.260  10.025  17.765  0.00  0.00    +0.000 N 
ATOM     23  H   UNL     1       1.434  10.379  16.829  0.00  0.00    +0.000 HD
BRANCH  22  24
ATOM     24  C   UNL     1       0.501  10.868  18.671  0.00  0.00    +0.000 C 
BRANCH  24  25
ATOM     25  C   UNL     1      -0.985  10.500  18.737  0.00  0.00    +0.000 C 
ATOM     26  C   UNL     1      -1.580   9.959  17.447  0.00  0.00    +0.000 C 
ATOM     27  C   UNL     1      -3.046  10.260  17.613  0.00  0.00    +0.000 C 
ATOM     28  C   UNL     1      -3.029  11.543  18.403  0.00  0.00    +0.000 C 
ATOM     29  O   UNL     1      -1.769  11.654  19.070  0.00  0.00    +0.000 OA
ENDBRANCH  24  25
ENDBRANCH  22  24
ENDBRANCH  19  20
ENDBRANCH  18  19
ENDBRANCH   6  18
TORSDOF 6
ENDMDL
MODEL 2
REMARK VINA RESULT:      -7.0      2.142      5.040
REMARK  Name = 
REMARK  7 active torsions:
REMARK  status: ('A' for Active; 'I' for Inactive)
REMARK    1  A    between atoms: C_1  and  C_2
REMARK    2  A    between atoms: C_6  and  S_7
REMARK    3  A    between atoms: S_7  and  C_8
REMARK    4  A    between atoms: C_8  and  C_9
REMARK    5  A    between atoms: N_11  and  C_12
REMARK    6  A    between atoms: C_12  and  C_13
REMARK    7  A    between atoms: N_18  and  C_19
REMARK                            x       y       z     vdW  Elec       q    Type
REMARK                         _______ _______ _______ _____ _____    ______ ____
ROOT
ATOM      1  C   UNL     1       5.300   4.258  12.905  0.00  0.00    +0.000 C 
ATOM      2  C   UNL     1       6.119   4.417  14.187  0.00  0.00    +0.000 C 
ATOM      3  C   UNL     1       5.760   5.686  14.997  0.00  0.00    +0.000 C 
ATOM      4  C   UNL     1       4.979   5.281  16.224  0.00  0.00    +0.000 A 
ATOM      5  N   UNL     1       4.274   6.201  16.946  0.00  0.00    +0.000 NA
ATOM      6  C   UNL     1       3.574   5.755  17.948  0.00  0.00    +0.000 A 
ATOM      7  N   UNL     1       3.482   4.397  18.305  0.00  0.00    +0.000 N 
ATOM      8  C   UNL     1       4.153   3.420  17.552  0.00  0.00    +0.000 A 
ATOM      9  O   UNL     1       4.077   2.206  17.727  0.00  0.00    +0.000 OA
ATOM     10  C   UNL     1       4.998   3.964  16.464  0.00  0.00    +0.000 A 
ATOM     11  S   UNL     1       5.872   3.007  15.345  0.00  0.00    +0.000 S 
ENDROOT
BRANCH   7  12
ATOM     12  C   UNL     1       2.680   3.930  19.403  0.00  0.00    +0.000 A 
ATOM     13  C   UNL     1       3.262   3.636  20.643  0.00  0.00    +0.000 A 
ATOM     14  C   UNL     1       2.472   3.208  21.715  0.00  0.00    +0.000 A 
ATOM     15  C   UNL     1       1.097   3.050  21.552  0.00  0.00    +0.000 A 
ATOM     16  C   UNL     1       0.511   3.308  20.314  0.00  0.00    +0.000 A 
ATOM     17  C   UNL     1       1.299   3.734  19.241  0.00  0.00    +0.000 A 
ENDBRANCH   7  12
BRANCH   6  18
ATOM     18  S   UNL     1       2.643   6.931  18.880  0.00  0.00    +0.000 S 
BRANCH  18  19
ATOM     19  C   UNL     1       2.072   8.132  17.654  0.00  0.00    +0.000 C 
BRANCH  19  20
ATOM     20  C   UNL     1       1.620   9.416  18.316  0.00  0.00    +0.000 C 
ATOM     21  O   UNL     1       2.258  10.459  18.218  0.00  0.00    +0.000 OA
ATOM     22  N   UNL     1       0.432   9.330  19.003  0.00  0.00    +0.000 N 
ATOM     23  H   UNL     1      -0.129   8.490  18.905  0.00  0.00    +0.000 HD
BRANCH  22  24
ATOM     24  C   UNL     1      -0.184  10.481  19.639  0.00  0.00    +0.000 C 
BRANCH  24  25
ATOM     25  C   UNL     1       0.108  10.570  21.141  0.00  0.00    +0.000 C 
ATOM     26  C   UNL     1       0.153   9.240  21.875  0.00  0.00    +0.000 C 
ATOM     27  C   UNL     1      -0.149   9.643  23.295  0.00  0.00    +0.000 C 
ATOM     28  C   UNL     1      -1.088  10.805  23.113  0.00  0.00    +0.000 C 
ATOM     29  O   UNL     1      -0.904  11.342  21.800  0.00  0.00    +0.000 OA
ENDBRANCH  24  25
ENDBRANCH  22  24
ENDBRANCH  19  20
ENDBRANCH  18  19
ENDBRANCH   6  18
TORSDOF 6
ENDMDL
MODEL 3
REMARK VINA RESULT:      -7.0      1.700      2.268
REMARK  Name = 
REMARK  7 active torsions:
REMARK  status: ('A' for Active; 'I' for Inactive)
REMARK    1  A    between atoms: C_1  and  C_2
REMARK    2  A    between atoms: C_6  and  S_7
REMARK    3  A    between atoms: S_7  and  C_8
REMARK    4  A    between atoms: C_8  and  C_9
REMARK    5  A    between atoms: N_11  and  C_12
REMARK    6  A    between atoms: C_12  and  C_13
REMARK    7  A    between atoms: N_18  and  C_19
REMARK                            x       y       z     vdW  Elec       q    Type
REMARK                         _______ _______ _______ _____ _____    ______ ____
ROOT
ATOM      1  C   UNL     1       1.582   2.571  22.249  0.00  0.00    +0.000 C 
ATOM      2  C   UNL     1       0.985   2.691  20.846  0.00  0.00    +0.000 C 
ATOM      3  C   UNL     1       0.849   4.153  20.355  0.00  0.00    +0.000 C 
ATOM      4  C   UNL     1       1.904   4.420  19.309  0.00  0.00    +0.000 A 
ATOM      5  N   UNL     1       2.217   5.695  18.933  0.00  0.00    +0.000 NA
ATOM      6  C   UNL     1       3.186   5.837  18.076  0.00  0.00    +0.000 A 
ATOM      7  N   UNL     1       3.935   4.770  17.547  0.00  0.00    +0.000 N 
ATOM      8  C   UNL     1       3.673   3.452  17.953  0.00  0.00    +0.000 A 
ATOM      9  O   UNL     1       4.316   2.460  17.615  0.00  0.00    +0.000 OA
ATOM     10  C   UNL     1       2.520   3.314  18.871  0.00  0.00    +0.000 A 
ATOM     11  S   UNL     1       2.015   1.840  19.579  0.00  0.00    +0.000 S 
ENDROOT
BRANCH   7  12
ATOM     12  C   UNL     1       5.018   4.960  16.620  0.00  0.00    +0.000 A 
ATOM     13  C   UNL     1       4.856   4.670  15.259  0.00  0.00    +0.000 A 
ATOM     14  C   UNL     1       5.906   4.882  14.358  0.00  0.00    +0.000 A 
ATOM     15  C   UNL     1       7.130   5.366  14.813  0.00  0.00    +0.000 A 
ATOM     16  C   UNL     1       7.313   5.628  16.170  0.00  0.00    +0.000 A 
ATOM     17  C   UNL     1       6.267   5.414  17.071  0.00  0.00    +0.000 A 
ENDBRANCH   7  12
BRANCH   6  18
ATOM     18  S   UNL     1       3.613   7.482  17.594  0.00  0.00    +0.000 S 
BRANCH  18  19
ATOM     19  C   UNL     1       2.024   8.301  17.321  0.00  0.00    +0.000 C 
BRANCH  19  20
ATOM     20  C   UNL     1       1.940   9.602  18.092  0.00  0.00    +0.000 C 
ATOM     21  O   UNL     1       2.746  10.512  17.923  0.00  0.00    +0.000 OA
ATOM     22  N   UNL     1       0.883   9.694  18.965  0.00  0.00    +0.000 N 
ATOM     23  H   UNL     1       0.160   8.981  18.935  0.00  0.00    +0.000 HD
BRANCH  22  24
ATOM     24  C   UNL     1       0.611  10.895  19.734  0.00  0.00    +0.000 C 
BRANCH  24  25
ATOM     25  C   UNL     1       0.646  10.665  21.248  0.00  0.00    +0.000 C 
ATOM     26  C   UNL     1       0.504   9.218  21.691  0.00  0.00    +0.000 C 
ATOM     27  C   UNL     1      -0.017   9.358  23.097  0.00  0.00    +0.000 C 
ATOM     28  C   UNL     1      -0.857  10.605  23.013  0.00  0.00    +0.000 C 
ATOM     29  O   UNL     1      -0.427  11.372  21.885  0.00  0.00    +0.000 OA
ENDBRANCH  24  25
ENDBRANCH  22  24
ENDBRANCH  19  20
ENDBRANCH  18  19
ENDBRANCH   6  18
TORSDOF 6
ENDMDL
MODEL 4
REMARK VINA RESULT:      -6.9      0.919      1.344
REMARK  Name = 
REMARK  7 active torsions:
REMARK  status: ('A' for Active; 'I' for Inactive)
REMARK    1  A    between atoms: C_1  and  C_2
REMARK    2  A    between atoms: C_6  and  S_7
REMARK    3  A    between atoms: S_7  and  C_8
REMARK    4  A    between atoms: C_8  and  C_9
REMARK    5  A    between atoms: N_11  and  C_12
REMARK    6  A    between atoms: C_12  and  C_13
REMARK    7  A    between atoms: N_18  and  C_19
REMARK                            x       y       z     vdW  Elec       q    Type
REMARK                         _______ _______ _______ _____ _____    ______ ____
ROOT
ATOM      1  C   UNL     1       1.571   2.659  22.295  0.00  0.00    +0.000 C 
ATOM      2  C   UNL     1       0.948   2.839  20.909  0.00  0.00    +0.000 C 
ATOM      3  C   UNL     1       0.929   4.309  20.426  0.00  0.00    +0.000 C 
ATOM      4  C   UNL     1       1.975   4.487  19.351  0.00  0.00    +0.000 A 
ATOM      5  N   UNL     1       2.389   5.731  18.970  0.00  0.00    +0.000 NA
ATOM      6  C   UNL     1       3.342   5.790  18.086  0.00  0.00    +0.000 A 
ATOM      7  N   UNL     1       3.979   4.664  17.534  0.00  0.00    +0.000 N 
ATOM      8  C   UNL     1       3.612   3.372  17.944  0.00  0.00    +0.000 A 
ATOM      9  O   UNL     1       4.155   2.329  17.586  0.00  0.00    +0.000 OA
ATOM     10  C   UNL     1       2.477   3.333  18.893  0.00  0.00    +0.000 A 
ATOM     11  S   UNL     1       1.863   1.905  19.612  0.00  0.00    +0.000 S 
ENDROOT
BRANCH   7  12
ATOM     12  C   UNL     1       5.048   4.761  16.577  0.00  0.00    +0.000 A 
ATOM     13  C   UNL     1       4.805   4.585  15.209  0.00  0.00    +0.000 A 
ATOM     14  C   UNL     1       5.845   4.707  14.281  0.00  0.00    +0.000 A 
ATOM     15  C   UNL     1       7.139   4.987  14.714  0.00  0.00    +0.000 A 
ATOM     16  C   UNL     1       7.400   5.132  16.076  0.00  0.00    +0.000 A 
ATOM     17  C   UNL     1       6.363   5.008  17.004  0.00  0.00    +0.000 A 
ENDBRANCH   7  12
BRANCH   6  18
ATOM     18  S   UNL     1       3.900   7.393  17.596  0.00  0.00    +0.000 S 
BRANCH  18  19
ATOM     19  C   UNL     1       2.389   8.285  17.157  0.00  0.00    +0.000 C 
BRANCH  19  20
ATOM     20  C   UNL     1       2.086   9.374  18.164  0.00  0.00    +0.000 C 
ATOM     21  O   UNL     1       2.557  10.503  18.064  0.00  0.00    +0.000 OA
ATOM     22  N   UNL     1       1.224   9.012  19.172  0.00  0.00    +0.000 N 
ATOM     23  H   UNL     1       0.739   8.122  19.105  0.00  0.00    +0.000 HD
BRANCH  22  24
ATOM     24  C   UNL     1       0.771   9.950  20.183  0.00  0.00    +0.000 C 
BRANCH  24  25
ATOM     25  C   UNL     1      -0.452  10.765  19.747  0.00  0.00    +0.000 C 
ATOM     26  C   UNL     1      -1.194  10.227  18.535  0.00  0.00    +0.000 C 
ATOM     27  C   UNL     1      -1.889  11.456  18.009  0.00  0.00    +0.000 C 
ATOM     28  C   UNL     1      -0.915  12.553  18.347  0.00  0.00    +0.000 C 
ATOM     29  O   UNL     1      -0.063  12.101  19.403  0.00  0.00    +0.000 OA
ENDBRANCH  24  25
ENDBRANCH  22  24
ENDBRANCH  19  20
ENDBRANCH  18  19
ENDBRANCH   6  18
TORSDOF 6
ENDMDL
MODEL 5
REMARK VINA RESULT:      -6.8      1.531      4.735
REMARK  Name = 
REMARK  7 active torsions:
REMARK  status: ('A' for Active; 'I' for Inactive)
REMARK    1  A    between atoms: C_1  and  C_2
REMARK    2  A    between atoms: C_6  and  S_7
REMARK    3  A    between atoms: S_7  and  C_8
REMARK    4  A    between atoms: C_8  and  C_9
REMARK    5  A    between atoms: N_11  and  C_12
REMARK    6  A    between atoms: C_12  and  C_13
REMARK    7  A    between atoms: N_18  and  C_19
REMARK                            x       y       z     vdW  Elec       q    Type
REMARK                         _______ _______ _______ _____ _____    ______ ____
ROOT
ATOM      1  C   UNL     1       6.150   5.139  13.532  0.00  0.00    +0.000 C 
ATOM      2  C   UNL     1       6.773   5.200  14.928  0.00  0.00    +0.000 C 
ATOM      3  C   UNL     1       6.221   6.353  15.801  0.00  0.00    +0.000 C 
ATOM      4  C   UNL     1       5.308   5.777  16.856  0.00  0.00    +0.000 A 
ATOM      5  N   UNL     1       4.450   6.575  17.557  0.00  0.00    +0.000 NA
ATOM      6  C   UNL     1       3.651   5.986  18.400  0.00  0.00    +0.000 A 
ATOM      7  N   UNL     1       3.602   4.594  18.601  0.00  0.00    +0.000 N 
ATOM      8  C   UNL     1       4.435   3.742  17.858  0.00  0.00    +0.000 A 
ATOM      9  O   UNL     1       4.418   2.514  17.899  0.00  0.00    +0.000 OA
ATOM     10  C   UNL     1       5.383   4.444  16.963  0.00  0.00    +0.000 A 
ATOM     11  S   UNL     1       6.465   3.662  15.892  0.00  0.00    +0.000 S 
ENDROOT
BRANCH   7  12
ATOM     12  C   UNL     1       2.691   3.969  19.521  0.00  0.00    +0.000 A 
ATOM     13  C   UNL     1       3.065   3.725  20.848  0.00  0.00    +0.000 A 
ATOM     14  C   UNL     1       2.163   3.140  21.744  0.00  0.00    +0.000 A 
ATOM     15  C   UNL     1       0.888   2.778  21.317  0.00  0.00    +0.000 A 
ATOM     16  C   UNL     1       0.515   2.986  19.990  0.00  0.00    +0.000 A 
ATOM     17  C   UNL     1       1.415   3.567  19.093  0.00  0.00    +0.000 A 
ENDBRANCH   7  12
BRANCH   6  18
ATOM     18  S   UNL     1       2.523   7.004  19.301  0.00  0.00    +0.000 S 
BRANCH  18  19
ATOM     19  C   UNL     1       2.181   8.392  18.193  0.00  0.00    +0.000 C 
BRANCH  19  20
ATOM     20  C   UNL     1       1.256   9.397  18.848  0.00  0.00    +0.000 C 
ATOM     21  O   UNL     1       1.079   9.425  20.062  0.00  0.00    +0.000 OA
ATOM     22  N   UNL     1       0.661  10.287  17.986  0.00  0.00    +0.000 N 
ATOM     23  H   UNL     1       0.977  10.320  17.022  0.00  0.00    +0.000 HD
BRANCH  22  24
ATOM     24  C   UNL     1      -0.200  11.360  18.449  0.00  0.00    +0.000 C 
BRANCH  24  25
ATOM     25  C   UNL     1      -1.582  11.356  17.786  0.00  0.00    +0.000 C 
ATOM     26  C   UNL     1      -2.754  11.603  18.722  0.00  0.00    +0.000 C 
ATOM     27  C   UNL     1      -3.901  10.968  17.980  0.00  0.00    +0.000 C 
ATOM     28  C   UNL     1      -3.238   9.815  17.275  0.00  0.00    +0.000 C 
ATOM     29  O   UNL     1      -1.837  10.084  17.174  0.00  0.00    +0.000 OA
ENDBRANCH  24  25
ENDBRANCH  22  24
ENDBRANCH  19  20
ENDBRANCH  18  19
ENDBRANCH   6  18
TORSDOF 6
ENDMDL
MODEL 6
REMARK VINA RESULT:      -6.8      1.119      1.258
REMARK  Name = 
REMARK  7 active torsions:
REMARK  status: ('A' for Active; 'I' for Inactive)
REMARK    1  A    between atoms: C_1  and  C_2
REMARK    2  A    between atoms: C_6  and  S_7
REMARK    3  A    between atoms: S_7  and  C_8
REMARK    4  A    between atoms: C_8  and  C_9
REMARK    5  A    between atoms: N_11  and  C_12
REMARK    6  A    between atoms: C_12  and  C_13
REMARK    7  A    between atoms: N_18  and  C_19
REMARK                            x       y       z     vdW  Elec       q    Type
REMARK                         _______ _______ _______ _____ _____    ______ ____
ROOT
ATOM      1  C   UNL     1       1.526   2.515  22.236  0.00  0.00    +0.000 C 
ATOM      2  C   UNL     1       0.919   2.722  20.847  0.00  0.00    +0.000 C 
ATOM      3  C   UNL     1       0.915   4.201  20.388  0.00  0.00    +0.000 C 
ATOM      4  C   UNL     1       1.973   4.387  19.327  0.00  0.00    +0.000 A 
ATOM      5  N   UNL     1       2.401   5.634  18.971  0.00  0.00    +0.000 NA
ATOM      6  C   UNL     1       3.364   5.702  18.098  0.00  0.00    +0.000 A 
ATOM      7  N   UNL     1       3.998   4.579  17.534  0.00  0.00    +0.000 N 
ATOM      8  C   UNL     1       3.617   3.284  17.918  0.00  0.00    +0.000 A 
ATOM      9  O   UNL     1       4.156   2.242  17.549  0.00  0.00    +0.000 OA
ATOM     10  C   UNL     1       2.472   3.238  18.855  0.00  0.00    +0.000 A 
ATOM     11  S   UNL     1       1.840   1.803  19.544  0.00  0.00    +0.000 S 
ENDROOT
BRANCH   7  12
ATOM     12  C   UNL     1       5.077   4.684  16.589  0.00  0.00    +0.000 A 
ATOM     13  C   UNL     1       6.391   4.902  17.022  0.00  0.00    +0.000 A 
ATOM     14  C   UNL     1       7.440   4.977  16.099  0.00  0.00    +0.000 A 
ATOM     15  C   UNL     1       7.182   4.853  14.736  0.00  0.00    +0.000 A 
ATOM     16  C   UNL     1       5.874   4.668  14.290  0.00  0.00    +0.000 A 
ATOM     17  C   UNL     1       4.825   4.596  15.211  0.00  0.00    +0.000 A 
ENDBRANCH   7  12
BRANCH   6  18
ATOM     18  S   UNL     1       3.939   7.308  17.640  0.00  0.00    +0.000 S 
BRANCH  18  19
ATOM     19  C   UNL     1       2.443   8.206  17.163  0.00  0.00    +0.000 C 
BRANCH  19  20
ATOM     20  C   UNL     1       2.012   9.166  18.253  0.00  0.00    +0.000 C 
ATOM     21  O   UNL     1       1.847   8.802  19.413  0.00  0.00    +0.000 OA
ATOM     22  N   UNL     1       1.853  10.470  17.850  0.00  0.00    +0.000 N 
ATOM     23  H   UNL     1       2.167  10.737  16.921  0.00  0.00    +0.000 HD
BRANCH  22  24
ATOM     24  C   UNL     1       1.510  11.534  18.776  0.00  0.00    +0.000 C 
BRANCH  24  25
ATOM     25  C   UNL     1       0.005  11.647  19.038  0.00  0.00    +0.000 C 
ATOM     26  C   UNL     1      -0.562  13.056  18.983  0.00  0.00    +0.000 C 
ATOM     27  C   UNL     1      -1.805  12.940  19.825  0.00  0.00    +0.000 C 
ATOM     28  C   UNL     1      -1.407  11.918  20.857  0.00  0.00    +0.000 C 
ATOM     29  O   UNL     1      -0.311  11.154  20.347  0.00  0.00    +0.000 OA
ENDBRANCH  24  25
ENDBRANCH  22  24
ENDBRANCH  19  20
ENDBRANCH  18  19
ENDBRANCH   6  18
TORSDOF 6
ENDMDL
MODEL 7
REMARK VINA RESULT:      -6.8      1.504      4.791
REMARK  Name = 
REMARK  7 active torsions:
REMARK  status: ('A' for Active; 'I' for Inactive)
REMARK    1  A    between atoms: C_1  and  C_2
REMARK    2  A    between atoms: C_6  and  S_7
REMARK    3  A    between atoms: S_7  and  C_8
REMARK    4  A    between atoms: C_8  and  C_9
REMARK    5  A    between atoms: N_11  and  C_12
REMARK    6  A    between atoms: C_12  and  C_13
REMARK    7  A    between atoms: N_18  and  C_19
REMARK                            x       y       z     vdW  Elec       q    Type
REMARK                         _______ _______ _______ _____ _____    ______ ____
ROOT
ATOM      1  C   UNL     1       6.702   4.767  13.708  0.00  0.00    +0.000 C 
ATOM      2  C   UNL     1       7.063   5.310  15.092  0.00  0.00    +0.000 C 
ATOM      3  C   UNL     1       6.126   6.443  15.576  0.00  0.00    +0.000 C 
ATOM      4  C   UNL     1       5.217   5.902  16.653  0.00  0.00    +0.000 A 
ATOM      5  N   UNL     1       4.096   6.582  17.036  0.00  0.00    +0.000 NA
ATOM      6  C   UNL     1       3.333   6.011  17.923  0.00  0.00    +0.000 A 
ATOM      7  N   UNL     1       3.580   4.741  18.476  0.00  0.00    +0.000 N 
ATOM      8  C   UNL     1       4.695   3.994  18.065  0.00  0.00    +0.000 A 
ATOM      9  O   UNL     1       4.959   2.848  18.424  0.00  0.00    +0.000 OA
ATOM     10  C   UNL     1       5.583   4.699  17.112  0.00  0.00    +0.000 A 
ATOM     11  S   UNL     1       6.974   4.008  16.391  0.00  0.00    +0.000 S 
ENDROOT
BRANCH   7  12
ATOM     12  C   UNL     1       2.705   4.124  19.436  0.00  0.00    +0.000 A 
ATOM     13  C   UNL     1       1.560   3.430  19.023  0.00  0.00    +0.000 A 
ATOM     14  C   UNL     1       0.728   2.810  19.961  0.00  0.00    +0.000 A 
ATOM     15  C   UNL     1       1.022   2.893  21.320  0.00  0.00    +0.000 A 
ATOM     16  C   UNL     1       2.141   3.608  21.746  0.00  0.00    +0.000 A 
ATOM     17  C   UNL     1       2.971   4.231  20.810  0.00  0.00    +0.000 A 
ENDBRANCH   7  12
BRANCH   6  18
ATOM     18  S   UNL     1       1.871   6.870  18.414  0.00  0.00    +0.000 S 
BRANCH  18  19
ATOM     19  C   UNL     1       2.252   8.615  18.127  0.00  0.00    +0.000 C 
BRANCH  19  20
ATOM     20  C   UNL     1       1.235   9.514  18.799  0.00  0.00    +0.000 C 
ATOM     21  O   UNL     1       1.096   9.541  20.018  0.00  0.00    +0.000 OA
ATOM     22  N   UNL     1       0.512  10.313  17.947  0.00  0.00    +0.000 N 
ATOM     23  H   UNL     1       0.790  10.368  16.972  0.00  0.00    +0.000 HD
BRANCH  22  24
ATOM     24  C   UNL     1      -0.456  11.284  18.426  0.00  0.00    +0.000 C 
BRANCH  24  25
ATOM     25  C   UNL     1      -1.898  10.767  18.396  0.00  0.00    +0.000 C 
ATOM     26  C   UNL     1      -2.479  10.536  17.011  0.00  0.00    +0.000 C 
ATOM     27  C   UNL     1      -3.961  10.634  17.260  0.00  0.00    +0.000 C 
ATOM     28  C   UNL     1      -4.041  11.652  18.367  0.00  0.00    +0.000 C 
ATOM     29  O   UNL     1      -2.776  11.704  19.033  0.00  0.00    +0.000 OA
ENDBRANCH  24  25
ENDBRANCH  22  24
ENDBRANCH  19  20
ENDBRANCH  18  19
ENDBRANCH   6  18
TORSDOF 6
ENDMDL
MODEL 8
REMARK VINA RESULT:      -6.7      3.699      9.433
REMARK  Name = 
REMARK  7 active torsions:
REMARK  status: ('A' for Active; 'I' for Inactive)
REMARK    1  A    between atoms: C_1  and  C_2
REMARK    2  A    between atoms: C_6  and  S_7
REMARK    3  A    between atoms: S_7  and  C_8
REMARK    4  A    between atoms: C_8  and  C_9
REMARK    5  A    between atoms: N_11  and  C_12
REMARK    6  A    between atoms: C_12  and  C_13
REMARK    7  A    between atoms: N_18  and  C_19
REMARK                            x       y       z     vdW  Elec       q    Type
REMARK                         _______ _______ _______ _____ _____    ______ ____
ROOT
ATOM      1  C   UNL     1      -3.399  10.663  14.454  0.00  0.00    +0.000 C 
ATOM      2  C   UNL     1      -3.627   9.847  15.728  0.00  0.00    +0.000 C 
ATOM      3  C   UNL     1      -2.318   9.335  16.377  0.00  0.00    +0.000 C 
ATOM      4  C   UNL     1      -2.042  10.139  17.624  0.00  0.00    +0.000 A 
ATOM      5  N   UNL     1      -0.812  10.118  18.218  0.00  0.00    +0.000 NA
ATOM      6  C   UNL     1      -0.641  10.893  19.250  0.00  0.00    +0.000 A 
ATOM      7  N   UNL     1      -1.626  11.759  19.759  0.00  0.00    +0.000 N 
ATOM      8  C   UNL     1      -2.883  11.843  19.139  0.00  0.00    +0.000 A 
ATOM      9  O   UNL     1      -3.783  12.620  19.453  0.00  0.00    +0.000 OA
ATOM     10  C   UNL     1      -3.073  10.898  18.016  0.00  0.00    +0.000 A 
ATOM     11  S   UNL     1      -4.475  10.827  17.036  0.00  0.00    +0.000 S 
ENDROOT
BRANCH   7  12
ATOM     12  C   UNL     1      -1.400  12.623  20.886  0.00  0.00    +0.000 A 
ATOM     13  C   UNL     1      -1.658  12.185  22.190  0.00  0.00    +0.000 A 
ATOM     14  C   UNL     1      -1.410  13.022  23.283  0.00  0.00    +0.000 A 
ATOM     15  C   UNL     1      -0.922  14.310  23.081  0.00  0.00    +0.000 A 
ATOM     16  C   UNL     1      -0.691  14.770  21.785  0.00  0.00    +0.000 A 
ATOM     17  C   UNL     1      -0.941  13.936  20.692  0.00  0.00    +0.000 A 
ENDBRANCH   7  12
BRANCH   6  18
ATOM     18  S   UNL     1       0.950  10.888  20.017  0.00  0.00    +0.000 S 
BRANCH  18  19
ATOM     19  C   UNL     1       0.974   9.370  21.000  0.00  0.00    +0.000 C 
BRANCH  19  20
ATOM     20  C   UNL     1       1.624   8.235  20.236  0.00  0.00    +0.000 C 
ATOM     21  O   UNL     1       2.046   8.378  19.093  0.00  0.00    +0.000 OA
ATOM     22  N   UNL     1       1.731   7.053  20.929  0.00  0.00    +0.000 N 
ATOM     23  H   UNL     1       1.519   7.048  21.922  0.00  0.00    +0.000 HD
BRANCH  22  24
ATOM     24  C   UNL     1       2.388   5.884  20.375  0.00  0.00    +0.000 C 
BRANCH  24  25
ATOM     25  C   UNL     1       1.431   4.949  19.627  0.00  0.00    +0.000 C 
ATOM     26  C   UNL     1       1.115   3.641  20.332  0.00  0.00    +0.000 C 
ATOM     27  C   UNL     1       0.707   2.747  19.191  0.00  0.00    +0.000 C 
ATOM     28  C   UNL     1       1.567   3.246  18.060  0.00  0.00    +0.000 C 
ATOM     29  O   UNL     1       1.986   4.581  18.357  0.00  0.00    +0.000 OA
ENDBRANCH  24  25
ENDBRANCH  22  24
ENDBRANCH  19  20
ENDBRANCH  18  19
ENDBRANCH   6  18
TORSDOF 6
ENDMDL
MODEL 9
REMARK VINA RESULT:      -6.7      3.288      8.846
REMARK  Name = 
REMARK  7 active torsions:
REMARK  status: ('A' for Active; 'I' for Inactive)
REMARK    1  A    between atoms: C_1  and  C_2
REMARK    2  A    between atoms: C_6  and  S_7
REMARK    3  A    between atoms: S_7  and  C_8
REMARK    4  A    between atoms: C_8  and  C_9
REMARK    5  A    between atoms: N_11  and  C_12
REMARK    6  A    between atoms: C_12  and  C_13
REMARK    7  A    between atoms: N_18  and  C_19
REMARK                            x       y       z     vdW  Elec       q    Type
REMARK                         _______ _______ _______ _____ _____    ______ ____
ROOT
ATOM      1  C   UNL     1      -4.727  11.272  16.672  0.00  0.00    +0.000 C 
ATOM      2  C   UNL     1      -4.209  10.838  18.045  0.00  0.00    +0.000 C 
ATOM      3  C   UNL     1      -2.957   9.931  17.974  0.00  0.00    +0.000 C 
ATOM      4  C   UNL     1      -1.749  10.728  18.404  0.00  0.00    +0.000 A 
ATOM      5  N   UNL     1      -0.484  10.283  18.146  0.00  0.00    +0.000 NA
ATOM      6  C   UNL     1       0.499  11.065  18.490  0.00  0.00    +0.000 A 
ATOM      7  N   UNL     1       0.331  12.333  19.075  0.00  0.00    +0.000 N 
ATOM      8  C   UNL     1      -0.957  12.841  19.306  0.00  0.00    +0.000 A 
ATOM      9  O   UNL     1      -1.216  13.963  19.737  0.00  0.00    +0.000 OA
ATOM     10  C   UNL     1      -2.052  11.901  18.973  0.00  0.00    +0.000 A 
ATOM     11  S   UNL     1      -3.719  12.276  19.086  0.00  0.00    +0.000 S 
ENDROOT
BRANCH   7  12
ATOM     12  C   UNL     1       1.435  13.186  19.422  0.00  0.00    +0.000 A 
ATOM     13  C   UNL     1       1.992  13.153  20.707  0.00  0.00    +0.000 A 
ATOM     14  C   UNL     1       3.084  13.967  21.029  0.00  0.00    +0.000 A 
ATOM     15  C   UNL     1       3.615  14.834  20.077  0.00  0.00    +0.000 A 
ATOM     16  C   UNL     1       3.049  14.899  18.805  0.00  0.00    +0.000 A 
ATOM     17  C   UNL     1       1.957  14.089  18.482  0.00  0.00    +0.000 A 
ENDBRANCH   7  12
BRANCH   6  18
ATOM     18  S   UNL     1       2.140  10.510  18.146  0.00  0.00    +0.000 S 
BRANCH  18  19
ATOM     19  C   UNL     1       1.949   8.761  17.727  0.00  0.00    +0.000 C 
BRANCH  19  20
ATOM     20  C   UNL     1       2.215   7.879  18.929  0.00  0.00    +0.000 C 
ATOM     21  O   UNL     1       1.887   8.210  20.064  0.00  0.00    +0.000 OA
ATOM     22  N   UNL     1       2.818   6.677  18.647  0.00  0.00    +0.000 N 
ATOM     23  H   UNL     1       2.910   6.391  17.677  0.00  0.00    +0.000 HD
BRANCH  22  24
ATOM     24  C   UNL     1       3.084   5.681  19.669  0.00  0.00    +0.000 C 
BRANCH  24  25
ATOM     25  C   UNL     1       2.114   4.495  19.625  0.00  0.00    +0.000 C 
ATOM     26  C   UNL     1       1.710   3.933  20.977  0.00  0.00    +0.000 C 
ATOM     27  C   UNL     1       1.306   2.522  20.636  0.00  0.00    +0.000 C 
ATOM     28  C   UNL     1       2.233   2.183  19.498  0.00  0.00    +0.000 C 
ATOM     29  O   UNL     1       2.701   3.399  18.909  0.00  0.00    +0.000 OA
ENDBRANCH  24  25
ENDBRANCH  22  24
ENDBRANCH  19  20
ENDBRANCH  18  19
ENDBRANCH   6  18
TORSDOF 6
ENDMDL
