MODEL 1
REMARK VINA RESULT:      -8.7      0.000      0.000
REMARK  Name = 
REMARK  7 active torsions:
REMARK  status: ('A' for Active; 'I' for Inactive)
REMARK    1  A    between atoms: C_1  and  O_2
REMARK    2  A    between atoms: O_2  and  C_3
REMARK    3  A    between atoms: C_7  and  S_8
REMARK    4  A    between atoms: S_8  and  C_11
REMARK    5  A    between atoms: C_14  and  C_15
REMARK    6  A    between atoms: C_15  and  N_16
REMARK    7  A    between atoms: C_17  and  C_19
REMARK                            x       y       z     vdW  Elec       q    Type
REMARK                         _______ _______ _______ _____ _____    ______ ____
ROOT
ATOM      1  C   UNL     1       1.150   9.453  19.532  0.00  0.00    +0.000 A 
ATOM      2  C   UNL     1       1.754   9.189  18.305  0.00  0.00    +0.000 A 
ATOM      3  C   UNL     1       2.371   7.954  18.112  0.00  0.00    +0.000 A 
ATOM      4  C   UNL     1       2.356   7.021  19.149  0.00  0.00    +0.000 A 
ATOM      5  N   UNL     1       1.793   7.285  20.359  0.00  0.00    +0.000 NA
ATOM      6  C   UNL     1       1.203   8.495  20.528  0.00  0.00    +0.000 A 
ENDROOT
BRANCH   1   7
ATOM      7  S   UNL     1       0.309  10.977  19.820  0.00  0.00    +0.000 S 
ATOM      8  O   UNL     1       1.148  12.006  19.235  0.00  0.00    +0.000 OA
ATOM      9  O   UNL     1      -0.060  11.017  21.222  0.00  0.00    +0.000 OA
BRANCH   7  14
ATOM     10  C   UNL     1      -2.522  10.225  17.019  0.00  0.00    +0.000 A 
ATOM     11  C   UNL     1      -3.579  11.029  17.458  0.00  0.00    +0.000 A 
ATOM     12  C   UNL     1      -3.465  11.789  18.625  0.00  0.00    +0.000 A 
ATOM     13  C   UNL     1      -2.279  11.762  19.356  0.00  0.00    +0.000 A 
ATOM     14  C   UNL     1      -1.223  10.959  18.916  0.00  0.00    +0.000 A 
ATOM     15  C   UNL     1      -1.340  10.180  17.759  0.00  0.00    +0.000 A 
BRANCH  10  17
ATOM     16  C   UNL     1      -3.285  10.296  14.766  0.00  0.00    +0.000 C 
ATOM     17  O   UNL     1      -2.763   9.546  15.856  0.00  0.00    +0.000 OA
ENDBRANCH  10  17
ENDBRANCH   7  14
ENDBRANCH   1   7
BRANCH   4  18
ATOM     18  C   UNL     1       3.001   5.665  18.969  0.00  0.00    +0.000 C 
BRANCH  18  19
ATOM     19  N   UNL     1       3.970   5.657  17.891  0.00  0.00    +0.000 N 
ATOM     20  C   UNL     1       4.525   4.493  17.423  0.00  0.00    +0.000 C 
ATOM     21  O   UNL     1       4.250   3.386  17.875  0.00  0.00    +0.000 OA
ATOM     22  H   UNL     1       4.032   6.514  17.358  0.00  0.00    +0.000 HD
BRANCH  20  23
ATOM     23  C   UNL     1       5.470   4.657  16.292  0.00  0.00    +0.000 A 
ATOM     24  C   UNL     1       6.678   5.535  16.304  0.00  0.00    +0.000 A 
ATOM     25  N   UNL     1       7.504   5.745  15.323  0.00  0.00    +0.000 NA
ATOM     26  C   UNL     1       7.238   5.074  14.165  0.00  0.00    +0.000 A 
ATOM     27  N   UNL     1       7.872   5.125  13.013  0.00  0.00    +0.000 NA
ATOM     28  C   UNL     1       7.216   4.257  12.180  0.00  0.00    +0.000 A 
ATOM     29  C   UNL     1       6.162   3.656  12.825  0.00  0.00    +0.000 A 
ATOM     30  N   UNL     1       6.165   4.187  14.088  0.00  0.00    +0.000 N 
ATOM     31  C   UNL     1       5.294   3.976  15.146  0.00  0.00    +0.000 A 
ENDBRANCH  20  23
ENDBRANCH  18  19
ENDBRANCH   4  18
TORSDOF 6
ENDMDL
MODEL 2
REMARK VINA RESULT:      -8.6      3.183      9.582
REMARK  Name = 
REMARK  7 active torsions:
REMARK  status: ('A' for Active; 'I' for Inactive)
REMARK    1  A    between atoms: C_1  and  O_2
REMARK    2  A    between atoms: O_2  and  C_3
REMARK    3  A    between atoms: C_7  and  S_8
REMARK    4  A    between atoms: S_8  and  C_11
REMARK    5  A    between atoms: C_14  and  C_15
REMARK    6  A    between atoms: C_15  and  N_16
REMARK    7  A    between atoms: C_17  and  C_19
REMARK                            x       y       z     vdW  Elec       q    Type
REMARK                         _______ _______ _______ _____ _____    ______ ____
ROOT
ATOM      1  C   UNL     1       2.826   5.012  18.961  0.00  0.00    +0.000 A 
ATOM      2  C   UNL     1       2.127   4.803  20.148  0.00  0.00    +0.000 A 
ATOM      3  C   UNL     1       1.623   5.907  20.833  0.00  0.00    +0.000 A 
ATOM      4  C   UNL     1       1.826   7.182  20.305  0.00  0.00    +0.000 A 
ATOM      5  N   UNL     1       2.533   7.393  19.161  0.00  0.00    +0.000 NA
ATOM      6  C   UNL     1       3.020   6.305  18.512  0.00  0.00    +0.000 A 
ENDROOT
BRANCH   1   7
ATOM      7  S   UNL     1       3.444   3.653  18.021  0.00  0.00    +0.000 S 
ATOM      8  O   UNL     1       2.480   3.439  16.958  0.00  0.00    +0.000 OA
ATOM      9  O   UNL     1       3.782   2.592  18.951  0.00  0.00    +0.000 OA
BRANCH   7  14
ATOM     10  C   UNL     1       6.286   4.557  15.278  0.00  0.00    +0.000 A 
ATOM     11  C   UNL     1       7.403   4.785  16.088  0.00  0.00    +0.000 A 
ATOM     12  C   UNL     1       7.309   4.699  17.479  0.00  0.00    +0.000 A 
ATOM     13  C   UNL     1       6.093   4.366  18.072  0.00  0.00    +0.000 A 
ATOM     14  C   UNL     1       4.977   4.137  17.262  0.00  0.00    +0.000 A 
ATOM     15  C   UNL     1       5.062   4.243  15.868  0.00  0.00    +0.000 A 
BRANCH  10  17
ATOM     16  C   UNL     1       6.115   3.568  13.120  0.00  0.00    +0.000 C 
ATOM     17  O   UNL     1       6.522   4.661  13.934  0.00  0.00    +0.000 OA
ENDBRANCH  10  17
ENDBRANCH   7  14
ENDBRANCH   1   7
BRANCH   4  18
ATOM     18  C   UNL     1       1.278   8.401  21.012  0.00  0.00    +0.000 C 
BRANCH  18  19
ATOM     19  N   UNL     1       0.167   8.998  20.297  0.00  0.00    +0.000 N 
ATOM     20  C   UNL     1       0.236  10.265  19.777  0.00  0.00    +0.000 C 
ATOM     21  O   UNL     1       1.227  10.980  19.875  0.00  0.00    +0.000 OA
ATOM     22  H   UNL     1      -0.556   8.353  20.007  0.00  0.00    +0.000 HD
BRANCH  20  23
ATOM     23  C   UNL     1      -0.974  10.709  19.042  0.00  0.00    +0.000 A 
ATOM     24  C   UNL     1      -1.989  11.673  19.564  0.00  0.00    +0.000 A 
ATOM     25  N   UNL     1      -3.084  12.052  18.977  0.00  0.00    +0.000 NA
ATOM     26  C   UNL     1      -3.315  11.517  17.743  0.00  0.00    +0.000 A 
ATOM     27  N   UNL     1      -4.348  11.688  16.946  0.00  0.00    +0.000 NA
ATOM     28  C   UNL     1      -4.091  10.942  15.826  0.00  0.00    +0.000 A 
ATOM     29  C   UNL     1      -2.879  10.303  15.927  0.00  0.00    +0.000 A 
ATOM     30  N   UNL     1      -2.389  10.656  17.156  0.00  0.00    +0.000 N 
ATOM     31  C   UNL     1      -1.225  10.263  17.798  0.00  0.00    +0.000 A 
ENDBRANCH  20  23
ENDBRANCH  18  19
ENDBRANCH   4  18
TORSDOF 6
ENDMDL
MODEL 3
REMARK VINA RESULT:      -8.6      1.185      1.801
REMARK  Name = 
REMARK  7 active torsions:
REMARK  status: ('A' for Active; 'I' for Inactive)
REMARK    1  A    between atoms: C_1  and  O_2
REMARK    2  A    between atoms: O_2  and  C_3
REMARK    3  A    between atoms: C_7  and  S_8
REMARK    4  A    between atoms: S_8  and  C_11
REMARK    5  A    between atoms: C_14  and  C_15
REMARK    6  A    between atoms: C_15  and  N_16
REMARK    7  A    between atoms: C_17  and  C_19
REMARK                            x       y       z     vdW  Elec       q    Type
REMARK                         _______ _______ _______ _____ _____    ______ ____
ROOT
ATOM      1  C   UNL     1       0.815   9.679  19.585  0.00  0.00    +0.000 A 
ATOM      2  C   UNL     1       0.741   8.897  20.735  0.00  0.00    +0.000 A 
ATOM      3  C   UNL     1       1.444   7.693  20.774  0.00  0.00    +0.000 A 
ATOM      4  C   UNL     1       2.203   7.317  19.666  0.00  0.00    +0.000 A 
ATOM      5  N   UNL     1       2.255   8.064  18.530  0.00  0.00    +0.000 NA
ATOM      6  C   UNL     1       1.559   9.229  18.510  0.00  0.00    +0.000 A 
ENDROOT
BRANCH   1   7
ATOM      7  S   UNL     1      -0.009  11.237  19.494  0.00  0.00    +0.000 S 
ATOM      8  O   UNL     1       0.858  12.096  18.710  0.00  0.00    +0.000 OA
ATOM      9  O   UNL     1      -0.409  11.603  20.839  0.00  0.00    +0.000 OA
BRANCH   7  14
ATOM     10  C   UNL     1      -3.856  11.545  18.255  0.00  0.00    +0.000 A 
ATOM     11  C   UNL     1      -3.898  10.607  17.218  0.00  0.00    +0.000 A 
ATOM     12  C   UNL     1      -2.756   9.887  16.856  0.00  0.00    +0.000 A 
ATOM     13  C   UNL     1      -1.562  10.090  17.544  0.00  0.00    +0.000 A 
ATOM     14  C   UNL     1      -1.521  11.027  18.580  0.00  0.00    +0.000 A 
ATOM     15  C   UNL     1      -2.657  11.765  18.933  0.00  0.00    +0.000 A 
BRANCH  10  17
ATOM     16  C   UNL     1      -6.222  11.551  18.001  0.00  0.00    +0.000 C 
ATOM     17  O   UNL     1      -5.046  12.167  18.513  0.00  0.00    +0.000 OA
ENDBRANCH  10  17
ENDBRANCH   7  14
ENDBRANCH   1   7
BRANCH   4  18
ATOM     18  C   UNL     1       2.992   6.026  19.679  0.00  0.00    +0.000 C 
BRANCH  18  19
ATOM     19  N   UNL     1       3.952   5.959  18.595  0.00  0.00    +0.000 N 
ATOM     20  C   UNL     1       4.402   4.762  18.099  0.00  0.00    +0.000 C 
ATOM     21  O   UNL     1       4.033   3.674  18.528  0.00  0.00    +0.000 OA
ATOM     22  H   UNL     1       4.086   6.819  18.082  0.00  0.00    +0.000 HD
BRANCH  20  23
ATOM     23  C   UNL     1       5.353   4.869  16.965  0.00  0.00    +0.000 A 
ATOM     24  C   UNL     1       6.598   5.694  16.965  0.00  0.00    +0.000 A 
ATOM     25  N   UNL     1       7.432   5.854  15.982  0.00  0.00    +0.000 NA
ATOM     26  C   UNL     1       7.136   5.179  14.834  0.00  0.00    +0.000 A 
ATOM     27  N   UNL     1       7.772   5.186  13.681  0.00  0.00    +0.000 NA
ATOM     28  C   UNL     1       7.078   4.336  12.860  0.00  0.00    +0.000 A 
ATOM     29  C   UNL     1       5.999   3.791  13.513  0.00  0.00    +0.000 A 
ATOM     30  N   UNL     1       6.025   4.339  14.768  0.00  0.00    +0.000 N 
ATOM     31  C   UNL     1       5.147   4.180  15.829  0.00  0.00    +0.000 A 
ENDBRANCH  20  23
ENDBRANCH  18  19
ENDBRANCH   4  18
TORSDOF 6
ENDMDL
MODEL 4
REMARK VINA RESULT:      -8.6      3.674     10.364
REMARK  Name = 
REMARK  7 active torsions:
REMARK  status: ('A' for Active; 'I' for Inactive)
REMARK    1  A    between atoms: C_1  and  O_2
REMARK    2  A    between atoms: O_2  and  C_3
REMARK    3  A    between atoms: C_7  and  S_8
REMARK    4  A    between atoms: S_8  and  C_11
REMARK    5  A    between atoms: C_14  and  C_15
REMARK    6  A    between atoms: C_15  and  N_16
REMARK    7  A    between atoms: C_17  and  C_19
REMARK                            x       y       z     vdW  Elec       q    Type
REMARK                         _______ _______ _______ _____ _____    ______ ____
ROOT
ATOM      1  C   UNL     1       2.464   6.864  18.778  0.00  0.00    +0.000 A 
ATOM      2  C   UNL     1       2.404   7.611  17.605  0.00  0.00    +0.000 A 
ATOM      3  C   UNL     1       1.869   8.897  17.655  0.00  0.00    +0.000 A 
ATOM      4  C   UNL     1       1.420   9.396  18.878  0.00  0.00    +0.000 A 
ATOM      5  N   UNL     1       1.451   8.659  20.021  0.00  0.00    +0.000 NA
ATOM      6  C   UNL     1       1.970   7.407  19.950  0.00  0.00    +0.000 A 
ENDROOT
BRANCH   1   7
ATOM      7  S   UNL     1       3.178   5.250  18.790  0.00  0.00    +0.000 S 
ATOM      8  O   UNL     1       2.134   4.355  18.327  0.00  0.00    +0.000 OA
ATOM      9  O   UNL     1       3.811   5.058  20.081  0.00  0.00    +0.000 OA
BRANCH   7  14
ATOM     10  C   UNL     1       6.528   6.129  16.686  0.00  0.00    +0.000 A 
ATOM     11  C   UNL     1       6.475   5.184  15.657  0.00  0.00    +0.000 A 
ATOM     12  C   UNL     1       5.442   4.245  15.598  0.00  0.00    +0.000 A 
ATOM     13  C   UNL     1       4.440   4.257  16.566  0.00  0.00    +0.000 A 
ATOM     14  C   UNL     1       4.493   5.202  17.594  0.00  0.00    +0.000 A 
ATOM     15  C   UNL     1       5.537   6.131  17.668  0.00  0.00    +0.000 A 
BRANCH  10  17
ATOM     16  C   UNL     1       7.752   7.900  17.699  0.00  0.00    +0.000 C 
ATOM     17  O   UNL     1       7.584   6.995  16.615  0.00  0.00    +0.000 OA
ENDBRANCH  10  17
ENDBRANCH   7  14
ENDBRANCH   1   7
BRANCH   4  18
ATOM     18  C   UNL     1       0.849  10.794  18.973  0.00  0.00    +0.000 C 
BRANCH  18  19
ATOM     19  N   UNL     1      -0.591  10.810  18.814  0.00  0.00    +0.000 N 
ATOM     20  C   UNL     1      -1.259  11.920  18.363  0.00  0.00    +0.000 C 
ATOM     21  O   UNL     1      -0.697  12.969  18.065  0.00  0.00    +0.000 OA
ATOM     22  H   UNL     1      -1.038   9.903  18.828  0.00  0.00    +0.000 HD
BRANCH  20  23
ATOM     23  C   UNL     1      -2.726  11.756  18.221  0.00  0.00    +0.000 A 
ATOM     24  C   UNL     1      -3.423  11.287  16.987  0.00  0.00    +0.000 A 
ATOM     25  N   UNL     1      -4.704  11.174  16.804  0.00  0.00    +0.000 NA
ATOM     26  C   UNL     1      -5.490  11.511  17.868  0.00  0.00    +0.000 A 
ATOM     27  N   UNL     1      -6.803  11.532  17.955  0.00  0.00    +0.000 NA
ATOM     28  C   UNL     1      -7.092  11.929  19.234  0.00  0.00    +0.000 A 
ATOM     29  C   UNL     1      -5.943  12.152  19.952  0.00  0.00    +0.000 A 
ATOM     30  N   UNL     1      -4.919  11.900  19.078  0.00  0.00    +0.000 N 
ATOM     31  C   UNL     1      -3.549  12.014  19.255  0.00  0.00    +0.000 A 
ENDBRANCH  20  23
ENDBRANCH  18  19
ENDBRANCH   4  18
TORSDOF 6
ENDMDL
MODEL 5
REMARK VINA RESULT:      -8.6      1.428      1.872
REMARK  Name = 
REMARK  7 active torsions:
REMARK  status: ('A' for Active; 'I' for Inactive)
REMARK    1  A    between atoms: C_1  and  O_2
REMARK    2  A    between atoms: O_2  and  C_3
REMARK    3  A    between atoms: C_7  and  S_8
REMARK    4  A    between atoms: S_8  and  C_11
REMARK    5  A    between atoms: C_14  and  C_15
REMARK    6  A    between atoms: C_15  and  N_16
REMARK    7  A    between atoms: C_17  and  C_19
REMARK                            x       y       z     vdW  Elec       q    Type
REMARK                         _______ _______ _______ _____ _____    ______ ____
ROOT
ATOM      1  C   UNL     1       0.220  10.072  19.999  0.00  0.00    +0.000 A 
ATOM      2  C   UNL     1       1.156   9.594  19.085  0.00  0.00    +0.000 A 
ATOM      3  C   UNL     1       1.763   8.363  19.329  0.00  0.00    +0.000 A 
ATOM      4  C   UNL     1       1.407   7.647  20.472  0.00  0.00    +0.000 A 
ATOM      5  N   UNL     1       0.514   8.124  21.382  0.00  0.00    +0.000 NA
ATOM      6  C   UNL     1      -0.061   9.327  21.129  0.00  0.00    +0.000 A 
ENDROOT
BRANCH   1   7
ATOM      7  S   UNL     1      -0.621  11.598  19.721  0.00  0.00    +0.000 S 
ATOM      8  O   UNL     1       0.345  12.468  19.075  0.00  0.00    +0.000 OA
ATOM      9  O   UNL     1      -1.259  11.982  20.965  0.00  0.00    +0.000 OA
BRANCH   7  14
ATOM     10  C   UNL     1      -2.705  10.542  16.410  0.00  0.00    +0.000 A 
ATOM     11  C   UNL     1      -3.992  10.985  16.729  0.00  0.00    +0.000 A 
ATOM     12  C   UNL     1      -4.258  11.585  17.962  0.00  0.00    +0.000 A 
ATOM     13  C   UNL     1      -3.229  11.760  18.884  0.00  0.00    +0.000 A 
ATOM     14  C   UNL     1      -1.943  11.317  18.565  0.00  0.00    +0.000 A 
ATOM     15  C   UNL     1      -1.676  10.697  17.338  0.00  0.00    +0.000 A 
BRANCH  10  17
ATOM     16  C   UNL     1      -3.705  10.090  14.298  0.00  0.00    +0.000 C 
ATOM     17  O   UNL     1      -2.582   9.987  15.166  0.00  0.00    +0.000 OA
ENDBRANCH  10  17
ENDBRANCH   7  14
ENDBRANCH   1   7
BRANCH   4  18
ATOM     18  C   UNL     1       2.032   6.300  20.759  0.00  0.00    +0.000 C 
BRANCH  18  19
ATOM     19  N   UNL     1       3.166   6.027  19.898  0.00  0.00    +0.000 N 
ATOM     20  C   UNL     1       3.333   4.814  19.281  0.00  0.00    +0.000 C 
ATOM     21  O   UNL     1       2.549   3.880  19.409  0.00  0.00    +0.000 OA
ATOM     22  H   UNL     1       3.687   6.840  19.599  0.00  0.00    +0.000 HD
BRANCH  20  23
ATOM     23  C   UNL     1       4.526   4.713  18.405  0.00  0.00    +0.000 A 
ATOM     24  C   UNL     1       5.936   4.605  18.885  0.00  0.00    +0.000 A 
ATOM     25  N   UNL     1       7.011   4.562  18.157  0.00  0.00    +0.000 NA
ATOM     26  C   UNL     1       6.818   4.606  16.807  0.00  0.00    +0.000 A 
ATOM     27  N   UNL     1       7.713   4.619  15.841  0.00  0.00    +0.000 NA
ATOM     28  C   UNL     1       7.005   4.656  14.668  0.00  0.00    +0.000 A 
ATOM     29  C   UNL     1       5.652   4.661  14.909  0.00  0.00    +0.000 A 
ATOM     30  N   UNL     1       5.531   4.645  16.273  0.00  0.00    +0.000 N 
ATOM     31  C   UNL     1       4.395   4.689  17.067  0.00  0.00    +0.000 A 
ENDBRANCH  20  23
ENDBRANCH  18  19
ENDBRANCH   4  18
TORSDOF 6
ENDMDL
MODEL 6
REMARK VINA RESULT:      -8.4      3.282     10.140
REMARK  Name = 
REMARK  7 active torsions:
REMARK  status: ('A' for Active; 'I' for Inactive)
REMARK    1  A    between atoms: C_1  and  O_2
REMARK    2  A    between atoms: O_2  and  C_3
REMARK    3  A    between atoms: C_7  and  S_8
REMARK    4  A    between atoms: S_8  and  C_11
REMARK    5  A    between atoms: C_14  and  C_15
REMARK    6  A    between atoms: C_15  and  N_16
REMARK    7  A    between atoms: C_17  and  C_19
REMARK                            x       y       z     vdW  Elec       q    Type
REMARK                         _______ _______ _______ _____ _____    ______ ____
ROOT
ATOM      1  C   UNL     1       2.445   5.356  18.965  0.00  0.00    +0.000 A 
ATOM      2  C   UNL     1       1.904   5.376  20.248  0.00  0.00    +0.000 A 
ATOM      3  C   UNL     1       1.495   6.596  20.785  0.00  0.00    +0.000 A 
ATOM      4  C   UNL     1       1.633   7.753  20.018  0.00  0.00    +0.000 A 
ATOM      5  N   UNL     1       2.188   7.742  18.776  0.00  0.00    +0.000 NA
ATOM      6  C   UNL     1       2.585   6.546  18.274  0.00  0.00    +0.000 A 
ENDROOT
BRANCH   1   7
ATOM      7  S   UNL     1       2.933   3.838  18.210  0.00  0.00    +0.000 S 
ATOM      8  O   UNL     1       2.004   3.626  17.115  0.00  0.00    +0.000 OA
ATOM      9  O   UNL     1       3.088   2.853  19.263  0.00  0.00    +0.000 OA
BRANCH   7  14
ATOM     10  C   UNL     1       6.903   4.522  17.771  0.00  0.00    +0.000 A 
ATOM     11  C   UNL     1       7.047   4.488  16.380  0.00  0.00    +0.000 A 
ATOM     12  C   UNL     1       5.952   4.228  15.553  0.00  0.00    +0.000 A 
ATOM     13  C   UNL     1       4.695   4.015  16.114  0.00  0.00    +0.000 A 
ATOM     14  C   UNL     1       4.552   4.050  17.503  0.00  0.00    +0.000 A 
ATOM     15  C   UNL     1       5.650   4.290  18.337  0.00  0.00    +0.000 A 
BRANCH  10  17
ATOM     16  C   UNL     1       8.039   5.947  19.301  0.00  0.00    +0.000 C 
ATOM     17  O   UNL     1       8.052   4.801  18.459  0.00  0.00    +0.000 OA
ENDBRANCH  10  17
ENDBRANCH   7  14
ENDBRANCH   1   7
BRANCH   4  18
ATOM     18  C   UNL     1       1.184   9.091  20.562  0.00  0.00    +0.000 C 
BRANCH  18  19
ATOM     19  N   UNL     1      -0.097   9.502  20.021  0.00  0.00    +0.000 N 
ATOM     20  C   UNL     1      -0.205  10.514  19.102  0.00  0.00    +0.000 C 
ATOM     21  O   UNL     1       0.758  11.141  18.674  0.00  0.00    +0.000 OA
ATOM     22  H   UNL     1      -0.860   8.857  20.179  0.00  0.00    +0.000 HD
BRANCH  20  23
ATOM     23  C   UNL     1      -1.583  10.782  18.623  0.00  0.00    +0.000 A 
ATOM     24  C   UNL     1      -2.167  10.262  17.351  0.00  0.00    +0.000 A 
ATOM     25  N   UNL     1      -3.348  10.509  16.871  0.00  0.00    +0.000 NA
ATOM     26  C   UNL     1      -4.140  11.324  17.627  0.00  0.00    +0.000 A 
ATOM     27  N   UNL     1      -5.352  11.771  17.373  0.00  0.00    +0.000 NA
ATOM     28  C   UNL     1      -5.706  12.540  18.449  0.00  0.00    +0.000 A 
ATOM     29  C   UNL     1      -4.702  12.567  19.387  0.00  0.00    +0.000 A 
ATOM     30  N   UNL     1      -3.696  11.804  18.858  0.00  0.00    +0.000 N 
ATOM     31  C   UNL     1      -2.431  11.528  19.354  0.00  0.00    +0.000 A 
ENDBRANCH  20  23
ENDBRANCH  18  19
ENDBRANCH   4  18
TORSDOF 6
ENDMDL
MODEL 7
REMARK VINA RESULT:      -8.3      3.656     10.231
REMARK  Name = 
REMARK  7 active torsions:
REMARK  status: ('A' for Active; 'I' for Inactive)
REMARK    1  A    between atoms: C_1  and  O_2
REMARK    2  A    between atoms: O_2  and  C_3
REMARK    3  A    between atoms: C_7  and  S_8
REMARK    4  A    between atoms: S_8  and  C_11
REMARK    5  A    between atoms: C_14  and  C_15
REMARK    6  A    between atoms: C_15  and  N_16
REMARK    7  A    between atoms: C_17  and  C_19
REMARK                            x       y       z     vdW  Elec       q    Type
REMARK                         _______ _______ _______ _____ _____    ______ ____
ROOT
ATOM      1  C   UNL     1       2.402   6.711  19.093  0.00  0.00    +0.000 A 
ATOM      2  C   UNL     1       2.319   7.671  18.088  0.00  0.00    +0.000 A 
ATOM      3  C   UNL     1       1.778   8.919  18.395  0.00  0.00    +0.000 A 
ATOM      4  C   UNL     1       1.347   9.168  19.698  0.00  0.00    +0.000 A 
ATOM      5  N   UNL     1       1.400   8.223  20.676  0.00  0.00    +0.000 NA
ATOM      6  C   UNL     1       1.925   7.013  20.355  0.00  0.00    +0.000 A 
ENDROOT
BRANCH   1   7
ATOM      7  S   UNL     1       3.124   5.132  18.781  0.00  0.00    +0.000 S 
ATOM      8  O   UNL     1       2.411   4.592  17.639  0.00  0.00    +0.000 OA
ATOM      9  O   UNL     1       3.175   4.414  20.040  0.00  0.00    +0.000 OA
BRANCH   7  14
ATOM     10  C   UNL     1       6.479   5.582  16.553  0.00  0.00    +0.000 A 
ATOM     11  C   UNL     1       7.472   5.624  17.537  0.00  0.00    +0.000 A 
ATOM     12  C   UNL     1       7.142   5.546  18.892  0.00  0.00    +0.000 A 
ATOM     13  C   UNL     1       5.809   5.410  19.274  0.00  0.00    +0.000 A 
ATOM     14  C   UNL     1       4.817   5.368  18.290  0.00  0.00    +0.000 A 
ATOM     15  C   UNL     1       5.142   5.466  16.932  0.00  0.00    +0.000 A 
BRANCH  10  17
ATOM     16  C   UNL     1       6.595   4.586  14.395  0.00  0.00    +0.000 C 
ATOM     17  O   UNL     1       6.942   5.654  15.268  0.00  0.00    +0.000 OA
ENDBRANCH  10  17
ENDBRANCH   7  14
ENDBRANCH   1   7
BRANCH   4  18
ATOM     18  C   UNL     1       0.771  10.516  20.071  0.00  0.00    +0.000 C 
BRANCH  18  19
ATOM     19  N   UNL     1      -0.599  10.669  19.623  0.00  0.00    +0.000 N 
ATOM     20  C   UNL     1      -0.969  11.656  18.746  0.00  0.00    +0.000 C 
ATOM     21  O   UNL     1      -0.182  12.473  18.280  0.00  0.00    +0.000 OA
ATOM     22  H   UNL     1      -1.205   9.881  19.806  0.00  0.00    +0.000 HD
BRANCH  20  23
ATOM     23  C   UNL     1      -2.402  11.650  18.361  0.00  0.00    +0.000 A 
ATOM     24  C   UNL     1      -2.931  11.228  17.030  0.00  0.00    +0.000 A 
ATOM     25  N   UNL     1      -4.169  11.251  16.635  0.00  0.00    +0.000 NA
ATOM     26  C   UNL     1      -5.077  11.699  17.549  0.00  0.00    +0.000 A 
ATOM     27  N   UNL     1      -6.376  11.866  17.414  0.00  0.00    +0.000 NA
ATOM     28  C   UNL     1      -6.828  12.324  18.623  0.00  0.00    +0.000 A 
ATOM     29  C   UNL     1      -5.796  12.439  19.524  0.00  0.00    +0.000 A 
ATOM     30  N   UNL     1      -4.676  12.055  18.836  0.00  0.00    +0.000 N 
ATOM     31  C   UNL     1      -3.350  12.022  19.239  0.00  0.00    +0.000 A 
ENDBRANCH  20  23
ENDBRANCH  18  19
ENDBRANCH   4  18
TORSDOF 6
ENDMDL
MODEL 8
REMARK VINA RESULT:      -8.3      3.611     10.429
REMARK  Name = 
REMARK  7 active torsions:
REMARK  status: ('A' for Active; 'I' for Inactive)
REMARK    1  A    between atoms: C_1  and  O_2
REMARK    2  A    between atoms: O_2  and  C_3
REMARK    3  A    between atoms: C_7  and  S_8
REMARK    4  A    between atoms: S_8  and  C_11
REMARK    5  A    between atoms: C_14  and  C_15
REMARK    6  A    between atoms: C_15  and  N_16
REMARK    7  A    between atoms: C_17  and  C_19
REMARK                            x       y       z     vdW  Elec       q    Type
REMARK                         _______ _______ _______ _____ _____    ______ ____
ROOT
ATOM      1  C   UNL     1       2.500   6.846  18.885  0.00  0.00    +0.000 A 
ATOM      2  C   UNL     1       1.961   7.284  20.092  0.00  0.00    +0.000 A 
ATOM      3  C   UNL     1       1.442   8.576  20.166  0.00  0.00    +0.000 A 
ATOM      4  C   UNL     1       1.470   9.383  19.028  0.00  0.00    +0.000 A 
ATOM      5  N   UNL     1       2.022   8.969  17.855  0.00  0.00    +0.000 NA
ATOM      6  C   UNL     1       2.527   7.711  17.806  0.00  0.00    +0.000 A 
ENDROOT
BRANCH   1   7
ATOM      7  S   UNL     1       3.125   5.205  18.713  0.00  0.00    +0.000 S 
ATOM      8  O   UNL     1       2.454   4.647  17.554  0.00  0.00    +0.000 OA
ATOM      9  O   UNL     1       3.038   4.563  20.010  0.00  0.00    +0.000 OA
BRANCH   7  14
ATOM     10  C   UNL     1       6.664   5.101  16.741  0.00  0.00    +0.000 A 
ATOM     11  C   UNL     1       7.575   5.329  17.777  0.00  0.00    +0.000 A 
ATOM     12  C   UNL     1       7.134   5.548  19.084  0.00  0.00    +0.000 A 
ATOM     13  C   UNL     1       5.770   5.524  19.368  0.00  0.00    +0.000 A 
ATOM     14  C   UNL     1       4.860   5.296  18.333  0.00  0.00    +0.000 A 
ATOM     15  C   UNL     1       5.297   5.096  17.018  0.00  0.00    +0.000 A 
BRANCH  10  17
ATOM     16  C   UNL     1       6.454   4.182  14.556  0.00  0.00    +0.000 C 
ATOM     17  O   UNL     1       7.232   4.888  15.515  0.00  0.00    +0.000 OA
ENDBRANCH  10  17
ENDBRANCH   7  14
ENDBRANCH   1   7
BRANCH   4  18
ATOM     18  C   UNL     1       0.900  10.783  19.067  0.00  0.00    +0.000 C 
BRANCH  18  19
ATOM     19  N   UNL     1      -0.537  10.796  18.882  0.00  0.00    +0.000 N 
ATOM     20  C   UNL     1      -1.194  11.891  18.381  0.00  0.00    +0.000 C 
ATOM     21  O   UNL     1      -0.625  12.928  18.057  0.00  0.00    +0.000 OA
ATOM     22  H   UNL     1      -0.986   9.891  18.920  0.00  0.00    +0.000 HD
BRANCH  20  23
ATOM     23  C   UNL     1      -2.659  11.725  18.219  0.00  0.00    +0.000 A 
ATOM     24  C   UNL     1      -3.338  11.256  16.974  0.00  0.00    +0.000 A 
ATOM     25  N   UNL     1      -4.616  11.141  16.774  0.00  0.00    +0.000 NA
ATOM     26  C   UNL     1      -5.417  11.474  17.827  0.00  0.00    +0.000 A 
ATOM     27  N   UNL     1      -6.732  11.493  17.896  0.00  0.00    +0.000 NA
ATOM     28  C   UNL     1      -7.039  11.887  19.171  0.00  0.00    +0.000 A 
ATOM     29  C   UNL     1      -5.900  12.111  19.906  0.00  0.00    +0.000 A 
ATOM     30  N   UNL     1      -4.864  11.863  19.046  0.00  0.00    +0.000 N 
ATOM     31  C   UNL     1      -3.496  11.979  19.241  0.00  0.00    +0.000 A 
ENDBRANCH  20  23
ENDBRANCH  18  19
ENDBRANCH   4  18
TORSDOF 6
ENDMDL
MODEL 9
REMARK VINA RESULT:      -8.3      3.804     10.007
REMARK  Name = 
REMARK  7 active torsions:
REMARK  status: ('A' for Active; 'I' for Inactive)
REMARK    1  A    between atoms: C_1  and  O_2
REMARK    2  A    between atoms: O_2  and  C_3
REMARK    3  A    between atoms: C_7  and  S_8
REMARK    4  A    between atoms: S_8  and  C_11
REMARK    5  A    between atoms: C_14  and  C_15
REMARK    6  A    between atoms: C_15  and  N_16
REMARK    7  A    between atoms: C_17  and  C_19
REMARK                            x       y       z     vdW  Elec       q    Type
REMARK                         _______ _______ _______ _____ _____    ______ ____
ROOT
ATOM      1  C   UNL     1       2.378   5.540  19.487  0.00  0.00    +0.000 A 
ATOM      2  C   UNL     1       2.685   6.616  18.658  0.00  0.00    +0.000 A 
ATOM      3  C   UNL     1       2.266   7.892  19.033  0.00  0.00    +0.000 A 
ATOM      4  C   UNL     1       1.563   8.050  20.228  0.00  0.00    +0.000 A 
ATOM      5  N   UNL     1       1.236   6.997  21.026  0.00  0.00    +0.000 NA
ATOM      6  C   UNL     1       1.648   5.763  20.640  0.00  0.00    +0.000 A 
ENDROOT
BRANCH   1   7
ATOM      7  S   UNL     1       2.925   3.908  19.094  0.00  0.00    +0.000 S 
ATOM      8  O   UNL     1       1.875   3.328  18.277  0.00  0.00    +0.000 OA
ATOM      9  O   UNL     1       3.349   3.277  20.328  0.00  0.00    +0.000 OA
BRANCH   7  14
ATOM     10  C   UNL     1       6.734   4.528  17.858  0.00  0.00    +0.000 A 
ATOM     11  C   UNL     1       6.626   4.315  16.480  0.00  0.00    +0.000 A 
ATOM     12  C   UNL     1       5.406   3.952  15.905  0.00  0.00    +0.000 A 
ATOM     13  C   UNL     1       4.275   3.813  16.707  0.00  0.00    +0.000 A 
ATOM     14  C   UNL     1       4.384   4.026  18.084  0.00  0.00    +0.000 A 
ATOM     15  C   UNL     1       5.609   4.371  18.667  0.00  0.00    +0.000 A 
BRANCH  10  17
ATOM     16  C   UNL     1       8.056   5.938  19.246  0.00  0.00    +0.000 C 
ATOM     17  O   UNL     1       7.982   4.891  18.285  0.00  0.00    +0.000 OA
ENDBRANCH  10  17
ENDBRANCH   7  14
ENDBRANCH   1   7
BRANCH   4  18
ATOM     18  C   UNL     1       1.108   9.421  20.675  0.00  0.00    +0.000 C 
BRANCH  18  19
ATOM     19  N   UNL     1      -0.148   9.809  20.064  0.00  0.00    +0.000 N 
ATOM     20  C   UNL     1      -0.196  10.575  18.927  0.00  0.00    +0.000 C 
ATOM     21  O   UNL     1       0.805  10.988  18.350  0.00  0.00    +0.000 OA
ATOM     22  H   UNL     1      -0.959   9.296  20.381  0.00  0.00    +0.000 HD
BRANCH  20  23
ATOM     23  C   UNL     1      -1.559  10.850  18.411  0.00  0.00    +0.000 A 
ATOM     24  C   UNL     1      -2.052  10.483  17.050  0.00  0.00    +0.000 A 
ATOM     25  N   UNL     1      -3.218  10.745  16.542  0.00  0.00    +0.000 NA
ATOM     26  C   UNL     1      -4.085  11.416  17.354  0.00  0.00    +0.000 A 
ATOM     27  N   UNL     1      -5.303  11.844  17.093  0.00  0.00    +0.000 NA
ATOM     28  C   UNL     1      -5.747  12.445  18.241  0.00  0.00    +0.000 A 
ATOM     29  C   UNL     1      -4.795  12.385  19.229  0.00  0.00    +0.000 A 
ATOM     30  N   UNL     1      -3.727  11.743  18.660  0.00  0.00    +0.000 N 
ATOM     31  C   UNL     1      -2.478  11.454  19.186  0.00  0.00    +0.000 A 
ENDBRANCH  20  23
ENDBRANCH  18  19
ENDBRANCH   4  18
TORSDOF 6
ENDMDL
