MODEL 1
REMARK VINA RESULT:      -7.6      0.000      0.000
REMARK  Name = 
REMARK  7 active torsions:
REMARK  status: ('A' for Active; 'I' for Inactive)
REMARK    1  A    between atoms: C_1  and  C_2
REMARK    2  A    between atoms: C_2  and  O_3
REMARK    3  A    between atoms: O_3  and  C_4
REMARK    4  A    between atoms: C_9  and  C_10
REMARK    5  A    between atoms: N_11  and  C_12
REMARK    6  A    between atoms: C_17  and  C_18
REMARK    7  A    between atoms: N_20  and  C_21
REMARK                            x       y       z     vdW  Elec       q    Type
REMARK                         _______ _______ _______ _____ _____    ______ ____
ROOT
ATOM      1  C   UNL     1       2.478   4.629  20.233  0.00  0.00    +0.000 A 
ATOM      2  C   UNL     1       1.510   4.169  21.157  0.00  0.00    +0.000 A 
ATOM      3  C   UNL     1       1.586   2.907  21.751  0.00  0.00    +0.000 A 
ATOM      4  C   UNL     1       2.623   2.055  21.419  0.00  0.00    +0.000 A 
ATOM      5  C   UNL     1       3.561   2.462  20.474  0.00  0.00    +0.000 A 
ATOM      6  C   UNL     1       3.502   3.735  19.857  0.00  0.00    +0.000 A 
ENDROOT
BRANCH   6   7
ATOM      7  C   UNL     1       4.567   3.971  18.823  0.00  0.00    +0.000 C 
ATOM      8  O   UNL     1       5.734   3.889  19.207  0.00  0.00    +0.000 OA
ATOM      9  N   UNL     1       4.193   4.259  17.521  0.00  0.00    +0.000 N 
ATOM     10  H   UNL     1       3.191   4.285  17.341  0.00  0.00    +0.000 HD
BRANCH   9  11
ATOM     11  C   UNL     1       5.081   4.557  16.448  0.00  0.00    +0.000 A 
ATOM     12  C   UNL     1       5.537   5.849  16.152  0.00  0.00    +0.000 A 
ATOM     13  C   UNL     1       6.374   6.101  15.058  0.00  0.00    +0.000 A 
ATOM     14  C   UNL     1       6.778   5.055  14.240  0.00  0.00    +0.000 A 
ATOM     15  C   UNL     1       6.353   3.759  14.529  0.00  0.00    +0.000 A 
ATOM     16  C   UNL     1       5.513   3.510  15.627  0.00  0.00    +0.000 A 
ENDBRANCH   9  11
ENDBRANCH   6   7
BRANCH   1  18
ATOM     17  C   UNL     1       1.976   6.923  20.374  0.00  0.00    +0.000 C 
ATOM     18  N   UNL     1       2.314   5.904  19.638  0.00  0.00    +0.000 NA
BRANCH  17  24
ATOM     19  C   UNL     1       0.727   9.129  20.347  0.00  0.00    +0.000 A 
ATOM     20  C   UNL     1       0.501  10.356  19.703  0.00  0.00    +0.000 A 
ATOM     21  C   UNL     1       1.061  10.626  18.453  0.00  0.00    +0.000 A 
ATOM     22  C   UNL     1       1.880   9.689  17.838  0.00  0.00    +0.000 A 
ATOM     23  C   UNL     1       2.173   8.499  18.493  0.00  0.00    +0.000 A 
ATOM     24  C   UNL     1       1.622   8.221  19.753  0.00  0.00    +0.000 A 
BRANCH  19  25
ATOM     25  O   UNL     1       0.094   8.773  21.515  0.00  0.00    +0.000 OA
BRANCH  25  27
ATOM     26  C   UNL     1      -0.849  10.285  23.147  0.00  0.00    +0.000 C 
ATOM     27  C   UNL     1       0.407   9.591  22.655  0.00  0.00    +0.000 C 
ENDBRANCH  25  27
ENDBRANCH  19  25
ENDBRANCH  17  24
ENDBRANCH   1  18
TORSDOF 6
ENDMDL
MODEL 2
REMARK VINA RESULT:      -7.4      3.564      5.507
REMARK  Name = 
REMARK  7 active torsions:
REMARK  status: ('A' for Active; 'I' for Inactive)
REMARK    1  A    between atoms: C_1  and  C_2
REMARK    2  A    between atoms: C_2  and  O_3
REMARK    3  A    between atoms: O_3  and  C_4
REMARK    4  A    between atoms: C_9  and  C_10
REMARK    5  A    between atoms: N_11  and  C_12
REMARK    6  A    between atoms: C_17  and  C_18
REMARK    7  A    between atoms: N_20  and  C_21
REMARK                            x       y       z     vdW  Elec       q    Type
REMARK                         _______ _______ _______ _____ _____    ______ ____
ROOT
ATOM      1  C   UNL     1       5.361   5.697  17.171  0.00  0.00    +0.000 A 
ATOM      2  C   UNL     1       4.776   4.786  16.261  0.00  0.00    +0.000 A 
ATOM      3  C   UNL     1       5.516   4.155  15.257  0.00  0.00    +0.000 A 
ATOM      4  C   UNL     1       6.862   4.437  15.119  0.00  0.00    +0.000 A 
ATOM      5  C   UNL     1       7.452   5.369  15.968  0.00  0.00    +0.000 A 
ATOM      6  C   UNL     1       6.721   6.022  16.991  0.00  0.00    +0.000 A 
ENDROOT
BRANCH   6   7
ATOM      7  C   UNL     1       7.515   7.035  17.767  0.00  0.00    +0.000 C 
ATOM      8  O   UNL     1       8.071   6.631  18.789  0.00  0.00    +0.000 OA
ATOM      9  N   UNL     1       7.583   8.339  17.305  0.00  0.00    +0.000 N 
ATOM     10  H   UNL     1       7.083   8.531  16.440  0.00  0.00    +0.000 HD
BRANCH   9  11
ATOM     11  C   UNL     1       8.248   9.417  17.957  0.00  0.00    +0.000 A 
ATOM     12  C   UNL     1       8.988   9.274  19.139  0.00  0.00    +0.000 A 
ATOM     13  C   UNL     1       9.586  10.371  19.770  0.00  0.00    +0.000 A 
ATOM     14  C   UNL     1       9.458  11.640  19.220  0.00  0.00    +0.000 A 
ATOM     15  C   UNL     1       8.744  11.801  18.034  0.00  0.00    +0.000 A 
ATOM     16  C   UNL     1       8.145  10.698  17.404  0.00  0.00    +0.000 A 
ENDBRANCH   9  11
ENDBRANCH   6   7
BRANCH   1  18
ATOM     17  C   UNL     1       3.294   6.582  17.862  0.00  0.00    +0.000 C 
ATOM     18  N   UNL     1       4.541   6.332  18.137  0.00  0.00    +0.000 NA
BRANCH  17  24
ATOM     19  C   UNL     1       2.102   6.975  20.065  0.00  0.00    +0.000 A 
ATOM     20  C   UNL     1       1.361   7.852  20.873  0.00  0.00    +0.000 A 
ATOM     21  C   UNL     1       0.904   9.075  20.376  0.00  0.00    +0.000 A 
ATOM     22  C   UNL     1       1.204   9.455  19.075  0.00  0.00    +0.000 A 
ATOM     23  C   UNL     1       1.997   8.631  18.285  0.00  0.00    +0.000 A 
ATOM     24  C   UNL     1       2.467   7.404  18.777  0.00  0.00    +0.000 A 
BRANCH  19  25
ATOM     25  O   UNL     1       2.460   5.711  20.472  0.00  0.00    +0.000 OA
BRANCH  25  27
ATOM     26  C   UNL     1       1.285   3.880  19.418  0.00  0.00    +0.000 C 
ATOM     27  C   UNL     1       1.370   4.787  20.631  0.00  0.00    +0.000 C 
ENDBRANCH  25  27
ENDBRANCH  19  25
ENDBRANCH  17  24
ENDBRANCH   1  18
TORSDOF 6
ENDMDL
MODEL 3
REMARK VINA RESULT:      -7.3      3.107      7.806
REMARK  Name = 
REMARK  7 active torsions:
REMARK  status: ('A' for Active; 'I' for Inactive)
REMARK    1  A    between atoms: C_1  and  C_2
REMARK    2  A    between atoms: C_2  and  O_3
REMARK    3  A    between atoms: O_3  and  C_4
REMARK    4  A    between atoms: C_9  and  C_10
REMARK    5  A    between atoms: N_11  and  C_12
REMARK    6  A    between atoms: C_17  and  C_18
REMARK    7  A    between atoms: N_20  and  C_21
REMARK                            x       y       z     vdW  Elec       q    Type
REMARK                         _______ _______ _______ _____ _____    ______ ____
ROOT
ATOM      1  C   UNL     1       0.899   9.070  20.721  0.00  0.00    +0.000 A 
ATOM      2  C   UNL     1       1.329   8.881  22.055  0.00  0.00    +0.000 A 
ATOM      3  C   UNL     1       0.687   9.486  23.140  0.00  0.00    +0.000 A 
ATOM      4  C   UNL     1      -0.393  10.320  22.918  0.00  0.00    +0.000 A 
ATOM      5  C   UNL     1      -0.805  10.565  21.611  0.00  0.00    +0.000 A 
ATOM      6  C   UNL     1      -0.168   9.965  20.497  0.00  0.00    +0.000 A 
ENDROOT
BRANCH   6   7
ATOM      7  C   UNL     1      -0.718  10.395  19.166  0.00  0.00    +0.000 C 
ATOM      8  O   UNL     1      -0.058  11.226  18.541  0.00  0.00    +0.000 OA
ATOM      9  N   UNL     1      -1.909   9.849  18.717  0.00  0.00    +0.000 N 
ATOM     10  H   UNL     1      -2.344   9.164  19.333  0.00  0.00    +0.000 HD
BRANCH   9  11
ATOM     11  C   UNL     1      -2.578  10.195  17.509  0.00  0.00    +0.000 A 
ATOM     12  C   UNL     1      -2.185   9.737  16.243  0.00  0.00    +0.000 A 
ATOM     13  C   UNL     1      -2.846  10.141  15.077  0.00  0.00    +0.000 A 
ATOM     14  C   UNL     1      -3.924  11.013  15.159  0.00  0.00    +0.000 A 
ATOM     15  C   UNL     1      -4.344  11.464  16.409  0.00  0.00    +0.000 A 
ATOM     16  C   UNL     1      -3.679  11.056  17.577  0.00  0.00    +0.000 A 
ENDBRANCH   9  11
ENDBRANCH   6   7
BRANCH   1  18
ATOM     17  C   UNL     1       1.930   7.197  19.741  0.00  0.00    +0.000 C 
ATOM     18  N   UNL     1       1.623   8.460  19.668  0.00  0.00    +0.000 NA
BRANCH  17  24
ATOM     19  C   UNL     1       3.076   5.195  18.690  0.00  0.00    +0.000 A 
ATOM     20  C   UNL     1       3.913   4.705  17.675  0.00  0.00    +0.000 A 
ATOM     21  C   UNL     1       4.581   5.576  16.811  0.00  0.00    +0.000 A 
ATOM     22  C   UNL     1       4.402   6.948  16.927  0.00  0.00    +0.000 A 
ATOM     23  C   UNL     1       3.521   7.446  17.879  0.00  0.00    +0.000 A 
ATOM     24  C   UNL     1       2.839   6.579  18.747  0.00  0.00    +0.000 A 
BRANCH  19  25
ATOM     25  O   UNL     1       2.502   4.382  19.639  0.00  0.00    +0.000 OA
BRANCH  25  27
ATOM     26  C   UNL     1       1.598   2.202  19.118  0.00  0.00    +0.000 C 
ATOM     27  C   UNL     1       1.316   3.689  19.216  0.00  0.00    +0.000 C 
ENDBRANCH  25  27
ENDBRANCH  19  25
ENDBRANCH  17  24
ENDBRANCH   1  18
TORSDOF 6
ENDMDL
MODEL 4
REMARK VINA RESULT:      -7.3      1.627      6.591
REMARK  Name = 
REMARK  7 active torsions:
REMARK  status: ('A' for Active; 'I' for Inactive)
REMARK    1  A    between atoms: C_1  and  C_2
REMARK    2  A    between atoms: C_2  and  O_3
REMARK    3  A    between atoms: O_3  and  C_4
REMARK    4  A    between atoms: C_9  and  C_10
REMARK    5  A    between atoms: N_11  and  C_12
REMARK    6  A    between atoms: C_17  and  C_18
REMARK    7  A    between atoms: N_20  and  C_21
REMARK                            x       y       z     vdW  Elec       q    Type
REMARK                         _______ _______ _______ _____ _____    ______ ____
ROOT
ATOM      1  C   UNL     1       3.391   3.404  19.284  0.00  0.00    +0.000 A 
ATOM      2  C   UNL     1       3.737   2.299  20.095  0.00  0.00    +0.000 A 
ATOM      3  C   UNL     1       3.212   2.120  21.378  0.00  0.00    +0.000 A 
ATOM      4  C   UNL     1       2.341   3.060  21.898  0.00  0.00    +0.000 A 
ATOM      5  C   UNL     1       2.023   4.184  21.141  0.00  0.00    +0.000 A 
ATOM      6  C   UNL     1       2.545   4.386  19.840  0.00  0.00    +0.000 A 
ENDROOT
BRANCH   6   7
ATOM      7  C   UNL     1       2.134   5.685  19.205  0.00  0.00    +0.000 C 
ATOM      8  O   UNL     1       1.784   5.633  18.026  0.00  0.00    +0.000 OA
ATOM      9  N   UNL     1       2.167   6.847  19.958  0.00  0.00    +0.000 N 
ATOM     10  H   UNL     1       2.468   6.742  20.925  0.00  0.00    +0.000 HD
BRANCH   9  11
ATOM     11  C   UNL     1       1.859   8.154  19.482  0.00  0.00    +0.000 A 
ATOM     12  C   UNL     1       2.325   8.667  18.264  0.00  0.00    +0.000 A 
ATOM     13  C   UNL     1       2.035   9.976  17.859  0.00  0.00    +0.000 A 
ATOM     14  C   UNL     1       1.262  10.796  18.670  0.00  0.00    +0.000 A 
ATOM     15  C   UNL     1       0.772  10.299  19.876  0.00  0.00    +0.000 A 
ATOM     16  C   UNL     1       1.065   8.985  20.279  0.00  0.00    +0.000 A 
ENDBRANCH   9  11
ENDBRANCH   6   7
BRANCH   1  18
ATOM     17  C   UNL     1       5.238   3.919  17.921  0.00  0.00    +0.000 C 
ATOM     18  N   UNL     1       3.995   3.544  18.010  0.00  0.00    +0.000 NA
BRANCH  17  24
ATOM     19  C   UNL     1       7.075   4.903  16.478  0.00  0.00    +0.000 A 
ATOM     20  C   UNL     1       7.581   5.120  15.186  0.00  0.00    +0.000 A 
ATOM     21  C   UNL     1       6.829   4.795  14.055  0.00  0.00    +0.000 A 
ATOM     22  C   UNL     1       5.572   4.221  14.194  0.00  0.00    +0.000 A 
ATOM     23  C   UNL     1       5.087   3.933  15.464  0.00  0.00    +0.000 A 
ATOM     24  C   UNL     1       5.838   4.248  16.607  0.00  0.00    +0.000 A 
BRANCH  19  25
ATOM     25  O   UNL     1       7.726   5.325  17.613  0.00  0.00    +0.000 OA
BRANCH  25  27
ATOM     26  C   UNL     1       7.817   7.740  17.650  0.00  0.00    +0.000 C 
ATOM     27  C   UNL     1       7.174   6.497  18.236  0.00  0.00    +0.000 C 
ENDBRANCH  25  27
ENDBRANCH  19  25
ENDBRANCH  17  24
ENDBRANCH   1  18
TORSDOF 6
ENDMDL
MODEL 5
REMARK VINA RESULT:      -7.2      3.094      7.714
REMARK  Name = 
REMARK  7 active torsions:
REMARK  status: ('A' for Active; 'I' for Inactive)
REMARK    1  A    between atoms: C_1  and  C_2
REMARK    2  A    between atoms: C_2  and  O_3
REMARK    3  A    between atoms: O_3  and  C_4
REMARK    4  A    between atoms: C_9  and  C_10
REMARK    5  A    between atoms: N_11  and  C_12
REMARK    6  A    between atoms: C_17  and  C_18
REMARK    7  A    between atoms: N_20  and  C_21
REMARK                            x       y       z     vdW  Elec       q    Type
REMARK                         _______ _______ _______ _____ _____    ______ ____
ROOT
ATOM      1  C   UNL     1       0.828   9.109  20.798  0.00  0.00    +0.000 A 
ATOM      2  C   UNL     1       1.232   8.921  22.140  0.00  0.00    +0.000 A 
ATOM      3  C   UNL     1       0.574   9.533  23.210  0.00  0.00    +0.000 A 
ATOM      4  C   UNL     1      -0.495  10.375  22.966  0.00  0.00    +0.000 A 
ATOM      5  C   UNL     1      -0.882  10.618  21.651  0.00  0.00    +0.000 A 
ATOM      6  C   UNL     1      -0.228  10.011  20.551  0.00  0.00    +0.000 A 
ENDROOT
BRANCH   6   7
ATOM      7  C   UNL     1      -0.750  10.440  19.208  0.00  0.00    +0.000 C 
ATOM      8  O   UNL     1      -0.060  11.246  18.583  0.00  0.00    +0.000 OA
ATOM      9  N   UNL     1      -1.950   9.921  18.751  0.00  0.00    +0.000 N 
ATOM     10  H   UNL     1      -2.410   9.255  19.368  0.00  0.00    +0.000 HD
BRANCH   9  11
ATOM     11  C   UNL     1      -2.595  10.271  17.530  0.00  0.00    +0.000 A 
ATOM     12  C   UNL     1      -3.672  11.164  17.448  0.00  0.00    +0.000 A 
ATOM     13  C   UNL     1      -4.305  11.443  16.231  0.00  0.00    +0.000 A 
ATOM     14  C   UNL     1      -3.862  10.833  15.065  0.00  0.00    +0.000 A 
ATOM     15  C   UNL     1      -2.779   9.958  15.121  0.00  0.00    +0.000 A 
ATOM     16  C   UNL     1      -2.146   9.680  16.344  0.00  0.00    +0.000 A 
ENDBRANCH   9  11
ENDBRANCH   6   7
BRANCH   1  18
ATOM     17  C   UNL     1       1.703   7.196  19.746  0.00  0.00    +0.000 C 
ATOM     18  N   UNL     1       1.568   8.490  19.760  0.00  0.00    +0.000 NA
BRANCH  17  24
ATOM     19  C   UNL     1       2.658   5.148  18.597  0.00  0.00    +0.000 A 
ATOM     20  C   UNL     1       3.523   4.631  17.620  0.00  0.00    +0.000 A 
ATOM     21  C   UNL     1       4.401   5.465  16.923  0.00  0.00    +0.000 A 
ATOM     22  C   UNL     1       4.410   6.831  17.170  0.00  0.00    +0.000 A 
ATOM     23  C   UNL     1       3.510   7.369  18.082  0.00  0.00    +0.000 A 
ATOM     24  C   UNL     1       2.618   6.541  18.782  0.00  0.00    +0.000 A 
BRANCH  19  25
ATOM     25  O   UNL     1       1.872   4.348  19.394  0.00  0.00    +0.000 OA
BRANCH  25  27
ATOM     26  C   UNL     1       2.302   3.177  21.464  0.00  0.00    +0.000 C 
ATOM     27  C   UNL     1       2.538   3.210  19.966  0.00  0.00    +0.000 C 
ENDBRANCH  25  27
ENDBRANCH  19  25
ENDBRANCH  17  24
ENDBRANCH   1  18
TORSDOF 6
ENDMDL
MODEL 6
REMARK VINA RESULT:      -7.1      1.478      2.048
REMARK  Name = 
REMARK  7 active torsions:
REMARK  status: ('A' for Active; 'I' for Inactive)
REMARK    1  A    between atoms: C_1  and  C_2
REMARK    2  A    between atoms: C_2  and  O_3
REMARK    3  A    between atoms: O_3  and  C_4
REMARK    4  A    between atoms: C_9  and  C_10
REMARK    5  A    between atoms: N_11  and  C_12
REMARK    6  A    between atoms: C_17  and  C_18
REMARK    7  A    between atoms: N_20  and  C_21
REMARK                            x       y       z     vdW  Elec       q    Type
REMARK                         _______ _______ _______ _____ _____    ______ ____
ROOT
ATOM      1  C   UNL     1       2.670   4.645  18.425  0.00  0.00    +0.000 A 
ATOM      2  C   UNL     1       1.898   3.892  19.340  0.00  0.00    +0.000 A 
ATOM      3  C   UNL     1       2.104   2.525  19.543  0.00  0.00    +0.000 A 
ATOM      4  C   UNL     1       3.076   1.864  18.815  0.00  0.00    +0.000 A 
ATOM      5  C   UNL     1       3.816   2.570  17.870  0.00  0.00    +0.000 A 
ATOM      6  C   UNL     1       3.623   3.955  17.647  0.00  0.00    +0.000 A 
ENDROOT
BRANCH   6   7
ATOM      7  C   UNL     1       4.474   4.528  16.548  0.00  0.00    +0.000 C 
ATOM      8  O   UNL     1       4.543   5.755  16.490  0.00  0.00    +0.000 OA
ATOM      9  N   UNL     1       5.124   3.668  15.678  0.00  0.00    +0.000 N 
ATOM     10  H   UNL     1       4.987   2.674  15.849  0.00  0.00    +0.000 HD
BRANCH   9  11
ATOM     11  C   UNL     1       5.918   4.060  14.562  0.00  0.00    +0.000 A 
ATOM     12  C   UNL     1       5.737   3.561  13.265  0.00  0.00    +0.000 A 
ATOM     13  C   UNL     1       6.572   3.941  12.207  0.00  0.00    +0.000 A 
ATOM     14  C   UNL     1       7.607   4.839  12.431  0.00  0.00    +0.000 A 
ATOM     15  C   UNL     1       7.792   5.363  13.709  0.00  0.00    +0.000 A 
ATOM     16  C   UNL     1       6.952   4.980  14.768  0.00  0.00    +0.000 A 
ENDBRANCH   9  11
ENDBRANCH   6   7
BRANCH   1  18
ATOM     17  C   UNL     1       2.477   6.842  19.242  0.00  0.00    +0.000 C 
ATOM     18  N   UNL     1       2.378   6.019  18.239  0.00  0.00    +0.000 NA
BRANCH  17  24
ATOM     19  C   UNL     1       1.218   8.865  20.108  0.00  0.00    +0.000 A 
ATOM     20  C   UNL     1       0.867  10.212  19.924  0.00  0.00    +0.000 A 
ATOM     21  C   UNL     1       1.196  10.887  18.746  0.00  0.00    +0.000 A 
ATOM     22  C   UNL     1       1.905  10.236  17.744  0.00  0.00    +0.000 A 
ATOM     23  C   UNL     1       2.322   8.925  17.940  0.00  0.00    +0.000 A 
ATOM     24  C   UNL     1       2.004   8.242  19.123  0.00  0.00    +0.000 A 
BRANCH  19  25
ATOM     25  O   UNL     1       0.804   8.130  21.194  0.00  0.00    +0.000 OA
BRANCH  25  27
ATOM     26  C   UNL     1       0.092   9.360  23.149  0.00  0.00    +0.000 C 
ATOM     27  C   UNL     1      -0.346   8.649  21.882  0.00  0.00    +0.000 C 
ENDBRANCH  25  27
ENDBRANCH  19  25
ENDBRANCH  17  24
ENDBRANCH   1  18
TORSDOF 6
ENDMDL
MODEL 7
REMARK VINA RESULT:      -7.1      1.567      6.492
REMARK  Name = 
REMARK  7 active torsions:
REMARK  status: ('A' for Active; 'I' for Inactive)
REMARK    1  A    between atoms: C_1  and  C_2
REMARK    2  A    between atoms: C_2  and  O_3
REMARK    3  A    between atoms: O_3  and  C_4
REMARK    4  A    between atoms: C_9  and  C_10
REMARK    5  A    between atoms: N_11  and  C_12
REMARK    6  A    between atoms: C_17  and  C_18
REMARK    7  A    between atoms: N_20  and  C_21
REMARK                            x       y       z     vdW  Elec       q    Type
REMARK                         _______ _______ _______ _____ _____    ______ ____
ROOT
ATOM      1  C   UNL     1       3.910   3.652  19.480  0.00  0.00    +0.000 A 
ATOM      2  C   UNL     1       4.291   2.508  20.220  0.00  0.00    +0.000 A 
ATOM      3  C   UNL     1       3.506   1.993  21.255  0.00  0.00    +0.000 A 
ATOM      4  C   UNL     1       2.325   2.624  21.598  0.00  0.00    +0.000 A 
ATOM      5  C   UNL     1       1.952   3.782  20.921  0.00  0.00    +0.000 A 
ATOM      6  C   UNL     1       2.733   4.323  19.871  0.00  0.00    +0.000 A 
ENDROOT
BRANCH   6   7
ATOM      7  C   UNL     1       2.197   5.607  19.301  0.00  0.00    +0.000 C 
ATOM      8  O   UNL     1       1.669   5.538  18.192  0.00  0.00    +0.000 OA
ATOM      9  N   UNL     1       2.320   6.775  20.035  0.00  0.00    +0.000 N 
ATOM     10  H   UNL     1       2.771   6.685  20.943  0.00  0.00    +0.000 HD
BRANCH   9  11
ATOM     11  C   UNL     1       1.912   8.071  19.607  0.00  0.00    +0.000 A 
ATOM     12  C   UNL     1       1.099   8.922  20.368  0.00  0.00    +0.000 A 
ATOM     13  C   UNL     1       0.684  10.169  19.886  0.00  0.00    +0.000 A 
ATOM     14  C   UNL     1       1.086  10.593  18.627  0.00  0.00    +0.000 A 
ATOM     15  C   UNL     1       1.912   9.771  17.861  0.00  0.00    +0.000 A 
ATOM     16  C   UNL     1       2.326   8.520  18.348  0.00  0.00    +0.000 A 
ENDBRANCH   9  11
ENDBRANCH   6   7
BRANCH   1  18
ATOM     17  C   UNL     1       4.438   4.034  17.220  0.00  0.00    +0.000 C 
ATOM     18  N   UNL     1       4.776   4.144  18.472  0.00  0.00    +0.000 NA
BRANCH  17  24
ATOM     19  C   UNL     1       6.287   5.458  16.230  0.00  0.00    +0.000 A 
ATOM     20  C   UNL     1       7.195   5.660  15.178  0.00  0.00    +0.000 A 
ATOM     21  C   UNL     1       7.147   4.872  14.026  0.00  0.00    +0.000 A 
ATOM     22  C   UNL     1       6.212   3.851  13.917  0.00  0.00    +0.000 A 
ATOM     23  C   UNL     1       5.353   3.591  14.979  0.00  0.00    +0.000 A 
ATOM     24  C   UNL     1       5.399   4.372  16.144  0.00  0.00    +0.000 A 
BRANCH  19  25
ATOM     25  O   UNL     1       6.216   6.290  17.323  0.00  0.00    +0.000 OA
BRANCH  25  27
ATOM     26  C   UNL     1       7.782   8.097  17.674  0.00  0.00    +0.000 C 
ATOM     27  C   UNL     1       7.481   6.630  17.916  0.00  0.00    +0.000 C 
ENDBRANCH  25  27
ENDBRANCH  19  25
ENDBRANCH  17  24
ENDBRANCH   1  18
TORSDOF 6
ENDMDL
MODEL 8
REMARK VINA RESULT:      -7.0      0.953      1.124
REMARK  Name = 
REMARK  7 active torsions:
REMARK  status: ('A' for Active; 'I' for Inactive)
REMARK    1  A    between atoms: C_1  and  C_2
REMARK    2  A    between atoms: C_2  and  O_3
REMARK    3  A    between atoms: O_3  and  C_4
REMARK    4  A    between atoms: C_9  and  C_10
REMARK    5  A    between atoms: N_11  and  C_12
REMARK    6  A    between atoms: C_17  and  C_18
REMARK    7  A    between atoms: N_20  and  C_21
REMARK                            x       y       z     vdW  Elec       q    Type
REMARK                         _______ _______ _______ _____ _____    ______ ____
ROOT
ATOM      1  C   UNL     1       2.320   4.408  20.000  0.00  0.00    +0.000 A 
ATOM      2  C   UNL     1       1.572   4.161  21.174  0.00  0.00    +0.000 A 
ATOM      3  C   UNL     1       1.602   2.929  21.833  0.00  0.00    +0.000 A 
ATOM      4  C   UNL     1       2.366   1.897  21.320  0.00  0.00    +0.000 A 
ATOM      5  C   UNL     1       3.072   2.096  20.137  0.00  0.00    +0.000 A 
ATOM      6  C   UNL     1       3.054   3.336  19.452  0.00  0.00    +0.000 A 
ENDROOT
BRANCH   6   7
ATOM      7  C   UNL     1       3.831   3.340  18.165  0.00  0.00    +0.000 C 
ATOM      8  O   UNL     1       3.800   2.304  17.501  0.00  0.00    +0.000 OA
ATOM      9  N   UNL     1       4.524   4.482  17.797  0.00  0.00    +0.000 N 
ATOM     10  H   UNL     1       4.453   5.270  18.438  0.00  0.00    +0.000 HD
BRANCH   9  11
ATOM     11  C   UNL     1       5.343   4.620  16.641  0.00  0.00    +0.000 A 
ATOM     12  C   UNL     1       4.896   4.370  15.336  0.00  0.00    +0.000 A 
ATOM     13  C   UNL     1       5.751   4.474  14.232  0.00  0.00    +0.000 A 
ATOM     14  C   UNL     1       7.078   4.838  14.417  0.00  0.00    +0.000 A 
ATOM     15  C   UNL     1       7.539   5.111  15.704  0.00  0.00    +0.000 A 
ATOM     16  C   UNL     1       6.677   5.006  16.809  0.00  0.00    +0.000 A 
ENDBRANCH   9  11
ENDBRANCH   6   7
BRANCH   1  18
ATOM     17  C   UNL     1       2.218   6.757  20.072  0.00  0.00    +0.000 C 
ATOM     18  N   UNL     1       2.208   5.667  19.360  0.00  0.00    +0.000 NA
BRANCH  17  24
ATOM     19  C   UNL     1       1.083   9.024  20.055  0.00  0.00    +0.000 A 
ATOM     20  C   UNL     1       0.909  10.258  19.411  0.00  0.00    +0.000 A 
ATOM     21  C   UNL     1       1.464  10.497  18.151  0.00  0.00    +0.000 A 
ATOM     22  C   UNL     1       2.225   9.517  17.528  0.00  0.00    +0.000 A 
ATOM     23  C   UNL     1       2.467   8.316  18.184  0.00  0.00    +0.000 A 
ATOM     24  C   UNL     1       1.921   8.070  19.452  0.00  0.00    +0.000 A 
BRANCH  19  25
ATOM     25  O   UNL     1       0.449   8.703  21.233  0.00  0.00    +0.000 OA
BRANCH  25  27
ATOM     26  C   UNL     1      -0.206   9.652  23.358  0.00  0.00    +0.000 C 
ATOM     27  C   UNL     1      -0.281   9.777  21.848  0.00  0.00    +0.000 C 
ENDBRANCH  25  27
ENDBRANCH  19  25
ENDBRANCH  17  24
ENDBRANCH   1  18
TORSDOF 6
ENDMDL
MODEL 9
REMARK VINA RESULT:      -6.9      1.213      1.297
REMARK  Name = 
REMARK  7 active torsions:
REMARK  status: ('A' for Active; 'I' for Inactive)
REMARK    1  A    between atoms: C_1  and  C_2
REMARK    2  A    between atoms: C_2  and  O_3
REMARK    3  A    between atoms: O_3  and  C_4
REMARK    4  A    between atoms: C_9  and  C_10
REMARK    5  A    between atoms: N_11  and  C_12
REMARK    6  A    between atoms: C_17  and  C_18
REMARK    7  A    between atoms: N_20  and  C_21
REMARK                            x       y       z     vdW  Elec       q    Type
REMARK                         _______ _______ _______ _____ _____    ______ ____
ROOT
ATOM      1  C   UNL     1       2.485   5.520  19.970  0.00  0.00    +0.000 A 
ATOM      2  C   UNL     1       1.748   4.959  21.039  0.00  0.00    +0.000 A 
ATOM      3  C   UNL     1       1.777   3.592  21.330  0.00  0.00    +0.000 A 
ATOM      4  C   UNL     1       2.528   2.740  20.542  0.00  0.00    +0.000 A 
ATOM      5  C   UNL     1       3.224   3.258  19.452  0.00  0.00    +0.000 A 
ATOM      6  C   UNL     1       3.206   4.639  19.138  0.00  0.00    +0.000 A 
ENDROOT
BRANCH   6   7
ATOM      7  C   UNL     1       3.969   4.998  17.893  0.00  0.00    +0.000 C 
ATOM      8  O   UNL     1       3.673   6.066  17.356  0.00  0.00    +0.000 OA
ATOM      9  N   UNL     1       4.944   4.133  17.424  0.00  0.00    +0.000 N 
ATOM     10  H   UNL     1       5.092   3.290  17.974  0.00  0.00    +0.000 HD
BRANCH   9  11
ATOM     11  C   UNL     1       5.709   4.310  16.236  0.00  0.00    +0.000 A 
ATOM     12  C   UNL     1       6.936   4.986  16.194  0.00  0.00    +0.000 A 
ATOM     13  C   UNL     1       7.631   5.176  14.993  0.00  0.00    +0.000 A 
ATOM     14  C   UNL     1       7.107   4.683  13.805  0.00  0.00    +0.000 A 
ATOM     15  C   UNL     1       5.897   3.990  13.827  0.00  0.00    +0.000 A 
ATOM     16  C   UNL     1       5.204   3.802  15.034  0.00  0.00    +0.000 A 
ENDBRANCH   9  11
ENDBRANCH   6   7
BRANCH   1  18
ATOM     17  C   UNL     1       1.617   7.650  20.461  0.00  0.00    +0.000 C 
ATOM     18  N   UNL     1       2.375   6.908  19.707  0.00  0.00    +0.000 NA
BRANCH  17  24
ATOM     19  C   UNL     1       1.043  10.046  21.058  0.00  0.00    +0.000 A 
ATOM     20  C   UNL     1       0.850  11.365  20.617  0.00  0.00    +0.000 A 
ATOM     21  C   UNL     1       0.843  11.674  19.255  0.00  0.00    +0.000 A 
ATOM     22  C   UNL     1       1.058  10.677  18.312  0.00  0.00    +0.000 A 
ATOM     23  C   UNL     1       1.323   9.380  18.734  0.00  0.00    +0.000 A 
ATOM     24  C   UNL     1       1.340   9.061  20.101  0.00  0.00    +0.000 A 
BRANCH  19  25
ATOM     25  O   UNL     1       0.930   9.679  22.379  0.00  0.00    +0.000 OA
BRANCH  25  27
ATOM     26  C   UNL     1      -1.137  10.592  23.236  0.00  0.00    +0.000 C 
ATOM     27  C   UNL     1      -0.399   9.337  22.807  0.00  0.00    +0.000 C 
ENDBRANCH  25  27
ENDBRANCH  19  25
ENDBRANCH  17  24
ENDBRANCH   1  18
TORSDOF 6
ENDMDL
