MODEL 1
REMARK VINA RESULT:      -7.7      0.000      0.000
REMARK  Name = 
REMARK  7 active torsions:
REMARK  status: ('A' for Active; 'I' for Inactive)
REMARK    1  A    between atoms: C_1  and  C_2
REMARK    2  A    between atoms: C_8  and  C_9
REMARK    3  A    between atoms: C_9  and  C_10
REMARK    4  A    between atoms: C_9  and  N_11
REMARK    5  A    between atoms: N_11  and  C_12
REMARK    6  A    between atoms: C_19  and  C_20
REMARK    7  A    between atoms: N_24  and  C_25
REMARK                            x       y       z     vdW  Elec       q    Type
REMARK                         _______ _______ _______ _____ _____    ______ ____
ROOT
ATOM      1  C   UNL     1      -2.044  12.266  19.379  0.00  0.00    +0.000 C 
ATOM      2  C   UNL     1      -2.028  11.865  17.886  0.00  0.00    +0.000 C 
ENDROOT
BRANCH   1  10
ATOM      3  C   UNL     1       4.071  14.967  20.934  0.00  0.00    +0.000 C 
ATOM      4  C   UNL     1       2.876  15.388  20.119  0.00  0.00    +0.000 A 
ATOM      5  C   UNL     1       2.977  16.600  19.411  0.00  0.00    +0.000 A 
ATOM      6  C   UNL     1       1.950  17.025  18.575  0.00  0.00    +0.000 A 
ATOM      7  C   UNL     1       0.779  16.276  18.477  0.00  0.00    +0.000 A 
ATOM      8  C   UNL     1       0.625  15.092  19.211  0.00  0.00    +0.000 A 
ATOM      9  C   UNL     1      -0.632  14.348  19.111  0.00  0.00    +0.000 A 
ATOM     10  C   UNL     1      -0.779  13.128  19.666  0.00  0.00    +0.000 A 
ATOM     11  N   UNL     1       0.286  12.590  20.415  0.00  0.00    +0.000 N 
ATOM     12  C   UNL     1       1.504  13.283  20.647  0.00  0.00    +0.000 A 
ATOM     13  O   UNL     1       2.415  12.827  21.348  0.00  0.00    +0.000 OA
ATOM     14  C   UNL     1       1.685  14.619  20.000  0.00  0.00    +0.000 A 
BRANCH  11  15
ATOM     15  C   UNL     1       0.132  11.381  21.147  0.00  0.00    +0.000 A 
ATOM     16  C   UNL     1      -0.517  11.421  22.382  0.00  0.00    +0.000 A 
ATOM     17  C   UNL     1      -0.727  10.245  23.095  0.00  0.00    +0.000 A 
ATOM     18  C   UNL     1      -0.286   9.031  22.573  0.00  0.00    +0.000 A 
ATOM     19  C   UNL     1       0.390   8.992  21.352  0.00  0.00    +0.000 A 
ATOM     20  C   UNL     1       0.614  10.171  20.639  0.00  0.00    +0.000 A 
ENDBRANCH  11  15
ENDBRANCH   1  10
BRANCH   1  21
ATOM     21  N   UNL     1      -3.287  13.013  19.582  0.00  0.00    +0.000 N 
ATOM     22  H   UNL     1      -3.861  13.064  18.735  0.00  0.00    +0.000 HD
BRANCH  21  23
ATOM     23  C   UNL     1      -4.122  12.747  20.664  0.00  0.00    +0.000 A 
ATOM     24  N   UNL     1      -3.740  12.967  21.943  0.00  0.00    +0.000 NA
ATOM     25  C   UNL     1      -4.664  12.869  22.922  0.00  0.00    +0.000 A 
ATOM     26  N   UNL     1      -5.991  12.683  22.800  0.00  0.00    +0.000 NA
ATOM     27  C   UNL     1      -6.320  12.435  21.526  0.00  0.00    +0.000 A 
ATOM     28  N   UNL     1      -7.595  12.276  21.059  0.00  0.00    +0.000 N 
ATOM     29  C   UNL     1      -7.559  11.877  19.745  0.00  0.00    +0.000 A 
ATOM     30  C   UNL     1      -6.226  11.792  19.361  0.00  0.00    +0.000 A 
ATOM     31  C   UNL     1      -5.458  12.337  20.448  0.00  0.00    +0.000 A 
ATOM     32  H   UNL     1      -8.421  12.411  21.624  0.00  0.00    +0.000 HD
BRANCH  30  33
ATOM     33  C   UNL     1      -5.682  11.210  18.142  0.00  0.00    +0.000 C 
ATOM     34  N   UNL     1      -5.969  11.851  16.971  0.00  0.00    +0.000 N 
ATOM     35  O   UNL     1      -5.046  10.160  18.127  0.00  0.00    +0.000 OA
ATOM     36  H   UNL     1      -6.557  12.665  16.918  0.00  0.00    +0.000 HD
ATOM     37  H   UNL     1      -5.715  11.377  16.116  0.00  0.00    +0.000 HD
ENDBRANCH  30  33
ENDBRANCH  21  23
ENDBRANCH   1  21
TORSDOF 5
ENDMDL
MODEL 2
REMARK VINA RESULT:      -7.6      1.781      3.081
REMARK  Name = 
REMARK  7 active torsions:
REMARK  status: ('A' for Active; 'I' for Inactive)
REMARK    1  A    between atoms: C_1  and  C_2
REMARK    2  A    between atoms: C_8  and  C_9
REMARK    3  A    between atoms: C_9  and  C_10
REMARK    4  A    between atoms: C_9  and  N_11
REMARK    5  A    between atoms: N_11  and  C_12
REMARK    6  A    between atoms: C_19  and  C_20
REMARK    7  A    between atoms: N_24  and  C_25
REMARK                            x       y       z     vdW  Elec       q    Type
REMARK                         _______ _______ _______ _____ _____    ______ ____
ROOT
ATOM      1  C   UNL     1      -2.735  12.536  20.077  0.00  0.00    +0.000 C 
ATOM      2  C   UNL     1      -2.917  11.892  18.684  0.00  0.00    +0.000 C 
ENDROOT
BRANCH   1  10
ATOM      3  C   UNL     1       3.810  14.593  20.297  0.00  0.00    +0.000 C 
ATOM      4  C   UNL     1       2.509  15.167  19.797  0.00  0.00    +0.000 A 
ATOM      5  C   UNL     1       2.567  16.408  19.137  0.00  0.00    +0.000 A 
ATOM      6  C   UNL     1       1.425  16.973  18.579  0.00  0.00    +0.000 A 
ATOM      7  C   UNL     1       0.194  16.336  18.721  0.00  0.00    +0.000 A 
ATOM      8  C   UNL     1       0.093  15.125  19.420  0.00  0.00    +0.000 A 
ATOM      9  C   UNL     1      -1.221  14.501  19.580  0.00  0.00    +0.000 A 
ATOM     10  C   UNL     1      -1.359  13.265  20.102  0.00  0.00    +0.000 A 
ATOM     11  N   UNL     1      -0.211  12.590  20.562  0.00  0.00    +0.000 N 
ATOM     12  C   UNL     1       1.090  13.159  20.537  0.00  0.00    +0.000 A 
ATOM     13  O   UNL     1       2.085  12.582  20.989  0.00  0.00    +0.000 OA
ATOM     14  C   UNL     1       1.252  14.513  19.922  0.00  0.00    +0.000 A 
BRANCH  11  15
ATOM     15  C   UNL     1      -0.315  11.354  21.258  0.00  0.00    +0.000 A 
ATOM     16  C   UNL     1      -0.015  10.173  20.577  0.00  0.00    +0.000 A 
ATOM     17  C   UNL     1      -0.057   8.955  21.248  0.00  0.00    +0.000 A 
ATOM     18  C   UNL     1      -0.402   8.920  22.598  0.00  0.00    +0.000 A 
ATOM     19  C   UNL     1      -0.732  10.097  23.273  0.00  0.00    +0.000 A 
ATOM     20  C   UNL     1      -0.701  11.320  22.601  0.00  0.00    +0.000 A 
ENDBRANCH  11  15
ENDBRANCH   1  10
BRANCH   1  21
ATOM     21  N   UNL     1      -3.859  13.458  20.245  0.00  0.00    +0.000 N 
ATOM     22  H   UNL     1      -4.260  13.761  19.352  0.00  0.00    +0.000 HD
BRANCH  21  23
ATOM     23  C   UNL     1      -4.903  13.175  21.121  0.00  0.00    +0.000 A 
ATOM     24  N   UNL     1      -6.123  12.780  20.690  0.00  0.00    +0.000 NA
ATOM     25  C   UNL     1      -7.021  12.340  21.597  0.00  0.00    +0.000 A 
ATOM     26  N   UNL     1      -6.839  12.125  22.913  0.00  0.00    +0.000 NA
ATOM     27  C   UNL     1      -5.635  12.561  23.303  0.00  0.00    +0.000 A 
ATOM     28  N   UNL     1      -5.117  12.422  24.560  0.00  0.00    +0.000 N 
ATOM     29  C   UNL     1      -3.939  13.122  24.654  0.00  0.00    +0.000 A 
ATOM     30  C   UNL     1      -3.693  13.711  23.421  0.00  0.00    +0.000 A 
ATOM     31  C   UNL     1      -4.682  13.186  22.519  0.00  0.00    +0.000 A 
ATOM     32  H   UNL     1      -5.568  11.901  25.299  0.00  0.00    +0.000 HD
BRANCH  30  33
ATOM     33  C   UNL     1      -2.690  14.715  23.093  0.00  0.00    +0.000 C 
ATOM     34  N   UNL     1      -1.471  14.588  23.694  0.00  0.00    +0.000 N 
ATOM     35  O   UNL     1      -2.918  15.677  22.366  0.00  0.00    +0.000 OA
ATOM     36  H   UNL     1      -1.259  13.868  24.366  0.00  0.00    +0.000 HD
ATOM     37  H   UNL     1      -0.823  15.354  23.582  0.00  0.00    +0.000 HD
ENDBRANCH  30  33
ENDBRANCH  21  23
ENDBRANCH   1  21
TORSDOF 5
ENDMDL
MODEL 3
REMARK VINA RESULT:      -7.5      1.452      2.456
REMARK  Name = 
REMARK  7 active torsions:
REMARK  status: ('A' for Active; 'I' for Inactive)
REMARK    1  A    between atoms: C_1  and  C_2
REMARK    2  A    between atoms: C_8  and  C_9
REMARK    3  A    between atoms: C_9  and  C_10
REMARK    4  A    between atoms: C_9  and  N_11
REMARK    5  A    between atoms: N_11  and  C_12
REMARK    6  A    between atoms: C_19  and  C_20
REMARK    7  A    between atoms: N_24  and  C_25
REMARK                            x       y       z     vdW  Elec       q    Type
REMARK                         _______ _______ _______ _____ _____    ______ ____
ROOT
ATOM      1  C   UNL     1      -2.206  11.773  19.214  0.00  0.00    +0.000 C 
ATOM      2  C   UNL     1      -1.700  10.805  18.122  0.00  0.00    +0.000 C 
ENDROOT
BRANCH   1  10
ATOM      3  C   UNL     1       3.455  15.219  21.005  0.00  0.00    +0.000 C 
ATOM      4  C   UNL     1       2.278  15.464  20.096  0.00  0.00    +0.000 A 
ATOM      5  C   UNL     1       2.292  16.647  19.334  0.00  0.00    +0.000 A 
ATOM      6  C   UNL     1       1.283  16.914  18.414  0.00  0.00    +0.000 A 
ATOM      7  C   UNL     1       0.212  16.034  18.283  0.00  0.00    +0.000 A 
ATOM      8  C   UNL     1       0.140  14.874  19.067  0.00  0.00    +0.000 A 
ATOM      9  C   UNL     1      -1.017  13.989  18.927  0.00  0.00    +0.000 A 
ATOM     10  C   UNL     1      -1.066  12.786  19.534  0.00  0.00    +0.000 A 
ATOM     11  N   UNL     1      -0.001  12.406  20.375  0.00  0.00    +0.000 N 
ATOM     12  C   UNL     1       1.115  13.243  20.646  0.00  0.00    +0.000 A 
ATOM     13  O   UNL     1       2.020  12.924  21.425  0.00  0.00    +0.000 OA
ATOM     14  C   UNL     1       1.190  14.560  19.943  0.00  0.00    +0.000 A 
BRANCH  11  15
ATOM     15  C   UNL     1      -0.070  11.221  21.158  0.00  0.00    +0.000 A 
ATOM     16  C   UNL     1       0.554  10.066  20.684  0.00  0.00    +0.000 A 
ATOM     17  C   UNL     1       0.547   8.907  21.454  0.00  0.00    +0.000 A 
ATOM     18  C   UNL     1      -0.085   8.905  22.696  0.00  0.00    +0.000 A 
ATOM     19  C   UNL     1      -0.735  10.051  23.159  0.00  0.00    +0.000 A 
ATOM     20  C   UNL     1      -0.741  11.212  22.384  0.00  0.00    +0.000 A 
ENDBRANCH  11  15
ENDBRANCH   1  10
BRANCH   1  21
ATOM     21  N   UNL     1      -3.392  12.426  18.656  0.00  0.00    +0.000 N 
ATOM     22  H   UNL     1      -3.339  12.540  17.639  0.00  0.00    +0.000 HD
BRANCH  21  23
ATOM     23  C   UNL     1      -4.675  11.998  18.985  0.00  0.00    +0.000 A 
ATOM     24  N   UNL     1      -5.364  11.121  18.219  0.00  0.00    +0.000 NA
ATOM     25  C   UNL     1      -6.517  10.607  18.698  0.00  0.00    +0.000 A 
ATOM     26  N   UNL     1      -7.053  10.762  19.923  0.00  0.00    +0.000 NA
ATOM     27  C   UNL     1      -6.362  11.662  20.633  0.00  0.00    +0.000 A 
ATOM     28  N   UNL     1      -6.604  11.989  21.938  0.00  0.00    +0.000 N 
ATOM     29  C   UNL     1      -5.818  13.056  22.300  0.00  0.00    +0.000 A 
ATOM     30  C   UNL     1      -5.045  13.409  21.202  0.00  0.00    +0.000 A 
ATOM     31  C   UNL     1      -5.263  12.390  20.211  0.00  0.00    +0.000 A 
ATOM     32  H   UNL     1      -7.285  11.519  22.518  0.00  0.00    +0.000 HD
BRANCH  30  33
ATOM     33  C   UNL     1      -4.224  14.600  21.031  0.00  0.00    +0.000 C 
ATOM     34  N   UNL     1      -4.672  15.535  20.143  0.00  0.00    +0.000 N 
ATOM     35  O   UNL     1      -3.144  14.756  21.594  0.00  0.00    +0.000 OA
ATOM     36  H   UNL     1      -5.505  15.417  19.591  0.00  0.00    +0.000 HD
ATOM     37  H   UNL     1      -4.041  16.290  19.916  0.00  0.00    +0.000 HD
ENDBRANCH  30  33
ENDBRANCH  21  23
ENDBRANCH   1  21
TORSDOF 5
ENDMDL
MODEL 4
REMARK VINA RESULT:      -7.3      0.987      1.081
REMARK  Name = 
REMARK  7 active torsions:
REMARK  status: ('A' for Active; 'I' for Inactive)
REMARK    1  A    between atoms: C_1  and  C_2
REMARK    2  A    between atoms: C_8  and  C_9
REMARK    3  A    between atoms: C_9  and  C_10
REMARK    4  A    between atoms: C_9  and  N_11
REMARK    5  A    between atoms: N_11  and  C_12
REMARK    6  A    between atoms: C_19  and  C_20
REMARK    7  A    between atoms: N_24  and  C_25
REMARK                            x       y       z     vdW  Elec       q    Type
REMARK                         _______ _______ _______ _____ _____    ______ ____
ROOT
ATOM      1  C   UNL     1      -2.457  12.230  19.853  0.00  0.00    +0.000 C 
ATOM      2  C   UNL     1      -2.663  11.898  18.358  0.00  0.00    +0.000 C 
ENDROOT
BRANCH   1  10
ATOM      3  C   UNL     1       3.824  14.903  20.577  0.00  0.00    +0.000 C 
ATOM      4  C   UNL     1       2.513  15.359  19.991  0.00  0.00    +0.000 A 
ATOM      5  C   UNL     1       2.496  16.613  19.354  0.00  0.00    +0.000 A 
ATOM      6  C   UNL     1       1.348  17.077  18.722  0.00  0.00    +0.000 A 
ATOM      7  C   UNL     1       0.178  16.322  18.766  0.00  0.00    +0.000 A 
ATOM      8  C   UNL     1       0.146  15.093  19.439  0.00  0.00    +0.000 A 
ATOM      9  C   UNL     1      -1.109  14.342  19.494  0.00  0.00    +0.000 A 
ATOM     10  C   UNL     1      -1.163  13.088  19.988  0.00  0.00    +0.000 A 
ATOM     11  N   UNL     1       0.009  12.517  20.521  0.00  0.00    +0.000 N 
ATOM     12  C   UNL     1       1.248  13.209  20.599  0.00  0.00    +0.000 A 
ATOM     13  O   UNL     1       2.259  12.721  21.114  0.00  0.00    +0.000 OA
ATOM     14  C   UNL     1       1.320  14.585  20.016  0.00  0.00    +0.000 A 
BRANCH  11  15
ATOM     15  C   UNL     1      -0.023  11.263  21.191  0.00  0.00    +0.000 A 
ATOM     16  C   UNL     1      -0.470  11.219  22.512  0.00  0.00    +0.000 A 
ATOM     17  C   UNL     1      -0.561   9.998  23.174  0.00  0.00    +0.000 A 
ATOM     18  C   UNL     1      -0.203   8.824  22.514  0.00  0.00    +0.000 A 
ATOM     19  C   UNL     1       0.273   8.870  21.202  0.00  0.00    +0.000 A 
ATOM     20  C   UNL     1       0.377  10.093  20.538  0.00  0.00    +0.000 A 
ENDBRANCH  11  15
ENDBRANCH   1  10
BRANCH   1  21
ATOM     21  N   UNL     1      -3.656  12.958  20.273  0.00  0.00    +0.000 N 
ATOM     22  H   UNL     1      -4.386  12.965  19.555  0.00  0.00    +0.000 HD
BRANCH  21  23
ATOM     23  C   UNL     1      -4.254  12.715  21.507  0.00  0.00    +0.000 A 
ATOM     24  N   UNL     1      -3.545  12.675  22.659  0.00  0.00    +0.000 NA
ATOM     25  C   UNL     1      -4.214  12.626  23.831  0.00  0.00    +0.000 A 
ATOM     26  N   UNL     1      -5.540  12.725  24.038  0.00  0.00    +0.000 NA
ATOM     27  C   UNL     1      -6.203  12.727  22.875  0.00  0.00    +0.000 A 
ATOM     28  N   UNL     1      -7.553  12.889  22.740  0.00  0.00    +0.000 N 
ATOM     29  C   UNL     1      -7.915  12.677  21.432  0.00  0.00    +0.000 A 
ATOM     30  C   UNL     1      -6.764  12.385  20.712  0.00  0.00    +0.000 A 
ATOM     31  C   UNL     1      -5.661  12.611  21.608  0.00  0.00    +0.000 A 
ATOM     32  H   UNL     1      -8.173  13.105  23.508  0.00  0.00    +0.000 HD
BRANCH  30  33
ATOM     33  C   UNL     1      -6.663  11.882  19.349  0.00  0.00    +0.000 C 
ATOM     34  N   UNL     1      -7.195  10.648  19.107  0.00  0.00    +0.000 N 
ATOM     35  O   UNL     1      -6.079  12.485  18.454  0.00  0.00    +0.000 OA
ATOM     36  H   UNL     1      -7.607  10.075  19.824  0.00  0.00    +0.000 HD
ATOM     37  H   UNL     1      -7.004  10.236  18.205  0.00  0.00    +0.000 HD
ENDBRANCH  30  33
ENDBRANCH  21  23
ENDBRANCH   1  21
TORSDOF 5
ENDMDL
MODEL 5
REMARK VINA RESULT:      -7.3      6.827     11.875
REMARK  Name = 
REMARK  7 active torsions:
REMARK  status: ('A' for Active; 'I' for Inactive)
REMARK    1  A    between atoms: C_1  and  C_2
REMARK    2  A    between atoms: C_8  and  C_9
REMARK    3  A    between atoms: C_9  and  C_10
REMARK    4  A    between atoms: C_9  and  N_11
REMARK    5  A    between atoms: N_11  and  C_12
REMARK    6  A    between atoms: C_19  and  C_20
REMARK    7  A    between atoms: N_24  and  C_25
REMARK                            x       y       z     vdW  Elec       q    Type
REMARK                         _______ _______ _______ _____ _____    ______ ____
ROOT
ATOM      1  C   UNL     1       8.266  15.189  20.616  0.00  0.00    +0.000 C 
ATOM      2  C   UNL     1       8.630  16.690  20.604  0.00  0.00    +0.000 C 
ENDROOT
BRANCH   1  10
ATOM      3  C   UNL     1       1.515  14.589  21.698  0.00  0.00    +0.000 C 
ATOM      4  C   UNL     1       2.394  15.091  20.581  0.00  0.00    +0.000 A 
ATOM      5  C   UNL     1       1.751  15.656  19.464  0.00  0.00    +0.000 A 
ATOM      6  C   UNL     1       2.488  16.212  18.423  0.00  0.00    +0.000 A 
ATOM      7  C   UNL     1       3.880  16.160  18.452  0.00  0.00    +0.000 A 
ATOM      8  C   UNL     1       4.550  15.555  19.525  0.00  0.00    +0.000 A 
ATOM      9  C   UNL     1       6.012  15.487  19.507  0.00  0.00    +0.000 A 
ATOM     10  C   UNL     1       6.714  15.062  20.577  0.00  0.00    +0.000 A 
ATOM     11  N   UNL     1       6.015  14.612  21.714  0.00  0.00    +0.000 N 
ATOM     12  C   UNL     1       4.597  14.550  21.783  0.00  0.00    +0.000 A 
ATOM     13  O   UNL     1       3.990  14.106  22.764  0.00  0.00    +0.000 OA
ATOM     14  C   UNL     1       3.815  15.058  20.613  0.00  0.00    +0.000 A 
BRANCH  11  15
ATOM     15  C   UNL     1       6.697  14.012  22.807  0.00  0.00    +0.000 A 
ATOM     16  C   UNL     1       7.009  12.653  22.741  0.00  0.00    +0.000 A 
ATOM     17  C   UNL     1       7.722  12.053  23.773  0.00  0.00    +0.000 A 
ATOM     18  C   UNL     1       8.122  12.812  24.872  0.00  0.00    +0.000 A 
ATOM     19  C   UNL     1       7.785  14.165  24.954  0.00  0.00    +0.000 A 
ATOM     20  C   UNL     1       7.059  14.768  23.926  0.00  0.00    +0.000 A 
ENDBRANCH  11  15
ENDBRANCH   1  10
BRANCH   1  21
ATOM     21  N   UNL     1       8.904  14.610  19.431  0.00  0.00    +0.000 N 
ATOM     22  H   UNL     1       9.187  15.319  18.748  0.00  0.00    +0.000 HD
BRANCH  21  23
ATOM     23  C   UNL     1       9.930  13.675  19.546  0.00  0.00    +0.000 A 
ATOM     24  N   UNL     1      10.015  12.819  20.590  0.00  0.00    +0.000 NA
ATOM     25  C   UNL     1      10.920  11.819  20.537  0.00  0.00    +0.000 A 
ATOM     26  N   UNL     1      11.712  11.466  19.507  0.00  0.00    +0.000 NA
ATOM     27  C   UNL     1      11.623  12.357  18.512  0.00  0.00    +0.000 A 
ATOM     28  N   UNL     1      12.244  12.248  17.300  0.00  0.00    +0.000 N 
ATOM     29  C   UNL     1      12.068  13.407  16.585  0.00  0.00    +0.000 A 
ATOM     30  C   UNL     1      11.304  14.273  17.356  0.00  0.00    +0.000 A 
ATOM     31  C   UNL     1      10.867  13.516  18.498  0.00  0.00    +0.000 A 
ATOM     32  H   UNL     1      12.770  11.436  17.009  0.00  0.00    +0.000 HD
BRANCH  30  33
ATOM     33  C   UNL     1      11.039  15.686  17.119  0.00  0.00    +0.000 C 
ATOM     34  N   UNL     1      10.672  16.040  15.853  0.00  0.00    +0.000 N 
ATOM     35  O   UNL     1      11.191  16.549  17.978  0.00  0.00    +0.000 OA
ATOM     36  H   UNL     1      10.616  15.385  15.091  0.00  0.00    +0.000 HD
ATOM     37  H   UNL     1      10.625  17.028  15.650  0.00  0.00    +0.000 HD
ENDBRANCH  30  33
ENDBRANCH  21  23
ENDBRANCH   1  21
TORSDOF 5
ENDMDL
MODEL 6
REMARK VINA RESULT:      -7.3      1.470      2.546
REMARK  Name = 
REMARK  7 active torsions:
REMARK  status: ('A' for Active; 'I' for Inactive)
REMARK    1  A    between atoms: C_1  and  C_2
REMARK    2  A    between atoms: C_8  and  C_9
REMARK    3  A    between atoms: C_9  and  C_10
REMARK    4  A    between atoms: C_9  and  N_11
REMARK    5  A    between atoms: N_11  and  C_12
REMARK    6  A    between atoms: C_19  and  C_20
REMARK    7  A    between atoms: N_24  and  C_25
REMARK                            x       y       z     vdW  Elec       q    Type
REMARK                         _______ _______ _______ _____ _____    ______ ____
ROOT
ATOM      1  C   UNL     1      -2.544  12.307  19.761  0.00  0.00    +0.000 C 
ATOM      2  C   UNL     1      -2.489  11.530  18.427  0.00  0.00    +0.000 C 
ENDROOT
BRANCH   1  10
ATOM      3  C   UNL     1       3.775  14.875  20.532  0.00  0.00    +0.000 C 
ATOM      4  C   UNL     1       2.488  15.334  19.896  0.00  0.00    +0.000 A 
ATOM      5  C   UNL     1       2.514  16.562  19.208  0.00  0.00    +0.000 A 
ATOM      6  C   UNL     1       1.391  17.023  18.529  0.00  0.00    +0.000 A 
ATOM      7  C   UNL     1       0.204  16.295  18.575  0.00  0.00    +0.000 A 
ATOM      8  C   UNL     1       0.129  15.095  19.296  0.00  0.00    +0.000 A 
ATOM      9  C   UNL     1      -1.143  14.373  19.351  0.00  0.00    +0.000 A 
ATOM     10  C   UNL     1      -1.236  13.143  19.894  0.00  0.00    +0.000 A 
ATOM     11  N   UNL     1      -0.089  12.569  20.479  0.00  0.00    +0.000 N 
ATOM     12  C   UNL     1       1.162  13.238  20.559  0.00  0.00    +0.000 A 
ATOM     13  O   UNL     1       2.150  12.751  21.119  0.00  0.00    +0.000 OA
ATOM     14  C   UNL     1       1.278  14.587  19.923  0.00  0.00    +0.000 A 
BRANCH  11  15
ATOM     15  C   UNL     1      -0.165  11.345  21.198  0.00  0.00    +0.000 A 
ATOM     16  C   UNL     1      -0.670  11.361  22.499  0.00  0.00    +0.000 A 
ATOM     17  C   UNL     1      -0.803  10.170  23.206  0.00  0.00    +0.000 A 
ATOM     18  C   UNL     1      -0.430   8.966  22.611  0.00  0.00    +0.000 A 
ATOM     19  C   UNL     1       0.104   8.952  21.321  0.00  0.00    +0.000 A 
ATOM     20  C   UNL     1       0.250  10.145  20.613  0.00  0.00    +0.000 A 
ENDBRANCH  11  15
ENDBRANCH   1  10
BRANCH   1  21
ATOM     21  N   UNL     1      -3.739  13.149  19.689  0.00  0.00    +0.000 N 
ATOM     22  H   UNL     1      -3.874  13.567  18.764  0.00  0.00    +0.000 HD
BRANCH  21  23
ATOM     23  C   UNL     1      -4.973  12.695  20.151  0.00  0.00    +0.000 A 
ATOM     24  N   UNL     1      -5.794  11.935  19.391  0.00  0.00    +0.000 NA
ATOM     25  C   UNL     1      -6.879  11.376  19.968  0.00  0.00    +0.000 A 
ATOM     26  N   UNL     1      -7.222  11.372  21.270  0.00  0.00    +0.000 NA
ATOM     27  C   UNL     1      -6.405  12.163  21.977  0.00  0.00    +0.000 A 
ATOM     28  N   UNL     1      -6.442  12.318  23.335  0.00  0.00    +0.000 N 
ATOM     29  C   UNL     1      -5.578  13.318  23.709  0.00  0.00    +0.000 A 
ATOM     30  C   UNL     1      -4.965  13.805  22.561  0.00  0.00    +0.000 A 
ATOM     31  C   UNL     1      -5.360  12.928  21.491  0.00  0.00    +0.000 A 
ATOM     32  H   UNL     1      -7.043  11.783  23.946  0.00  0.00    +0.000 HD
BRANCH  30  33
ATOM     33  C   UNL     1      -4.143  14.999  22.423  0.00  0.00    +0.000 C 
ATOM     34  N   UNL     1      -4.797  16.196  22.376  0.00  0.00    +0.000 N 
ATOM     35  O   UNL     1      -2.923  14.960  22.288  0.00  0.00    +0.000 OA
ATOM     36  H   UNL     1      -5.800  16.277  22.395  0.00  0.00    +0.000 HD
ATOM     37  H   UNL     1      -4.247  17.009  22.140  0.00  0.00    +0.000 HD
ENDBRANCH  30  33
ENDBRANCH  21  23
ENDBRANCH   1  21
TORSDOF 5
ENDMDL
MODEL 7
REMARK VINA RESULT:      -7.1      1.325      1.742
REMARK  Name = 
REMARK  7 active torsions:
REMARK  status: ('A' for Active; 'I' for Inactive)
REMARK    1  A    between atoms: C_1  and  C_2
REMARK    2  A    between atoms: C_8  and  C_9
REMARK    3  A    between atoms: C_9  and  C_10
REMARK    4  A    between atoms: C_9  and  N_11
REMARK    5  A    between atoms: N_11  and  C_12
REMARK    6  A    between atoms: C_19  and  C_20
REMARK    7  A    between atoms: N_24  and  C_25
REMARK                            x       y       z     vdW  Elec       q    Type
REMARK                         _______ _______ _______ _____ _____    ______ ____
ROOT
ATOM      1  C   UNL     1      -2.070  12.079  19.261  0.00  0.00    +0.000 C 
ATOM      2  C   UNL     1      -2.286  11.496  17.846  0.00  0.00    +0.000 C 
ENDROOT
BRANCH   1  10
ATOM      3  C   UNL     1       3.911  15.398  18.691  0.00  0.00    +0.000 C 
ATOM      4  C   UNL     1       2.453  15.777  18.651  0.00  0.00    +0.000 A 
ATOM      5  C   UNL     1       2.146  17.120  18.366  0.00  0.00    +0.000 A 
ATOM      6  C   UNL     1       0.826  17.538  18.236  0.00  0.00    +0.000 A 
ATOM      7  C   UNL     1      -0.213  16.634  18.445  0.00  0.00    +0.000 A 
ATOM      8  C   UNL     1       0.058  15.301  18.784  0.00  0.00    +0.000 A 
ATOM      9  C   UNL     1      -1.058  14.386  19.031  0.00  0.00    +0.000 A 
ATOM     10  C   UNL     1      -0.864  13.063  19.204  0.00  0.00    +0.000 A 
ATOM     11  N   UNL     1       0.454  12.565  19.210  0.00  0.00    +0.000 N 
ATOM     12  C   UNL     1       1.601  13.393  19.077  0.00  0.00    +0.000 A 
ATOM     13  O   UNL     1       2.756  12.956  19.135  0.00  0.00    +0.000 OA
ATOM     14  C   UNL     1       1.388  14.854  18.845  0.00  0.00    +0.000 A 
BRANCH  11  15
ATOM     15  C   UNL     1       0.725  11.208  19.540  0.00  0.00    +0.000 A 
ATOM     16  C   UNL     1       1.094  10.330  18.519  0.00  0.00    +0.000 A 
ATOM     17  C   UNL     1       1.415   9.011  18.821  0.00  0.00    +0.000 A 
ATOM     18  C   UNL     1       1.366   8.571  20.142  0.00  0.00    +0.000 A 
ATOM     19  C   UNL     1       0.968   9.440  21.160  0.00  0.00    +0.000 A 
ATOM     20  C   UNL     1       0.634  10.761  20.861  0.00  0.00    +0.000 A 
ENDBRANCH  11  15
ENDBRANCH   1  10
BRANCH   1  21
ATOM     21  N   UNL     1      -3.322  12.750  19.616  0.00  0.00    +0.000 N 
ATOM     22  H   UNL     1      -4.052  12.625  18.909  0.00  0.00    +0.000 HD
BRANCH  21  23
ATOM     23  C   UNL     1      -3.896  12.590  20.874  0.00  0.00    +0.000 A 
ATOM     24  N   UNL     1      -3.162  12.597  22.010  0.00  0.00    +0.000 NA
ATOM     25  C   UNL     1      -3.804  12.630  23.198  0.00  0.00    +0.000 A 
ATOM     26  N   UNL     1      -5.122  12.773  23.429  0.00  0.00    +0.000 NA
ATOM     27  C   UNL     1      -5.813  12.726  22.282  0.00  0.00    +0.000 A 
ATOM     28  N   UNL     1      -7.162  12.914  22.168  0.00  0.00    +0.000 N 
ATOM     29  C   UNL     1      -7.559  12.638  20.883  0.00  0.00    +0.000 A 
ATOM     30  C   UNL     1      -6.431  12.278  20.155  0.00  0.00    +0.000 A 
ATOM     31  C   UNL     1      -5.303  12.527  21.011  0.00  0.00    +0.000 A 
ATOM     32  H   UNL     1      -7.758  13.187  22.936  0.00  0.00    +0.000 HD
BRANCH  30  33
ATOM     33  C   UNL     1      -6.375  11.698  18.820  0.00  0.00    +0.000 C 
ATOM     34  N   UNL     1      -7.033  10.517  18.634  0.00  0.00    +0.000 N 
ATOM     35  O   UNL     1      -5.722  12.188  17.904  0.00  0.00    +0.000 OA
ATOM     36  H   UNL     1      -7.510  10.028  19.373  0.00  0.00    +0.000 HD
ATOM     37  H   UNL     1      -6.880  10.041  17.756  0.00  0.00    +0.000 HD
ENDBRANCH  30  33
ENDBRANCH  21  23
ENDBRANCH   1  21
TORSDOF 5
ENDMDL
MODEL 8
REMARK VINA RESULT:      -7.1      0.943      1.264
REMARK  Name = 
REMARK  7 active torsions:
REMARK  status: ('A' for Active; 'I' for Inactive)
REMARK    1  A    between atoms: C_1  and  C_2
REMARK    2  A    between atoms: C_8  and  C_9
REMARK    3  A    between atoms: C_9  and  C_10
REMARK    4  A    between atoms: C_9  and  N_11
REMARK    5  A    between atoms: N_11  and  C_12
REMARK    6  A    between atoms: C_19  and  C_20
REMARK    7  A    between atoms: N_24  and  C_25
REMARK                            x       y       z     vdW  Elec       q    Type
REMARK                         _______ _______ _______ _____ _____    ______ ____
ROOT
ATOM      1  C   UNL     1      -2.291  12.137  19.328  0.00  0.00    +0.000 C 
ATOM      2  C   UNL     1      -2.148  11.596  17.888  0.00  0.00    +0.000 C 
ENDROOT
BRANCH   1  10
ATOM      3  C   UNL     1       3.729  14.987  20.989  0.00  0.00    +0.000 C 
ATOM      4  C   UNL     1       2.536  15.381  20.157  0.00  0.00    +0.000 A 
ATOM      5  C   UNL     1       2.616  16.598  19.456  0.00  0.00    +0.000 A 
ATOM      6  C   UNL     1       1.591  17.000  18.606  0.00  0.00    +0.000 A 
ATOM      7  C   UNL     1       0.442  16.223  18.487  0.00  0.00    +0.000 A 
ATOM      8  C   UNL     1       0.307  15.031  19.214  0.00  0.00    +0.000 A 
ATOM      9  C   UNL     1      -0.928  14.256  19.090  0.00  0.00    +0.000 A 
ATOM     10  C   UNL     1      -1.053  13.031  19.638  0.00  0.00    +0.000 A 
ATOM     11  N   UNL     1       0.014  12.516  20.401  0.00  0.00    +0.000 N 
ATOM     12  C   UNL     1       1.211  13.239  20.655  0.00  0.00    +0.000 A 
ATOM     13  O   UNL     1       2.121  12.803  21.367  0.00  0.00    +0.000 OA
ATOM     14  C   UNL     1       1.367  14.582  20.016  0.00  0.00    +0.000 A 
BRANCH  11  15
ATOM     15  C   UNL     1      -0.120  11.300  21.126  0.00  0.00    +0.000 A 
ATOM     16  C   UNL     1       0.302  10.111  20.527  0.00  0.00    +0.000 A 
ATOM     17  C   UNL     1       0.231   8.915  21.234  0.00  0.00    +0.000 A 
ATOM     18  C   UNL     1      -0.264   8.908  22.537  0.00  0.00    +0.000 A 
ATOM     19  C   UNL     1      -0.715  10.091  23.126  0.00  0.00    +0.000 A 
ATOM     20  C   UNL     1      -0.656  11.292  22.417  0.00  0.00    +0.000 A 
ENDBRANCH  11  15
ENDBRANCH   1  10
BRANCH   1  21
ATOM     21  N   UNL     1      -3.544  12.893  19.352  0.00  0.00    +0.000 N 
ATOM     22  H   UNL     1      -4.117  12.738  18.516  0.00  0.00    +0.000 HD
BRANCH  21  23
ATOM     23  C   UNL     1      -4.379  12.875  20.466  0.00  0.00    +0.000 A 
ATOM     24  N   UNL     1      -3.904  12.717  21.723  0.00  0.00    +0.000 NA
ATOM     25  C   UNL     1      -4.745  12.901  22.763  0.00  0.00    +0.000 A 
ATOM     26  N   UNL     1      -6.016  13.344  22.738  0.00  0.00    +0.000 NA
ATOM     27  C   UNL     1      -6.456  13.453  21.479  0.00  0.00    +0.000 A 
ATOM     28  N   UNL     1      -7.677  13.945  21.111  0.00  0.00    +0.000 N 
ATOM     29  C   UNL     1      -7.862  13.763  19.763  0.00  0.00    +0.000 A 
ATOM     30  C   UNL     1      -6.723  13.151  19.254  0.00  0.00    +0.000 A 
ATOM     31  C   UNL     1      -5.762  13.137  20.324  0.00  0.00    +0.000 A 
ATOM     32  H   UNL     1      -8.337  14.351  21.759  0.00  0.00    +0.000 HD
BRANCH  30  33
ATOM     33  C   UNL     1      -6.535  12.568  17.933  0.00  0.00    +0.000 C 
ATOM     34  N   UNL     1      -6.667  11.214  17.833  0.00  0.00    +0.000 N 
ATOM     35  O   UNL     1      -6.208  13.228  16.950  0.00  0.00    +0.000 OA
ATOM     36  H   UNL     1      -6.847  10.617  18.623  0.00  0.00    +0.000 HD
ATOM     37  H   UNL     1      -6.399  10.791  16.955  0.00  0.00    +0.000 HD
ENDBRANCH  30  33
ENDBRANCH  21  23
ENDBRANCH   1  21
TORSDOF 5
ENDMDL
MODEL 9
REMARK VINA RESULT:      -6.9      2.059      2.932
REMARK  Name = 
REMARK  7 active torsions:
REMARK  status: ('A' for Active; 'I' for Inactive)
REMARK    1  A    between atoms: C_1  and  C_2
REMARK    2  A    between atoms: C_8  and  C_9
REMARK    3  A    between atoms: C_9  and  C_10
REMARK    4  A    between atoms: C_9  and  N_11
REMARK    5  A    between atoms: N_11  and  C_12
REMARK    6  A    between atoms: C_19  and  C_20
REMARK    7  A    between atoms: N_24  and  C_25
REMARK                            x       y       z     vdW  Elec       q    Type
REMARK                         _______ _______ _______ _____ _____    ______ ____
ROOT
ATOM      1  C   UNL     1      -2.710  12.225  19.998  0.00  0.00    +0.000 C 
ATOM      2  C   UNL     1      -3.054  11.926  18.521  0.00  0.00    +0.000 C 
ENDROOT
BRANCH   1  10
ATOM      3  C   UNL     1       3.631  14.837  20.280  0.00  0.00    +0.000 C 
ATOM      4  C   UNL     1       2.293  15.293  19.756  0.00  0.00    +0.000 A 
ATOM      5  C   UNL     1       2.254  16.527  19.083  0.00  0.00    +0.000 A 
ATOM      6  C   UNL     1       1.076  16.986  18.503  0.00  0.00    +0.000 A 
ATOM      7  C   UNL     1      -0.097  16.248  18.637  0.00  0.00    +0.000 A 
ATOM      8  C   UNL     1      -0.104  15.040  19.348  0.00  0.00    +0.000 A 
ATOM      9  C   UNL     1      -1.362  14.307  19.498  0.00  0.00    +0.000 A 
ATOM     10  C   UNL     1      -1.402  13.070  20.032  0.00  0.00    +0.000 A 
ATOM     11  N   UNL     1      -0.207  12.500  20.515  0.00  0.00    +0.000 N 
ATOM     12  C   UNL     1       1.042  13.178  20.500  0.00  0.00    +0.000 A 
ATOM     13  O   UNL     1       2.076  12.693  20.972  0.00  0.00    +0.000 OA
ATOM     14  C   UNL     1       1.095  14.534  19.873  0.00  0.00    +0.000 A 
BRANCH  11  15
ATOM     15  C   UNL     1      -0.214  11.267  21.224  0.00  0.00    +0.000 A 
ATOM     16  C   UNL     1      -0.632  11.261  22.556  0.00  0.00    +0.000 A 
ATOM     17  C   UNL     1      -0.698  10.061  23.257  0.00  0.00    +0.000 A 
ATOM     18  C   UNL     1      -0.346   8.870  22.625  0.00  0.00    +0.000 A 
ATOM     19  C   UNL     1       0.101   8.878  21.302  0.00  0.00    +0.000 A 
ATOM     20  C   UNL     1       0.181  10.081  20.599  0.00  0.00    +0.000 A 
ENDBRANCH  11  15
ENDBRANCH   1  10
BRANCH   1  21
ATOM     21  N   UNL     1      -3.859  12.952  20.541  0.00  0.00    +0.000 N 
ATOM     22  H   UNL     1      -4.755  12.559  20.238  0.00  0.00    +0.000 HD
BRANCH  21  23
ATOM     23  C   UNL     1      -3.947  13.256  21.897  0.00  0.00    +0.000 A 
ATOM     24  N   UNL     1      -4.067  12.299  22.846  0.00  0.00    +0.000 NA
ATOM     25  C   UNL     1      -3.954  12.655  24.144  0.00  0.00    +0.000 A 
ATOM     26  N   UNL     1      -3.618  13.854  24.653  0.00  0.00    +0.000 NA
ATOM     27  C   UNL     1      -3.544  14.777  23.685  0.00  0.00    +0.000 A 
ATOM     28  N   UNL     1      -3.154  16.074  23.863  0.00  0.00    +0.000 N 
ATOM     29  C   UNL     1      -3.349  16.779  22.700  0.00  0.00    +0.000 A 
ATOM     30  C   UNL     1      -3.864  15.904  21.752  0.00  0.00    +0.000 A 
ATOM     31  C   UNL     1      -3.801  14.592  22.338  0.00  0.00    +0.000 A 
ATOM     32  H   UNL     1      -2.805  16.442  24.737  0.00  0.00    +0.000 HD
BRANCH  30  33
ATOM     33  C   UNL     1      -4.428  16.227  20.448  0.00  0.00    +0.000 C 
ATOM     34  N   UNL     1      -3.733  17.114  19.679  0.00  0.00    +0.000 N 
ATOM     35  O   UNL     1      -5.507  15.790  20.058  0.00  0.00    +0.000 OA
ATOM     36  H   UNL     1      -2.889  17.569  19.987  0.00  0.00    +0.000 HD
ATOM     37  H   UNL     1      -4.187  17.448  18.841  0.00  0.00    +0.000 HD
ENDBRANCH  30  33
ENDBRANCH  21  23
ENDBRANCH   1  21
TORSDOF 5
ENDMDL
