MODEL 1
REMARK VINA RESULT:      -8.1      0.000      0.000
REMARK  Name = 
REMARK  7 active torsions:
REMARK  status: ('A' for Active; 'I' for Inactive)
REMARK    1  A    between atoms: C_1  and  C_2
REMARK    2  A    between atoms: C_2  and  C_3
REMARK    3  A    between atoms: C_3  and  C_4
REMARK    4  A    between atoms: C_3  and  C_5
REMARK    5  A    between atoms: N_10  and  C_11
REMARK    6  A    between atoms: C_11  and  C_12
REMARK    7  A    between atoms: C_12  and  C_13
REMARK                            x       y       z     vdW  Elec       q    Type
REMARK                         _______ _______ _______ _____ _____    ______ ____
ROOT
ATOM      1  C   UNL     1       4.407   6.326  18.164  0.00  0.00    +0.000 C 
ENDROOT
BRANCH   1   7
ATOM      2  C   UNL     1       5.469   5.112  16.353  0.00  0.00    +0.000 C 
ATOM      3  C   UNL     1       6.491   4.377  17.291  0.00  0.00    +0.000 C 
ATOM      4  N   UNL     1       7.757   5.114  17.507  0.00  0.00    +0.000 NA
ATOM      5  C   UNL     1       7.481   6.502  17.928  0.00  0.00    +0.000 C 
ATOM      6  C   UNL     1       6.409   7.237  17.086  0.00  0.00    +0.000 C 
ATOM      7  N   UNL     1       5.148   6.489  16.891  0.00  0.00    +0.000 NA
ATOM      8  H   UNL     1       8.264   5.146  16.625  0.00  0.00    +0.000 HD
BRANCH   2   9
ATOM      9  C   UNL     1       5.952   5.134  14.857  0.00  0.00    +0.000 C 
ATOM     10  C   UNL     1       7.456   4.833  14.738  0.00  0.00    +0.000 C 
BRANCH   9  12
ATOM     11  C   UNL     1       5.935   3.534  12.785  0.00  0.00    +0.000 C 
ATOM     12  C   UNL     1       5.150   4.224  13.892  0.00  0.00    +0.000 C 
ENDBRANCH   9  12
ENDBRANCH   2   9
ENDBRANCH   1   7
BRANCH   1  13
ATOM     13  C   UNL     1       2.893   6.030  18.158  0.00  0.00    +0.000 C 
BRANCH  13  14
ATOM     14  C   UNL     1       2.574   4.599  18.704  0.00  0.00    +0.000 C 
ATOM     15  C   UNL     1       3.749   4.037  19.558  0.00  0.00    +0.000 C 
ATOM     16  C   UNL     1       3.432   2.626  20.076  0.00  0.00    +0.000 C 
ATOM     17  C   UNL     1       2.181   2.687  20.963  0.00  0.00    +0.000 C 
ATOM     18  C   UNL     1       0.991   3.222  20.152  0.00  0.00    +0.000 C 
ATOM     19  C   UNL     1       0.730   2.277  18.964  0.00  0.00    +0.000 C 
ATOM     20  C   UNL     1       1.970   2.210  18.067  0.00  0.00    +0.000 C 
ATOM     21  C   UNL     1       3.172   1.699  18.879  0.00  0.00    +0.000 C 
ATOM     22  C   UNL     1       2.287   3.614  17.539  0.00  0.00    +0.000 C 
ATOM     23  C   UNL     1       1.319   4.633  19.618  0.00  0.00    +0.000 C 
ENDBRANCH  13  14
ENDBRANCH   1  13
TORSDOF 5
ENDMDL
MODEL 2
REMARK VINA RESULT:      -8.0      0.375      1.741
REMARK  Name = 
REMARK  7 active torsions:
REMARK  status: ('A' for Active; 'I' for Inactive)
REMARK    1  A    between atoms: C_1  and  C_2
REMARK    2  A    between atoms: C_2  and  C_3
REMARK    3  A    between atoms: C_3  and  C_4
REMARK    4  A    between atoms: C_3  and  C_5
REMARK    5  A    between atoms: N_10  and  C_11
REMARK    6  A    between atoms: C_11  and  C_12
REMARK    7  A    between atoms: C_12  and  C_13
REMARK                            x       y       z     vdW  Elec       q    Type
REMARK                         _______ _______ _______ _____ _____    ______ ____
ROOT
ATOM      1  C   UNL     1       4.414   6.280  18.200  0.00  0.00    +0.000 C 
ENDROOT
BRANCH   1   7
ATOM      2  C   UNL     1       5.506   5.101  16.384  0.00  0.00    +0.000 C 
ATOM      3  C   UNL     1       6.592   4.445  17.309  0.00  0.00    +0.000 C 
ATOM      4  N   UNL     1       7.815   5.260  17.484  0.00  0.00    +0.000 NA
ATOM      5  C   UNL     1       7.466   6.636  17.888  0.00  0.00    +0.000 C 
ATOM      6  C   UNL     1       6.332   7.292  17.061  0.00  0.00    +0.000 C 
ATOM      7  N   UNL     1       5.115   6.465  16.907  0.00  0.00    +0.000 NA
ATOM      8  H   UNL     1       8.299   5.308  16.589  0.00  0.00    +0.000 HD
BRANCH   2   9
ATOM      9  C   UNL     1       5.953   5.127  14.877  0.00  0.00    +0.000 C 
ATOM     10  C   UNL     1       7.460   4.859  14.723  0.00  0.00    +0.000 C 
BRANCH   9  12
ATOM     11  C   UNL     1       5.919   3.533  12.800  0.00  0.00    +0.000 C 
ATOM     12  C   UNL     1       5.150   4.195  13.934  0.00  0.00    +0.000 C 
ENDBRANCH   9  12
ENDBRANCH   2   9
ENDBRANCH   1   7
BRANCH   1  13
ATOM     13  C   UNL     1       2.885   6.077  18.241  0.00  0.00    +0.000 C 
BRANCH  13  14
ATOM     14  C   UNL     1       2.493   4.705  18.883  0.00  0.00    +0.000 C 
ATOM     15  C   UNL     1       1.801   3.766  17.852  0.00  0.00    +0.000 C 
ATOM     16  C   UNL     1       1.408   2.429  18.498  0.00  0.00    +0.000 C 
ATOM     17  C   UNL     1       2.673   1.729  19.013  0.00  0.00    +0.000 C 
ATOM     18  C   UNL     1       3.378   2.617  20.048  0.00  0.00    +0.000 C 
ATOM     19  C   UNL     1       2.418   2.870  21.226  0.00  0.00    +0.000 C 
ATOM     20  C   UNL     1       1.152   3.574  20.727  0.00  0.00    +0.000 C 
ATOM     21  C   UNL     1       0.454   2.700  19.672  0.00  0.00    +0.000 C 
ATOM     22  C   UNL     1       1.538   4.913  20.090  0.00  0.00    +0.000 C 
ATOM     23  C   UNL     1       3.757   3.966  19.401  0.00  0.00    +0.000 C 
ENDBRANCH  13  14
ENDBRANCH   1  13
TORSDOF 5
ENDMDL
MODEL 3
REMARK VINA RESULT:      -8.0      0.409      1.457
REMARK  Name = 
REMARK  7 active torsions:
REMARK  status: ('A' for Active; 'I' for Inactive)
REMARK    1  A    between atoms: C_1  and  C_2
REMARK    2  A    between atoms: C_2  and  C_3
REMARK    3  A    between atoms: C_3  and  C_4
REMARK    4  A    between atoms: C_3  and  C_5
REMARK    5  A    between atoms: N_10  and  C_11
REMARK    6  A    between atoms: C_11  and  C_12
REMARK    7  A    between atoms: C_12  and  C_13
REMARK                            x       y       z     vdW  Elec       q    Type
REMARK                         _______ _______ _______ _____ _____    ______ ____
ROOT
ATOM      1  C   UNL     1       4.387   6.284  18.155  0.00  0.00    +0.000 C 
ENDROOT
BRANCH   1   7
ATOM      2  C   UNL     1       5.482   5.092  16.348  0.00  0.00    +0.000 C 
ATOM      3  C   UNL     1       6.553   4.424  17.283  0.00  0.00    +0.000 C 
ATOM      4  N   UNL     1       7.784   5.226  17.467  0.00  0.00    +0.000 NA
ATOM      5  C   UNL     1       7.446   6.606  17.869  0.00  0.00    +0.000 C 
ATOM      6  C   UNL     1       6.327   7.274  17.032  0.00  0.00    +0.000 C 
ATOM      7  N   UNL     1       5.101   6.460  16.868  0.00  0.00    +0.000 NA
ATOM      8  H   UNL     1       8.275   5.268  16.577  0.00  0.00    +0.000 HD
BRANCH   2   9
ATOM      9  C   UNL     1       5.942   5.112  14.845  0.00  0.00    +0.000 C 
ATOM     10  C   UNL     1       7.453   4.858  14.706  0.00  0.00    +0.000 C 
BRANCH   9  12
ATOM     11  C   UNL     1       5.933   3.535  12.756  0.00  0.00    +0.000 C 
ATOM     12  C   UNL     1       5.156   4.166  13.902  0.00  0.00    +0.000 C 
ENDBRANCH   9  12
ENDBRANCH   2   9
ENDBRANCH   1   7
BRANCH   1  13
ATOM     13  C   UNL     1       2.859   6.071  18.181  0.00  0.00    +0.000 C 
BRANCH  13  14
ATOM     14  C   UNL     1       2.467   4.727  18.878  0.00  0.00    +0.000 C 
ATOM     15  C   UNL     1       1.552   4.969  20.115  0.00  0.00    +0.000 C 
ATOM     16  C   UNL     1       1.186   3.643  20.800  0.00  0.00    +0.000 C 
ATOM     17  C   UNL     1       0.424   2.758  19.805  0.00  0.00    +0.000 C 
ATOM     18  C   UNL     1       1.300   2.480  18.575  0.00  0.00    +0.000 C 
ATOM     19  C   UNL     1       2.582   1.756  19.027  0.00  0.00    +0.000 C 
ATOM     20  C   UNL     1       3.356   2.632  20.017  0.00  0.00    +0.000 C 
ATOM     21  C   UNL     1       2.475   2.934  21.242  0.00  0.00    +0.000 C 
ATOM     22  C   UNL     1       3.732   3.952  19.336  0.00  0.00    +0.000 C 
ATOM     23  C   UNL     1       1.681   3.815  17.898  0.00  0.00    +0.000 C 
ENDBRANCH  13  14
ENDBRANCH   1  13
TORSDOF 5
ENDMDL
MODEL 4
REMARK VINA RESULT:      -7.9      1.248      2.217
REMARK  Name = 
REMARK  7 active torsions:
REMARK  status: ('A' for Active; 'I' for Inactive)
REMARK    1  A    between atoms: C_1  and  C_2
REMARK    2  A    between atoms: C_2  and  C_3
REMARK    3  A    between atoms: C_3  and  C_4
REMARK    4  A    between atoms: C_3  and  C_5
REMARK    5  A    between atoms: N_10  and  C_11
REMARK    6  A    between atoms: C_11  and  C_12
REMARK    7  A    between atoms: C_12  and  C_13
REMARK                            x       y       z     vdW  Elec       q    Type
REMARK                         _______ _______ _______ _____ _____    ______ ____
ROOT
ATOM      1  C   UNL     1       4.909   3.884  17.437  0.00  0.00    +0.000 C 
ENDROOT
BRANCH   1   7
ATOM      2  C   UNL     1       6.252   4.238  15.449  0.00  0.00    +0.000 C 
ATOM      3  C   UNL     1       7.480   4.813  16.241  0.00  0.00    +0.000 C 
ATOM      4  N   UNL     1       7.439   6.279  16.444  0.00  0.00    +0.000 NA
ATOM      5  C   UNL     1       6.139   6.685  17.016  0.00  0.00    +0.000 C 
ATOM      6  C   UNL     1       4.900   6.066  16.324  0.00  0.00    +0.000 C 
ATOM      7  N   UNL     1       4.956   4.599  16.140  0.00  0.00    +0.000 NA
ATOM      8  H   UNL     1       7.539   6.732  15.538  0.00  0.00    +0.000 HD
BRANCH   2   9
ATOM      9  C   UNL     1       6.278   4.656  13.934  0.00  0.00    +0.000 C 
ATOM     10  C   UNL     1       7.701   5.004  13.462  0.00  0.00    +0.000 C 
BRANCH   9  12
ATOM     11  C   UNL     1       6.517   3.080  11.857  0.00  0.00    +0.000 C 
ATOM     12  C   UNL     1       5.629   3.642  12.958  0.00  0.00    +0.000 C 
ENDBRANCH   9  12
ENDBRANCH   2   9
ENDBRANCH   1   7
BRANCH   1  13
ATOM     13  C   UNL     1       3.812   2.834  17.714  0.00  0.00    +0.000 C 
BRANCH  13  14
ATOM     14  C   UNL     1       2.946   3.207  18.962  0.00  0.00    +0.000 C 
ATOM     15  C   UNL     1       2.896   4.747  19.185  0.00  0.00    +0.000 C 
ATOM     16  C   UNL     1       2.056   5.100  20.422  0.00  0.00    +0.000 C 
ATOM     17  C   UNL     1       0.621   4.598  20.214  0.00  0.00    +0.000 C 
ATOM     18  C   UNL     1       0.625   3.076  20.007  0.00  0.00    +0.000 C 
ATOM     19  C   UNL     1       1.226   2.403  21.255  0.00  0.00    +0.000 C 
ATOM     20  C   UNL     1       2.661   2.892  21.472  0.00  0.00    +0.000 C 
ATOM     21  C   UNL     1       2.669   4.419  21.655  0.00  0.00    +0.000 C 
ATOM     22  C   UNL     1       3.507   2.534  20.244  0.00  0.00    +0.000 C 
ATOM     23  C   UNL     1       1.483   2.723  18.773  0.00  0.00    +0.000 C 
ENDBRANCH  13  14
ENDBRANCH   1  13
TORSDOF 5
ENDMDL
MODEL 5
REMARK VINA RESULT:      -7.8      1.246      2.372
REMARK  Name = 
REMARK  7 active torsions:
REMARK  status: ('A' for Active; 'I' for Inactive)
REMARK    1  A    between atoms: C_1  and  C_2
REMARK    2  A    between atoms: C_2  and  C_3
REMARK    3  A    between atoms: C_3  and  C_4
REMARK    4  A    between atoms: C_3  and  C_5
REMARK    5  A    between atoms: N_10  and  C_11
REMARK    6  A    between atoms: C_11  and  C_12
REMARK    7  A    between atoms: C_12  and  C_13
REMARK                            x       y       z     vdW  Elec       q    Type
REMARK                         _______ _______ _______ _____ _____    ______ ____
ROOT
ATOM      1  C   UNL     1       4.869   3.758  17.379  0.00  0.00    +0.000 C 
ENDROOT
BRANCH   1   7
ATOM      2  C   UNL     1       6.185   4.132  15.376  0.00  0.00    +0.000 C 
ATOM      3  C   UNL     1       7.450   4.629  16.160  0.00  0.00    +0.000 C 
ATOM      4  N   UNL     1       7.472   6.087  16.417  0.00  0.00    +0.000 NA
ATOM      5  C   UNL     1       6.202   6.523  17.032  0.00  0.00    +0.000 C 
ATOM      6  C   UNL     1       4.925   5.979  16.345  0.00  0.00    +0.000 C 
ATOM      7  N   UNL     1       4.919   4.519  16.107  0.00  0.00    +0.000 NA
ATOM      8  H   UNL     1       7.572   6.568  15.525  0.00  0.00    +0.000 HD
BRANCH   2   9
ATOM      9  C   UNL     1       6.196   4.604  13.876  0.00  0.00    +0.000 C 
ATOM     10  C   UNL     1       7.624   4.888  13.378  0.00  0.00    +0.000 C 
BRANCH   9  12
ATOM     11  C   UNL     1       6.336   2.811  11.974  0.00  0.00    +0.000 C 
ATOM     12  C   UNL     1       5.465   3.666  12.883  0.00  0.00    +0.000 C 
ENDBRANCH   9  12
ENDBRANCH   2   9
ENDBRANCH   1   7
BRANCH   1  13
ATOM     13  C   UNL     1       3.743   2.735  17.637  0.00  0.00    +0.000 C 
BRANCH  13  14
ATOM     14  C   UNL     1       2.907   3.093  18.910  0.00  0.00    +0.000 C 
ATOM     15  C   UNL     1       1.516   2.392  18.898  0.00  0.00    +0.000 C 
ATOM     16  C   UNL     1       0.699   2.763  20.145  0.00  0.00    +0.000 C 
ATOM     17  C   UNL     1       1.457   2.303  21.397  0.00  0.00    +0.000 C 
ATOM     18  C   UNL     1       2.832   2.987  21.456  0.00  0.00    +0.000 C 
ATOM     19  C   UNL     1       2.630   4.512  21.512  0.00  0.00    +0.000 C 
ATOM     20  C   UNL     1       1.878   4.986  20.264  0.00  0.00    +0.000 C 
ATOM     21  C   UNL     1       0.510   4.287  20.185  0.00  0.00    +0.000 C 
ATOM     22  C   UNL     1       2.693   4.627  19.017  0.00  0.00    +0.000 C 
ATOM     23  C   UNL     1       3.644   2.626  20.194  0.00  0.00    +0.000 C 
ENDBRANCH  13  14
ENDBRANCH   1  13
TORSDOF 5
ENDMDL
MODEL 6
REMARK VINA RESULT:      -7.7      1.343      2.047
REMARK  Name = 
REMARK  7 active torsions:
REMARK  status: ('A' for Active; 'I' for Inactive)
REMARK    1  A    between atoms: C_1  and  C_2
REMARK    2  A    between atoms: C_2  and  C_3
REMARK    3  A    between atoms: C_3  and  C_4
REMARK    4  A    between atoms: C_3  and  C_5
REMARK    5  A    between atoms: N_10  and  C_11
REMARK    6  A    between atoms: C_11  and  C_12
REMARK    7  A    between atoms: C_12  and  C_13
REMARK                            x       y       z     vdW  Elec       q    Type
REMARK                         _______ _______ _______ _____ _____    ______ ____
ROOT
ATOM      1  C   UNL     1       4.926   3.781  17.083  0.00  0.00    +0.000 C 
ENDROOT
BRANCH   1   7
ATOM      2  C   UNL     1       6.351   4.121  15.151  0.00  0.00    +0.000 C 
ATOM      3  C   UNL     1       7.543   4.708  15.988  0.00  0.00    +0.000 C 
ATOM      4  N   UNL     1       7.488   6.176  16.176  0.00  0.00    +0.000 NA
ATOM      5  C   UNL     1       6.164   6.582  16.689  0.00  0.00    +0.000 C 
ATOM      6  C   UNL     1       4.957   5.953  15.951  0.00  0.00    +0.000 C 
ATOM      7  N   UNL     1       5.026   4.484  15.782  0.00  0.00    +0.000 NA
ATOM      8  H   UNL     1       7.625   6.620  15.270  0.00  0.00    +0.000 HD
BRANCH   2   9
ATOM      9  C   UNL     1       6.440   4.525  13.634  0.00  0.00    +0.000 C 
ATOM     10  C   UNL     1       7.800   5.158  13.290  0.00  0.00    +0.000 C 
BRANCH   9  12
ATOM     11  C   UNL     1       4.764   3.462  11.928  0.00  0.00    +0.000 C 
ATOM     12  C   UNL     1       6.113   3.392  12.629  0.00  0.00    +0.000 C 
ENDBRANCH   9  12
ENDBRANCH   2   9
ENDBRANCH   1   7
BRANCH   1  13
ATOM     13  C   UNL     1       3.765   2.801  17.358  0.00  0.00    +0.000 C 
BRANCH  13  14
ATOM     14  C   UNL     1       2.962   3.191  18.642  0.00  0.00    +0.000 C 
ATOM     15  C   UNL     1       3.894   3.770  19.747  0.00  0.00    +0.000 C 
ATOM     16  C   UNL     1       3.097   4.134  21.009  0.00  0.00    +0.000 C 
ATOM     17  C   UNL     1       2.055   5.201  20.653  0.00  0.00    +0.000 C 
ATOM     18  C   UNL     1       1.102   4.663  19.576  0.00  0.00    +0.000 C 
ATOM     19  C   UNL     1       0.387   3.412  20.120  0.00  0.00    +0.000 C 
ATOM     20  C   UNL     1       1.417   2.335  20.475  0.00  0.00    +0.000 C 
ATOM     21  C   UNL     1       2.390   2.876  21.536  0.00  0.00    +0.000 C 
ATOM     22  C   UNL     1       2.209   1.960  19.217  0.00  0.00    +0.000 C 
ATOM     23  C   UNL     1       1.907   4.282  18.315  0.00  0.00    +0.000 C 
ENDBRANCH  13  14
ENDBRANCH   1  13
TORSDOF 5
ENDMDL
MODEL 7
REMARK VINA RESULT:      -7.7      1.396      3.280
REMARK  Name = 
REMARK  7 active torsions:
REMARK  status: ('A' for Active; 'I' for Inactive)
REMARK    1  A    between atoms: C_1  and  C_2
REMARK    2  A    between atoms: C_2  and  C_3
REMARK    3  A    between atoms: C_3  and  C_4
REMARK    4  A    between atoms: C_3  and  C_5
REMARK    5  A    between atoms: N_10  and  C_11
REMARK    6  A    between atoms: C_11  and  C_12
REMARK    7  A    between atoms: C_12  and  C_13
REMARK                            x       y       z     vdW  Elec       q    Type
REMARK                         _______ _______ _______ _____ _____    ______ ____
ROOT
ATOM      1  C   UNL     1       4.274   3.780  16.838  0.00  0.00    +0.000 C 
ENDROOT
BRANCH   1   7
ATOM      2  C   UNL     1       5.785   5.670  17.005  0.00  0.00    +0.000 C 
ATOM      3  C   UNL     1       5.198   6.399  15.745  0.00  0.00    +0.000 C 
ATOM      4  N   UNL     1       5.846   6.024  14.468  0.00  0.00    +0.000 NA
ATOM      5  C   UNL     1       5.886   4.555  14.321  0.00  0.00    +0.000 C 
ATOM      6  C   UNL     1       6.373   3.787  15.574  0.00  0.00    +0.000 C 
ATOM      7  N   UNL     1       5.705   4.169  16.838  0.00  0.00    +0.000 NA
ATOM      8  H   UNL     1       6.806   6.366  14.484  0.00  0.00    +0.000 HD
BRANCH   2   9
ATOM      9  C   UNL     1       7.233   6.172  17.356  0.00  0.00    +0.000 C 
ATOM     10  C   UNL     1       7.342   7.705  17.274  0.00  0.00    +0.000 C 
BRANCH   9  12
ATOM     11  C   UNL     1       6.780   5.271  19.771  0.00  0.00    +0.000 C 
ATOM     12  C   UNL     1       7.795   5.672  18.711  0.00  0.00    +0.000 C 
ENDBRANCH   9  12
ENDBRANCH   2   9
ENDBRANCH   1   7
BRANCH   1  13
ATOM     13  C   UNL     1       3.786   2.589  17.689  0.00  0.00    +0.000 C 
BRANCH  13  14
ATOM     14  C   UNL     1       2.946   3.056  18.923  0.00  0.00    +0.000 C 
ATOM     15  C   UNL     1       3.574   2.567  20.262  0.00  0.00    +0.000 C 
ATOM     16  C   UNL     1       2.733   3.019  21.465  0.00  0.00    +0.000 C 
ATOM     17  C   UNL     1       2.678   4.551  21.492  0.00  0.00    +0.000 C 
ATOM     18  C   UNL     1       2.048   5.075  20.194  0.00  0.00    +0.000 C 
ATOM     19  C   UNL     1       0.619   4.515  20.070  0.00  0.00    +0.000 C 
ATOM     20  C   UNL     1       0.658   2.984  20.037  0.00  0.00    +0.000 C 
ATOM     21  C   UNL     1       1.311   2.453  21.324  0.00  0.00    +0.000 C 
ATOM     22  C   UNL     1       1.489   2.527  18.832  0.00  0.00    +0.000 C 
ATOM     23  C   UNL     1       2.886   4.606  18.985  0.00  0.00    +0.000 C 
ENDBRANCH  13  14
ENDBRANCH   1  13
TORSDOF 5
ENDMDL
MODEL 8
REMARK VINA RESULT:      -7.7      1.407      3.420
REMARK  Name = 
REMARK  7 active torsions:
REMARK  status: ('A' for Active; 'I' for Inactive)
REMARK    1  A    between atoms: C_1  and  C_2
REMARK    2  A    between atoms: C_2  and  C_3
REMARK    3  A    between atoms: C_3  and  C_4
REMARK    4  A    between atoms: C_3  and  C_5
REMARK    5  A    between atoms: N_10  and  C_11
REMARK    6  A    between atoms: C_11  and  C_12
REMARK    7  A    between atoms: C_12  and  C_13
REMARK                            x       y       z     vdW  Elec       q    Type
REMARK                         _______ _______ _______ _____ _____    ______ ____
ROOT
ATOM      1  C   UNL     1       4.263   3.858  16.857  0.00  0.00    +0.000 C 
ENDROOT
BRANCH   1   7
ATOM      2  C   UNL     1       5.797   5.734  16.977  0.00  0.00    +0.000 C 
ATOM      3  C   UNL     1       5.264   6.403  15.660  0.00  0.00    +0.000 C 
ATOM      4  N   UNL     1       5.950   5.951  14.428  0.00  0.00    +0.000 NA
ATOM      5  C   UNL     1       5.972   4.476  14.360  0.00  0.00    +0.000 C 
ATOM      6  C   UNL     1       6.403   3.769  15.669  0.00  0.00    +0.000 C 
ATOM      7  N   UNL     1       5.699   4.227  16.886  0.00  0.00    +0.000 NA
ATOM      8  H   UNL     1       6.913   6.280  14.459  0.00  0.00    +0.000 HD
BRANCH   2   9
ATOM      9  C   UNL     1       7.239   6.233  17.351  0.00  0.00    +0.000 C 
ATOM     10  C   UNL     1       7.353   7.766  17.267  0.00  0.00    +0.000 C 
BRANCH   9  12
ATOM     11  C   UNL     1       6.745   5.282  19.739  0.00  0.00    +0.000 C 
ATOM     12  C   UNL     1       7.777   5.736  18.717  0.00  0.00    +0.000 C 
ENDBRANCH   9  12
ENDBRANCH   2   9
ENDBRANCH   1   7
BRANCH   1  13
ATOM     13  C   UNL     1       3.746   2.656  17.674  0.00  0.00    +0.000 C 
BRANCH  13  14
ATOM     14  C   UNL     1       2.919   3.109  18.922  0.00  0.00    +0.000 C 
ATOM     15  C   UNL     1       2.839   4.661  19.025  0.00  0.00    +0.000 C 
ATOM     16  C   UNL     1       2.038   5.094  20.262  0.00  0.00    +0.000 C 
ATOM     17  C   UNL     1       0.610   4.547  20.152  0.00  0.00    +0.000 C 
ATOM     18  C   UNL     1       0.642   3.013  20.066  0.00  0.00    +0.000 C 
ATOM     19  C   UNL     1       1.307   2.455  21.338  0.00  0.00    +0.000 C 
ATOM     20  C   UNL     1       2.737   2.991  21.459  0.00  0.00    +0.000 C 
ATOM     21  C   UNL     1       2.714   4.527  21.520  0.00  0.00    +0.000 C 
ATOM     22  C   UNL     1       3.544   2.553  20.231  0.00  0.00    +0.000 C 
ATOM     23  C   UNL     1       1.462   2.581  18.831  0.00  0.00    +0.000 C 
ENDBRANCH  13  14
ENDBRANCH   1  13
TORSDOF 5
ENDMDL
MODEL 9
REMARK VINA RESULT:      -7.6      1.364      2.436
REMARK  Name = 
REMARK  7 active torsions:
REMARK  status: ('A' for Active; 'I' for Inactive)
REMARK    1  A    between atoms: C_1  and  C_2
REMARK    2  A    between atoms: C_2  and  C_3
REMARK    3  A    between atoms: C_3  and  C_4
REMARK    4  A    between atoms: C_3  and  C_5
REMARK    5  A    between atoms: N_10  and  C_11
REMARK    6  A    between atoms: C_11  and  C_12
REMARK    7  A    between atoms: C_12  and  C_13
REMARK                            x       y       z     vdW  Elec       q    Type
REMARK                         _______ _______ _______ _____ _____    ______ ____
ROOT
ATOM      1  C   UNL     1       4.957   3.691  16.997  0.00  0.00    +0.000 C 
ENDROOT
BRANCH   1   7
ATOM      2  C   UNL     1       6.338   4.060  15.037  0.00  0.00    +0.000 C 
ATOM      3  C   UNL     1       7.534   4.669  15.852  0.00  0.00    +0.000 C 
ATOM      4  N   UNL     1       7.455   6.135  16.042  0.00  0.00    +0.000 NA
ATOM      5  C   UNL     1       6.134   6.516  16.581  0.00  0.00    +0.000 C 
ATOM      6  C   UNL     1       4.926   5.864  15.866  0.00  0.00    +0.000 C 
ATOM      7  N   UNL     1       5.019   4.398  15.695  0.00  0.00    +0.000 NA
ATOM      8  H   UNL     1       7.567   6.583  15.134  0.00  0.00    +0.000 HD
BRANCH   2   9
ATOM      9  C   UNL     1       6.390   4.467  13.520  0.00  0.00    +0.000 C 
ATOM     10  C   UNL     1       7.740   5.102  13.144  0.00  0.00    +0.000 C 
BRANCH   9  12
ATOM     11  C   UNL     1       4.692   3.425  11.821  0.00  0.00    +0.000 C 
ATOM     12  C   UNL     1       6.040   3.335  12.520  0.00  0.00    +0.000 C 
ENDBRANCH   9  12
ENDBRANCH   2   9
ENDBRANCH   1   7
BRANCH   1  13
ATOM     13  C   UNL     1       4.812   4.484  18.313  0.00  0.00    +0.000 C 
BRANCH  13  14
ATOM     14  C   UNL     1       3.548   4.047  19.123  0.00  0.00    +0.000 C 
ATOM     15  C   UNL     1       2.320   3.821  18.192  0.00  0.00    +0.000 C 
ATOM     16  C   UNL     1       1.081   3.407  19.001  0.00  0.00    +0.000 C 
ATOM     17  C   UNL     1       1.377   2.091  19.733  0.00  0.00    +0.000 C 
ATOM     18  C   UNL     1       2.574   2.276  20.678  0.00  0.00    +0.000 C 
ATOM     19  C   UNL     1       2.234   3.370  21.707  0.00  0.00    +0.000 C 
ATOM     20  C   UNL     1       1.942   4.691  20.990  0.00  0.00    +0.000 C 
ATOM     21  C   UNL     1       0.759   4.507  20.024  0.00  0.00    +0.000 C 
ATOM     22  C   UNL     1       3.178   5.114  20.189  0.00  0.00    +0.000 C 
ATOM     23  C   UNL     1       3.813   2.708  19.865  0.00  0.00    +0.000 C 
ENDBRANCH  13  14
ENDBRANCH   1  13
TORSDOF 5
ENDMDL
