MODEL 1
REMARK VINA RESULT:      -8.8      0.000      0.000
REMARK  Name = 
REMARK  11 active torsions:
REMARK  status: ('A' for Active; 'I' for Inactive)
REMARK    1  A    between atoms: C_1  and  O_2
REMARK    2  A    between atoms: O_2  and  C_3
REMARK    3  A    between atoms: C_8  and  O_9
REMARK    4  A    between atoms: O_9  and  C_10
REMARK    5  A    between atoms: C_10  and  C_11
REMARK    6  A    between atoms: C_11  and  C_12
REMARK    7  A    between atoms: C_11  and  N_14
REMARK    8  A    between atoms: C_12  and  O_13
REMARK    9  A    between atoms: C_15  and  C_17
REMARK   10  A    between atoms: C_17  and  O_18
REMARK   11  A    between atoms: O_18  and  C_19
REMARK                            x       y       z     vdW  Elec       q    Type
REMARK                         _______ _______ _______ _____ _____    ______ ____
ROOT
ATOM      1  N   UNK A   1       2.838   2.959  20.222  0.00  0.00    +0.000 N 
ATOM      2  C   UNK A   0       2.117   3.690  21.121  0.00  0.00    +0.000 C 
ATOM      3  O   UNK A   0       2.126   3.357  22.307  0.00  0.00    +0.000 OA
ATOM      4  H   UNK A   1       3.355   2.191  20.642  0.00  0.00    +0.000 HD
ENDROOT
BRANCH   1   5
ATOM      5  C   UNK A   1       3.237   3.354  18.866  0.00  0.00    +0.000 C 
BRANCH   5   6
ATOM      6  C   UNK A   1       4.779   3.364  18.765  0.00  0.00    +0.000 C 
BRANCH   6   7
ATOM      7  O   UNK A   1       5.216   3.991  17.564  0.00  0.00    +0.000 OA
BRANCH   7  13
ATOM      8  C   UNK A   1       6.432   6.021  16.725  0.00  0.00    +0.000 A 
ATOM      9  C   UNK A   1       7.321   7.054  17.069  0.00  0.00    +0.000 A 
ATOM     10  C   UNK A   1       7.959   7.063  18.307  0.00  0.00    +0.000 A 
ATOM     11  C   UNK A   1       7.694   6.054  19.225  0.00  0.00    +0.000 A 
ATOM     12  C   UNK A   1       6.767   5.057  18.914  0.00  0.00    +0.000 A 
ATOM     13  C   UNK A   1       6.110   5.033  17.673  0.00  0.00    +0.000 A 
BRANCH   8  15
ATOM     14  C   UNK A   1       6.273   5.021  14.580  0.00  0.00    +0.000 C 
ATOM     15  O   UNK A   1       5.828   6.021  15.496  0.00  0.00    +0.000 OA
ENDBRANCH   8  15
ENDBRANCH   7  13
ENDBRANCH   6   7
ENDBRANCH   5   6
BRANCH   5  16
ATOM     16  C   UNK A   1       2.575   2.403  17.856  0.00  0.00    +0.000 C 
BRANCH  16  17
ATOM     17  O   UNK A   1       1.714   1.470  18.511  0.00  0.00    +0.000 OA
ATOM     18  H   UNK A   1       2.263   0.715  18.792  0.00  0.00    +0.000 HD
ENDBRANCH  16  17
ENDBRANCH   5  16
ENDBRANCH   1   5
BRANCH   2  19
ATOM     19  C   UNK A   0       1.351   4.918  20.639  0.00  0.00    +0.000 C 
BRANCH  19  20
ATOM     20  O   UNK A   0       2.020   6.136  20.956  0.00  0.00    +0.000 OA
BRANCH  20  21
ATOM     21  C   UNK A   0       2.120   7.041  19.916  0.00  0.00    +0.000 A 
ATOM     22  C   UNK A   0       2.737   6.724  18.686  0.00  0.00    +0.000 A 
ATOM     23  C   UNK A   0       2.798   7.643  17.637  0.00  0.00    +0.000 A 
ATOM     24  C   UNK A   0       2.238   8.904  17.762  0.00  0.00    +0.000 A 
ATOM     25  C   UNK A   0       1.591   9.203  18.966  0.00  0.00    +0.000 A 
ATOM     26  N   UNK A   0       0.877  10.328  19.295  0.00  0.00    +0.000 N 
ATOM     27  C   UNK A   0       0.341  10.221  20.549  0.00  0.00    +0.000 A 
ATOM     28  C   UNK A   0      -0.549  11.075  21.210  0.00  0.00    +0.000 A 
ATOM     29  C   UNK A   0      -0.848  10.785  22.540  0.00  0.00    +0.000 A 
ATOM     30  C   UNK A   0      -0.254   9.703  23.182  0.00  0.00    +0.000 A 
ATOM     31  C   UNK A   0       0.587   8.820  22.481  0.00  0.00    +0.000 A 
ATOM     32  C   UNK A   0       0.863   9.056  21.116  0.00  0.00    +0.000 A 
ATOM     33  C   UNK A   0       1.550   8.337  20.067  0.00  0.00    +0.000 A 
ATOM     34  H   UNK A   0       0.731  11.112  18.676  0.00  0.00    +0.000 HD
ENDBRANCH  20  21
ENDBRANCH  19  20
ENDBRANCH   2  19
TORSDOF 10
ENDMDL
MODEL 2
REMARK VINA RESULT:      -8.5      0.938      1.840
REMARK  Name = 
REMARK  11 active torsions:
REMARK  status: ('A' for Active; 'I' for Inactive)
REMARK    1  A    between atoms: C_1  and  O_2
REMARK    2  A    between atoms: O_2  and  C_3
REMARK    3  A    between atoms: C_8  and  O_9
REMARK    4  A    between atoms: O_9  and  C_10
REMARK    5  A    between atoms: C_10  and  C_11
REMARK    6  A    between atoms: C_11  and  C_12
REMARK    7  A    between atoms: C_11  and  N_14
REMARK    8  A    between atoms: C_12  and  O_13
REMARK    9  A    between atoms: C_15  and  C_17
REMARK   10  A    between atoms: C_17  and  O_18
REMARK   11  A    between atoms: O_18  and  C_19
REMARK                            x       y       z     vdW  Elec       q    Type
REMARK                         _______ _______ _______ _____ _____    ______ ____
ROOT
ATOM      1  N   UNK A   1       2.675   2.869  20.414  0.00  0.00    +0.000 N 
ATOM      2  C   UNK A   0       2.102   3.775  21.258  0.00  0.00    +0.000 C 
ATOM      3  O   UNK A   0       2.207   3.608  22.475  0.00  0.00    +0.000 OA
ATOM      4  H   UNK A   1       3.176   2.124  20.893  0.00  0.00    +0.000 HD
ENDROOT
BRANCH   1   5
ATOM      5  C   UNK A   1       2.963   3.038  18.985  0.00  0.00    +0.000 C 
BRANCH   5   6
ATOM      6  C   UNK A   1       4.489   3.172  18.779  0.00  0.00    +0.000 C 
BRANCH   6   7
ATOM      7  O   UNK A   1       4.846   4.494  18.387  0.00  0.00    +0.000 OA
BRANCH   7  13
ATOM      8  C   UNK A   1       7.039   4.709  17.186  0.00  0.00    +0.000 A 
ATOM      9  C   UNK A   1       7.660   4.777  15.927  0.00  0.00    +0.000 A 
ATOM     10  C   UNK A   1       6.902   4.866  14.761  0.00  0.00    +0.000 A 
ATOM     11  C   UNK A   1       5.514   4.862  14.841  0.00  0.00    +0.000 A 
ATOM     12  C   UNK A   1       4.890   4.735  16.084  0.00  0.00    +0.000 A 
ATOM     13  C   UNK A   1       5.637   4.639  17.269  0.00  0.00    +0.000 A 
BRANCH   8  15
ATOM     14  C   UNK A   1       7.912   5.844  19.077  0.00  0.00    +0.000 C 
ATOM     15  O   UNK A   1       7.803   4.639  18.320  0.00  0.00    +0.000 OA
ENDBRANCH   8  15
ENDBRANCH   7  13
ENDBRANCH   6   7
ENDBRANCH   5   6
BRANCH   5  16
ATOM     16  C   UNK A   1       2.354   1.858  18.212  0.00  0.00    +0.000 C 
BRANCH  16  17
ATOM     17  O   UNK A   1       1.130   1.425  18.809  0.00  0.00    +0.000 OA
ATOM     18  H   UNK A   1       1.119   0.451  18.777  0.00  0.00    +0.000 HD
ENDBRANCH  16  17
ENDBRANCH   5  16
ENDBRANCH   1   5
BRANCH   2  19
ATOM     19  C   UNK A   0       1.382   4.986  20.674  0.00  0.00    +0.000 C 
BRANCH  19  20
ATOM     20  O   UNK A   0       2.060   6.208  20.952  0.00  0.00    +0.000 OA
BRANCH  20  21
ATOM     21  C   UNK A   0       2.113   7.105  19.900  0.00  0.00    +0.000 A 
ATOM     22  C   UNK A   0       2.720   6.793  18.664  0.00  0.00    +0.000 A 
ATOM     23  C   UNK A   0       2.734   7.701  17.604  0.00  0.00    +0.000 A 
ATOM     24  C   UNK A   0       2.137   8.945  17.725  0.00  0.00    +0.000 A 
ATOM     25  C   UNK A   0       1.500   9.238  18.936  0.00  0.00    +0.000 A 
ATOM     26  N   UNK A   0       0.757  10.344  19.265  0.00  0.00    +0.000 N 
ATOM     27  C   UNK A   0       0.245  10.234  20.528  0.00  0.00    +0.000 A 
ATOM     28  C   UNK A   0      -0.661  11.066  21.195  0.00  0.00    +0.000 A 
ATOM     29  C   UNK A   0      -0.928  10.783  22.533  0.00  0.00    +0.000 A 
ATOM     30  C   UNK A   0      -0.290   9.727  23.177  0.00  0.00    +0.000 A 
ATOM     31  C   UNK A   0       0.566   8.864  22.471  0.00  0.00    +0.000 A 
ATOM     32  C   UNK A   0       0.813   9.092  21.100  0.00  0.00    +0.000 A 
ATOM     33  C   UNK A   0       1.505   8.384  20.047  0.00  0.00    +0.000 A 
ATOM     34  H   UNK A   0       0.576  11.115  18.639  0.00  0.00    +0.000 HD
ENDBRANCH  20  21
ENDBRANCH  19  20
ENDBRANCH   2  19
TORSDOF 10
ENDMDL
MODEL 3
REMARK VINA RESULT:      -8.2      1.949      7.472
REMARK  Name = 
REMARK  11 active torsions:
REMARK  status: ('A' for Active; 'I' for Inactive)
REMARK    1  A    between atoms: C_1  and  O_2
REMARK    2  A    between atoms: O_2  and  C_3
REMARK    3  A    between atoms: C_8  and  O_9
REMARK    4  A    between atoms: O_9  and  C_10
REMARK    5  A    between atoms: C_10  and  C_11
REMARK    6  A    between atoms: C_11  and  C_12
REMARK    7  A    between atoms: C_11  and  N_14
REMARK    8  A    between atoms: C_12  and  O_13
REMARK    9  A    between atoms: C_15  and  C_17
REMARK   10  A    between atoms: C_17  and  O_18
REMARK   11  A    between atoms: O_18  and  C_19
REMARK                            x       y       z     vdW  Elec       q    Type
REMARK                         _______ _______ _______ _____ _____    ______ ____
ROOT
ATOM      1  N   UNK A   1       2.043   2.821  19.411  0.00  0.00    +0.000 N 
ATOM      2  C   UNK A   0       2.558   2.402  18.219  0.00  0.00    +0.000 C 
ATOM      3  O   UNK A   0       1.887   1.652  17.507  0.00  0.00    +0.000 OA
ATOM      4  H   UNK A   1       1.103   2.477  19.593  0.00  0.00    +0.000 HD
ENDROOT
BRANCH   1   5
ATOM      5  C   UNK A   1       2.500   3.946  20.235  0.00  0.00    +0.000 C 
BRANCH   5   6
ATOM      6  C   UNK A   1       1.783   5.239  19.786  0.00  0.00    +0.000 C 
BRANCH   6   7
ATOM      7  O   UNK A   1       2.523   6.398  20.156  0.00  0.00    +0.000 OA
BRANCH   7  13
ATOM      8  C   UNK A   1       1.383   8.630  20.297  0.00  0.00    +0.000 A 
ATOM      9  C   UNK A   1       1.128   9.837  19.622  0.00  0.00    +0.000 A 
ATOM     10  C   UNK A   1       1.506  10.005  18.292  0.00  0.00    +0.000 A 
ATOM     11  C   UNK A   1       2.167   8.977  17.630  0.00  0.00    +0.000 A 
ATOM     12  C   UNK A   1       2.476   7.797  18.311  0.00  0.00    +0.000 A 
ATOM     13  C   UNK A   1       2.108   7.611  19.653  0.00  0.00    +0.000 A 
BRANCH   8  15
ATOM     14  C   UNK A   1      -0.418   8.535  21.837  0.00  0.00    +0.000 C 
ATOM     15  O   UNK A   1       0.988   8.480  21.599  0.00  0.00    +0.000 OA
ENDBRANCH   8  15
ENDBRANCH   7  13
ENDBRANCH   6   7
ENDBRANCH   5   6
BRANCH   5  16
ATOM     16  C   UNK A   1       2.260   3.608  21.715  0.00  0.00    +0.000 C 
BRANCH  16  17
ATOM     17  O   UNK A   1       2.804   2.330  22.049  0.00  0.00    +0.000 OA
ATOM     18  H   UNK A   1       3.775   2.410  22.023  0.00  0.00    +0.000 HD
ENDBRANCH  16  17
ENDBRANCH   5  16
ENDBRANCH   1   5
BRANCH   2  19
ATOM     19  C   UNK A   0       3.932   2.902  17.784  0.00  0.00    +0.000 C 
BRANCH  19  20
ATOM     20  O   UNK A   0       3.859   4.119  17.046  0.00  0.00    +0.000 OA
BRANCH  20  21
ATOM     21  C   UNK A   0       4.991   4.912  17.104  0.00  0.00    +0.000 A 
ATOM     22  C   UNK A   0       5.383   5.596  18.275  0.00  0.00    +0.000 A 
ATOM     23  C   UNK A   0       6.547   6.364  18.322  0.00  0.00    +0.000 A 
ATOM     24  C   UNK A   0       7.373   6.473  17.214  0.00  0.00    +0.000 A 
ATOM     25  C   UNK A   0       7.005   5.762  16.066  0.00  0.00    +0.000 A 
ATOM     26  N   UNK A   0       7.698   5.623  14.890  0.00  0.00    +0.000 N 
ATOM     27  C   UNK A   0       7.037   4.795  14.025  0.00  0.00    +0.000 A 
ATOM     28  C   UNK A   0       7.450   4.290  12.787  0.00  0.00    +0.000 A 
ATOM     29  C   UNK A   0       6.523   3.553  12.053  0.00  0.00    +0.000 A 
ATOM     30  C   UNK A   0       5.231   3.359  12.530  0.00  0.00    +0.000 A 
ATOM     31  C   UNK A   0       4.856   3.819  13.805  0.00  0.00    +0.000 A 
ATOM     32  C   UNK A   0       5.791   4.520  14.597  0.00  0.00    +0.000 A 
ATOM     33  C   UNK A   0       5.821   5.022  15.953  0.00  0.00    +0.000 A 
ATOM     34  H   UNK A   0       8.598   6.041  14.706  0.00  0.00    +0.000 HD
ENDBRANCH  20  21
ENDBRANCH  19  20
ENDBRANCH   2  19
TORSDOF 10
ENDMDL
MODEL 4
REMARK VINA RESULT:      -8.0      1.141      1.816
REMARK  Name = 
REMARK  11 active torsions:
REMARK  status: ('A' for Active; 'I' for Inactive)
REMARK    1  A    between atoms: C_1  and  O_2
REMARK    2  A    between atoms: O_2  and  C_3
REMARK    3  A    between atoms: C_8  and  O_9
REMARK    4  A    between atoms: O_9  and  C_10
REMARK    5  A    between atoms: C_10  and  C_11
REMARK    6  A    between atoms: C_11  and  C_12
REMARK    7  A    between atoms: C_11  and  N_14
REMARK    8  A    between atoms: C_12  and  O_13
REMARK    9  A    between atoms: C_15  and  C_17
REMARK   10  A    between atoms: C_17  and  O_18
REMARK   11  A    between atoms: O_18  and  C_19
REMARK                            x       y       z     vdW  Elec       q    Type
REMARK                         _______ _______ _______ _____ _____    ______ ____
ROOT
ATOM      1  N   UNK A   1       2.269   2.702  20.135  0.00  0.00    +0.000 N 
ATOM      2  C   UNK A   0       2.068   3.498  21.225  0.00  0.00    +0.000 C 
ATOM      3  O   UNK A   0       1.526   3.020  22.223  0.00  0.00    +0.000 OA
ATOM      4  H   UNK A   1       1.960   1.742  20.267  0.00  0.00    +0.000 HD
ENDROOT
BRANCH   1   5
ATOM      5  C   UNK A   1       3.168   2.951  19.002  0.00  0.00    +0.000 C 
BRANCH   5   6
ATOM      6  C   UNK A   1       4.582   3.283  19.530  0.00  0.00    +0.000 C 
BRANCH   6   7
ATOM      7  O   UNK A   1       5.537   3.311  18.473  0.00  0.00    +0.000 OA
BRANCH   7  13
ATOM      8  C   UNK A   1       6.184   5.715  18.151  0.00  0.00    +0.000 A 
ATOM      9  C   UNK A   1       6.288   6.764  17.221  0.00  0.00    +0.000 A 
ATOM     10  C   UNK A   1       5.791   6.623  15.926  0.00  0.00    +0.000 A 
ATOM     11  C   UNK A   1       5.209   5.421  15.541  0.00  0.00    +0.000 A 
ATOM     12  C   UNK A   1       5.156   4.354  16.441  0.00  0.00    +0.000 A 
ATOM     13  C   UNK A   1       5.655   4.476  17.747  0.00  0.00    +0.000 A 
BRANCH   8  15
ATOM     14  C   UNK A   1       8.034   5.536  19.624  0.00  0.00    +0.000 C 
ATOM     15  O   UNK A   1       6.664   5.880  19.422  0.00  0.00    +0.000 OA
ENDBRANCH   8  15
ENDBRANCH   7  13
ENDBRANCH   6   7
ENDBRANCH   5   6
BRANCH   5  16
ATOM     16  C   UNK A   1       3.145   1.728  18.072  0.00  0.00    +0.000 C 
BRANCH  16  17
ATOM     17  O   UNK A   1       4.188   0.808  18.400  0.00  0.00    +0.000 OA
ATOM     18  H   UNK A   1       3.964   0.408  19.260  0.00  0.00    +0.000 HD
ENDBRANCH  16  17
ENDBRANCH   5  16
ENDBRANCH   1   5
BRANCH   2  19
ATOM     19  C   UNK A   0       2.551   4.945  21.191  0.00  0.00    +0.000 C 
BRANCH  19  20
ATOM     20  O   UNK A   0       1.510   5.858  20.854  0.00  0.00    +0.000 OA
BRANCH  20  21
ATOM     21  C   UNK A   0       1.828   6.778  19.872  0.00  0.00    +0.000 A 
ATOM     22  C   UNK A   0       2.490   6.419  18.678  0.00  0.00    +0.000 A 
ATOM     23  C   UNK A   0       2.772   7.358  17.685  0.00  0.00    +0.000 A 
ATOM     24  C   UNK A   0       2.398   8.684  17.832  0.00  0.00    +0.000 A 
ATOM     25  C   UNK A   0       1.705   9.031  18.997  0.00  0.00    +0.000 A 
ATOM     26  N   UNK A   0       1.142  10.237  19.329  0.00  0.00    +0.000 N 
ATOM     27  C   UNK A   0       0.494  10.164  20.531  0.00  0.00    +0.000 A 
ATOM     28  C   UNK A   0      -0.310  11.116  21.166  0.00  0.00    +0.000 A 
ATOM     29  C   UNK A   0      -0.757  10.823  22.453  0.00  0.00    +0.000 A 
ATOM     30  C   UNK A   0      -0.385   9.639  23.082  0.00  0.00    +0.000 A 
ATOM     31  C   UNK A   0       0.370   8.667  22.402  0.00  0.00    +0.000 A 
ATOM     32  C   UNK A   0       0.789   8.911  21.076  0.00  0.00    +0.000 A 
ATOM     33  C   UNK A   0       1.446   8.138  20.046  0.00  0.00    +0.000 A 
ATOM     34  H   UNK A   0       1.166  11.058  18.741  0.00  0.00    +0.000 HD
ENDBRANCH  20  21
ENDBRANCH  19  20
ENDBRANCH   2  19
TORSDOF 10
ENDMDL
MODEL 5
REMARK VINA RESULT:      -8.0      3.659      8.511
REMARK  Name = 
REMARK  11 active torsions:
REMARK  status: ('A' for Active; 'I' for Inactive)
REMARK    1  A    between atoms: C_1  and  O_2
REMARK    2  A    between atoms: O_2  and  C_3
REMARK    3  A    between atoms: C_8  and  O_9
REMARK    4  A    between atoms: O_9  and  C_10
REMARK    5  A    between atoms: C_10  and  C_11
REMARK    6  A    between atoms: C_11  and  C_12
REMARK    7  A    between atoms: C_11  and  N_14
REMARK    8  A    between atoms: C_12  and  O_13
REMARK    9  A    between atoms: C_15  and  C_17
REMARK   10  A    between atoms: C_17  and  O_18
REMARK   11  A    between atoms: O_18  and  C_19
REMARK                            x       y       z     vdW  Elec       q    Type
REMARK                         _______ _______ _______ _____ _____    ______ ____
ROOT
ATOM      1  N   UNK A   1       1.165   9.801  19.830  0.00  0.00    +0.000 N 
ATOM      2  C   UNK A   0       1.731   8.582  19.594  0.00  0.00    +0.000 C 
ATOM      3  O   UNK A   0       1.691   7.723  20.477  0.00  0.00    +0.000 OA
ATOM      4  H   UNK A   1       0.724   9.877  20.743  0.00  0.00    +0.000 HD
ENDROOT
BRANCH   1   5
ATOM      5  C   UNK A   1       0.805  10.824  18.841  0.00  0.00    +0.000 C 
BRANCH   5   6
ATOM      6  C   UNK A   1      -0.602  11.377  19.162  0.00  0.00    +0.000 C 
BRANCH   6   7
ATOM      7  O   UNK A   1      -1.608  10.390  18.953  0.00  0.00    +0.000 OA
BRANCH   7  13
ATOM      8  C   UNK A   1      -3.646  11.327  17.827  0.00  0.00    +0.000 A 
ATOM      9  C   UNK A   1      -4.339  11.438  16.609  0.00  0.00    +0.000 A 
ATOM     10  C   UNK A   1      -3.923  10.729  15.483  0.00  0.00    +0.000 A 
ATOM     11  C   UNK A   1      -2.793   9.923  15.557  0.00  0.00    +0.000 A 
ATOM     12  C   UNK A   1      -2.064   9.854  16.747  0.00  0.00    +0.000 A 
ATOM     13  C   UNK A   1      -2.466  10.564  17.890  0.00  0.00    +0.000 A 
BRANCH   8  15
ATOM     14  C   UNK A   1      -5.466  11.882  19.241  0.00  0.00    +0.000 C 
ATOM     15  O   UNK A   1      -4.082  12.018  18.925  0.00  0.00    +0.000 OA
ENDBRANCH   8  15
ENDBRANCH   7  13
ENDBRANCH   6   7
ENDBRANCH   5   6
BRANCH   5  16
ATOM     16  C   UNK A   1       1.890  11.911  18.831  0.00  0.00    +0.000 C 
BRANCH  16  17
ATOM     17  O   UNK A   1       1.827  12.695  17.638  0.00  0.00    +0.000 OA
ATOM     18  H   UNK A   1       2.743  12.900  17.375  0.00  0.00    +0.000 HD
ENDBRANCH  16  17
ENDBRANCH   5  16
ENDBRANCH   1   5
BRANCH   2  19
ATOM     19  C   UNK A   0       2.365   8.305  18.234  0.00  0.00    +0.000 C 
BRANCH  19  20
ATOM     20  O   UNK A   0       2.276   6.932  17.863  0.00  0.00    +0.000 OA
BRANCH  20  21
ATOM     21  C   UNK A   0       3.485   6.266  17.777  0.00  0.00    +0.000 A 
ATOM     22  C   UNK A   0       4.568   6.749  17.012  0.00  0.00    +0.000 A 
ATOM     23  C   UNK A   0       5.791   6.078  16.965  0.00  0.00    +0.000 A 
ATOM     24  C   UNK A   0       5.990   4.911  17.684  0.00  0.00    +0.000 A 
ATOM     25  C   UNK A   0       4.929   4.454  18.474  0.00  0.00    +0.000 A 
ATOM     26  N   UNK A   0       4.909   3.396  19.348  0.00  0.00    +0.000 N 
ATOM     27  C   UNK A   0       3.702   3.306  19.984  0.00  0.00    +0.000 A 
ATOM     28  C   UNK A   0       3.309   2.464  21.030  0.00  0.00    +0.000 A 
ATOM     29  C   UNK A   0       1.971   2.501  21.416  0.00  0.00    +0.000 A 
ATOM     30  C   UNK A   0       1.064   3.326  20.758  0.00  0.00    +0.000 A 
ATOM     31  C   UNK A   0       1.492   4.212  19.753  0.00  0.00    +0.000 A 
ATOM     32  C   UNK A   0       2.853   4.238  19.379  0.00  0.00    +0.000 A 
ATOM     33  C   UNK A   0       3.667   5.061  18.513  0.00  0.00    +0.000 A 
ATOM     34  H   UNK A   0       5.698   2.792  19.529  0.00  0.00    +0.000 HD
ENDBRANCH  20  21
ENDBRANCH  19  20
ENDBRANCH   2  19
TORSDOF 10
ENDMDL
MODEL 6
REMARK VINA RESULT:      -8.0      1.365      2.045
REMARK  Name = 
REMARK  11 active torsions:
REMARK  status: ('A' for Active; 'I' for Inactive)
REMARK    1  A    between atoms: C_1  and  O_2
REMARK    2  A    between atoms: O_2  and  C_3
REMARK    3  A    between atoms: C_8  and  O_9
REMARK    4  A    between atoms: O_9  and  C_10
REMARK    5  A    between atoms: C_10  and  C_11
REMARK    6  A    between atoms: C_11  and  C_12
REMARK    7  A    between atoms: C_11  and  N_14
REMARK    8  A    between atoms: C_12  and  O_13
REMARK    9  A    between atoms: C_15  and  C_17
REMARK   10  A    between atoms: C_17  and  O_18
REMARK   11  A    between atoms: O_18  and  C_19
REMARK                            x       y       z     vdW  Elec       q    Type
REMARK                         _______ _______ _______ _____ _____    ______ ____
ROOT
ATOM      1  N   UNK A   1       1.768   2.873  19.429  0.00  0.00    +0.000 N 
ATOM      2  C   UNK A   0       1.514   4.065  20.043  0.00  0.00    +0.000 C 
ATOM      3  O   UNK A   0       0.417   4.242  20.576  0.00  0.00    +0.000 OA
ATOM      4  H   UNK A   1       1.001   2.208  19.496  0.00  0.00    +0.000 HD
ENDROOT
BRANCH   1   5
ATOM      5  C   UNK A   1       3.074   2.329  19.040  0.00  0.00    +0.000 C 
BRANCH   5   6
ATOM      6  C   UNK A   1       3.545   3.008  17.734  0.00  0.00    +0.000 C 
BRANCH   6   7
ATOM      7  O   UNK A   1       4.951   3.238  17.747  0.00  0.00    +0.000 OA
BRANCH   7  13
ATOM      8  C   UNK A   1       6.272   5.326  18.192  0.00  0.00    +0.000 A 
ATOM      9  C   UNK A   1       6.665   6.571  17.673  0.00  0.00    +0.000 A 
ATOM     10  C   UNK A   1       6.126   7.050  16.480  0.00  0.00    +0.000 A 
ATOM     11  C   UNK A   1       5.209   6.275  15.780  0.00  0.00    +0.000 A 
ATOM     12  C   UNK A   1       4.859   5.010  16.258  0.00  0.00    +0.000 A 
ATOM     13  C   UNK A   1       5.394   4.509  17.456  0.00  0.00    +0.000 A 
BRANCH   8  15
ATOM     14  C   UNK A   1       7.957   5.576  19.842  0.00  0.00    +0.000 C 
ATOM     15  O   UNK A   1       6.801   4.881  19.374  0.00  0.00    +0.000 OA
ENDBRANCH   8  15
ENDBRANCH   7  13
ENDBRANCH   6   7
ENDBRANCH   5   6
BRANCH   5  16
ATOM     16  C   UNK A   1       4.058   2.517  20.204  0.00  0.00    +0.000 C 
BRANCH  16  17
ATOM     17  O   UNK A   1       5.156   1.608  20.106  0.00  0.00    +0.000 OA
ATOM     18  H   UNK A   1       4.900   0.790  20.570  0.00  0.00    +0.000 HD
ENDBRANCH  16  17
ENDBRANCH   5  16
ENDBRANCH   1   5
BRANCH   2  19
ATOM     19  C   UNK A   0       2.606   5.130  20.083  0.00  0.00    +0.000 C 
BRANCH  19  20
ATOM     20  O   UNK A   0       2.129   6.379  20.574  0.00  0.00    +0.000 OA
BRANCH  20  21
ATOM     21  C   UNK A   0       2.103   7.405  19.647  0.00  0.00    +0.000 A 
ATOM     22  C   UNK A   0       2.648   7.274  18.351  0.00  0.00    +0.000 A 
ATOM     23  C   UNK A   0       2.582   8.311  17.419  0.00  0.00    +0.000 A 
ATOM     24  C   UNK A   0       1.963   9.510  17.731  0.00  0.00    +0.000 A 
ATOM     25  C   UNK A   0       1.387   9.624  19.001  0.00  0.00    +0.000 A 
ATOM     26  N   UNK A   0       0.636  10.655  19.509  0.00  0.00    +0.000 N 
ATOM     27  C   UNK A   0       0.197  10.368  20.772  0.00  0.00    +0.000 A 
ATOM     28  C   UNK A   0      -0.691  11.079  21.587  0.00  0.00    +0.000 A 
ATOM     29  C   UNK A   0      -0.877  10.617  22.888  0.00  0.00    +0.000 A 
ATOM     30  C   UNK A   0      -0.179   9.508  23.356  0.00  0.00    +0.000 A 
ATOM     31  C   UNK A   0       0.658   8.769  22.501  0.00  0.00    +0.000 A 
ATOM     32  C   UNK A   0       0.823   9.180  21.160  0.00  0.00    +0.000 A 
ATOM     33  C   UNK A   0       1.473   8.635  19.989  0.00  0.00    +0.000 A 
ATOM     34  H   UNK A   0       0.403  11.494  18.999  0.00  0.00    +0.000 HD
ENDBRANCH  20  21
ENDBRANCH  19  20
ENDBRANCH   2  19
TORSDOF 10
ENDMDL
MODEL 7
REMARK VINA RESULT:      -7.9      2.098      7.767
REMARK  Name = 
REMARK  11 active torsions:
REMARK  status: ('A' for Active; 'I' for Inactive)
REMARK    1  A    between atoms: C_1  and  O_2
REMARK    2  A    between atoms: O_2  and  C_3
REMARK    3  A    between atoms: C_8  and  O_9
REMARK    4  A    between atoms: O_9  and  C_10
REMARK    5  A    between atoms: C_10  and  C_11
REMARK    6  A    between atoms: C_11  and  C_12
REMARK    7  A    between atoms: C_11  and  N_14
REMARK    8  A    between atoms: C_12  and  O_13
REMARK    9  A    between atoms: C_15  and  C_17
REMARK   10  A    between atoms: C_17  and  O_18
REMARK   11  A    between atoms: O_18  and  C_19
REMARK                            x       y       z     vdW  Elec       q    Type
REMARK                         _______ _______ _______ _____ _____    ______ ____
ROOT
ATOM      1  N   UNK A   1       1.778   4.283  18.458  0.00  0.00    +0.000 N 
ATOM      2  C   UNK A   0       2.412   3.502  17.536  0.00  0.00    +0.000 C 
ATOM      3  O   UNK A   0       2.006   3.501  16.372  0.00  0.00    +0.000 OA
ATOM      4  H   UNK A   1       1.012   4.831  18.072  0.00  0.00    +0.000 HD
ENDROOT
BRANCH   1   5
ATOM      5  C   UNK A   1       2.277   4.693  19.776  0.00  0.00    +0.000 C 
BRANCH   5   6
ATOM      6  C   UNK A   1       2.785   6.150  19.704  0.00  0.00    +0.000 C 
BRANCH   6   7
ATOM      7  O   UNK A   1       2.006   7.013  20.527  0.00  0.00    +0.000 OA
BRANCH   7  13
ATOM      8  C   UNK A   1       1.062   9.335  20.666  0.00  0.00    +0.000 A 
ATOM      9  C   UNK A   1       0.827  10.525  19.957  0.00  0.00    +0.000 A 
ATOM     10  C   UNK A   1       1.067  10.600  18.586  0.00  0.00    +0.000 A 
ATOM     11  C   UNK A   1       1.569   9.492  17.915  0.00  0.00    +0.000 A 
ATOM     12  C   UNK A   1       1.862   8.323  18.623  0.00  0.00    +0.000 A 
ATOM     13  C   UNK A   1       1.631   8.231  20.005  0.00  0.00    +0.000 A 
BRANCH   8  15
ATOM     14  C   UNK A   1      -0.530   8.931  22.376  0.00  0.00    +0.000 C 
ATOM     15  O   UNK A   1       0.805   9.278  22.009  0.00  0.00    +0.000 OA
ENDBRANCH   8  15
ENDBRANCH   7  13
ENDBRANCH   6   7
ENDBRANCH   5   6
BRANCH   5  16
ATOM     16  C   UNK A   1       1.162   4.496  20.813  0.00  0.00    +0.000 C 
BRANCH  16  17
ATOM     17  O   UNK A   1       0.727   3.135  20.854  0.00  0.00    +0.000 OA
ATOM     18  H   UNK A   1       0.532   2.864  19.939  0.00  0.00    +0.000 HD
ENDBRANCH  16  17
ENDBRANCH   5  16
ENDBRANCH   1   5
BRANCH   2  19
ATOM     19  C   UNK A   0       3.627   2.683  17.962  0.00  0.00    +0.000 C 
BRANCH  19  20
ATOM     20  O   UNK A   0       4.717   2.815  17.053  0.00  0.00    +0.000 OA
BRANCH  20  21
ATOM     21  C   UNK A   0       5.522   3.921  17.255  0.00  0.00    +0.000 A 
ATOM     22  C   UNK A   0       5.758   4.468  18.535  0.00  0.00    +0.000 A 
ATOM     23  C   UNK A   0       6.601   5.565  18.720  0.00  0.00    +0.000 A 
ATOM     24  C   UNK A   0       7.250   6.152  17.647  0.00  0.00    +0.000 A 
ATOM     25  C   UNK A   0       7.048   5.585  16.384  0.00  0.00    +0.000 A 
ATOM     26  N   UNK A   0       7.648   5.912  15.195  0.00  0.00    +0.000 N 
ATOM     27  C   UNK A   0       7.232   5.084  14.189  0.00  0.00    +0.000 A 
ATOM     28  C   UNK A   0       7.687   4.990  12.869  0.00  0.00    +0.000 A 
ATOM     29  C   UNK A   0       7.000   4.131  12.013  0.00  0.00    +0.000 A 
ATOM     30  C   UNK A   0       5.889   3.421  12.459  0.00  0.00    +0.000 A 
ATOM     31  C   UNK A   0       5.489   3.480  13.806  0.00  0.00    +0.000 A 
ATOM     32  C   UNK A   0       6.199   4.299  14.710  0.00  0.00    +0.000 A 
ATOM     33  C   UNK A   0       6.171   4.520  16.139  0.00  0.00    +0.000 A 
ATOM     34  H   UNK A   0       8.340   6.639  15.087  0.00  0.00    +0.000 HD
ENDBRANCH  20  21
ENDBRANCH  19  20
ENDBRANCH   2  19
TORSDOF 10
ENDMDL
MODEL 8
REMARK VINA RESULT:      -7.9      3.542      8.400
REMARK  Name = 
REMARK  11 active torsions:
REMARK  status: ('A' for Active; 'I' for Inactive)
REMARK    1  A    between atoms: C_1  and  O_2
REMARK    2  A    between atoms: O_2  and  C_3
REMARK    3  A    between atoms: C_8  and  O_9
REMARK    4  A    between atoms: O_9  and  C_10
REMARK    5  A    between atoms: C_10  and  C_11
REMARK    6  A    between atoms: C_11  and  C_12
REMARK    7  A    between atoms: C_11  and  N_14
REMARK    8  A    between atoms: C_12  and  O_13
REMARK    9  A    between atoms: C_15  and  C_17
REMARK   10  A    between atoms: C_17  and  O_18
REMARK   11  A    between atoms: O_18  and  C_19
REMARK                            x       y       z     vdW  Elec       q    Type
REMARK                         _______ _______ _______ _____ _____    ______ ____
ROOT
ATOM      1  N   UNK A   1       1.208   9.675  20.546  0.00  0.00    +0.000 N 
ATOM      2  C   UNK A   0       1.234   8.607  21.395  0.00  0.00    +0.000 C 
ATOM      3  O   UNK A   0       1.326   8.809  22.608  0.00  0.00    +0.000 OA
ATOM      4  H   UNK A   1       1.243  10.575  21.020  0.00  0.00    +0.000 HD
ENDROOT
BRANCH   1   5
ATOM      5  C   UNK A   1       0.775   9.690  19.144  0.00  0.00    +0.000 C 
BRANCH   5   6
ATOM      6  C   UNK A   1      -0.366  10.717  18.968  0.00  0.00    +0.000 C 
BRANCH   6   7
ATOM      7  O   UNK A   1      -0.935  10.643  17.664  0.00  0.00    +0.000 OA
BRANCH   7  13
ATOM      8  C   UNK A   1      -3.086  10.867  16.390  0.00  0.00    +0.000 A 
ATOM      9  C   UNK A   1      -4.446  11.210  16.479  0.00  0.00    +0.000 A 
ATOM     10  C   UNK A   1      -4.969  11.756  17.650  0.00  0.00    +0.000 A 
ATOM     11  C   UNK A   1      -4.143  11.941  18.752  0.00  0.00    +0.000 A 
ATOM     12  C   UNK A   1      -2.803  11.547  18.690  0.00  0.00    +0.000 A 
ATOM     13  C   UNK A   1      -2.260  10.990  17.522  0.00  0.00    +0.000 A 
BRANCH   8  15
ATOM     14  C   UNK A   1      -3.540  10.113  14.188  0.00  0.00    +0.000 C 
ATOM     15  O   UNK A   1      -2.589  10.347  15.225  0.00  0.00    +0.000 OA
ENDBRANCH   8  15
ENDBRANCH   7  13
ENDBRANCH   6   7
ENDBRANCH   5   6
BRANCH   5  16
ATOM     16  C   UNK A   1       1.991   9.985  18.252  0.00  0.00    +0.000 C 
BRANCH  16  17
ATOM     17  O   UNK A   1       1.870   9.339  16.983  0.00  0.00    +0.000 OA
ATOM     18  H   UNK A   1       2.390   8.516  17.023  0.00  0.00    +0.000 HD
ENDBRANCH  16  17
ENDBRANCH   5  16
ENDBRANCH   1   5
BRANCH   2  19
ATOM     19  C   UNK A   0       1.113   7.198  20.824  0.00  0.00    +0.000 C 
BRANCH  19  20
ATOM     20  O   UNK A   0       2.274   6.804  20.098  0.00  0.00    +0.000 OA
BRANCH  20  21
ATOM     21  C   UNK A   0       2.590   5.460  20.178  0.00  0.00    +0.000 A 
ATOM     22  C   UNK A   0       2.085   4.617  21.191  0.00  0.00    +0.000 A 
ATOM     23  C   UNK A   0       2.390   3.256  21.234  0.00  0.00    +0.000 A 
ATOM     24  C   UNK A   0       3.196   2.677  20.268  0.00  0.00    +0.000 A 
ATOM     25  C   UNK A   0       3.664   3.504  19.241  0.00  0.00    +0.000 A 
ATOM     26  N   UNK A   0       4.382   3.157  18.125  0.00  0.00    +0.000 N 
ATOM     27  C   UNK A   0       4.598   4.242  17.321  0.00  0.00    +0.000 A 
ATOM     28  C   UNK A   0       5.166   4.303  16.043  0.00  0.00    +0.000 A 
ATOM     29  C   UNK A   0       5.373   5.566  15.493  0.00  0.00    +0.000 A 
ATOM     30  C   UNK A   0       5.051   6.715  16.208  0.00  0.00    +0.000 A 
ATOM     31  C   UNK A   0       4.421   6.631  17.463  0.00  0.00    +0.000 A 
ATOM     32  C   UNK A   0       4.146   5.364  18.022  0.00  0.00    +0.000 A 
ATOM     33  C   UNK A   0       3.430   4.884  19.183  0.00  0.00    +0.000 A 
ATOM     34  H   UNK A   0       4.674   2.215  17.905  0.00  0.00    +0.000 HD
ENDBRANCH  20  21
ENDBRANCH  19  20
ENDBRANCH   2  19
TORSDOF 10
ENDMDL
MODEL 9
REMARK VINA RESULT:      -7.9      3.423      8.474
REMARK  Name = 
REMARK  11 active torsions:
REMARK  status: ('A' for Active; 'I' for Inactive)
REMARK    1  A    between atoms: C_1  and  O_2
REMARK    2  A    between atoms: O_2  and  C_3
REMARK    3  A    between atoms: C_8  and  O_9
REMARK    4  A    between atoms: O_9  and  C_10
REMARK    5  A    between atoms: C_10  and  C_11
REMARK    6  A    between atoms: C_11  and  C_12
REMARK    7  A    between atoms: C_11  and  N_14
REMARK    8  A    between atoms: C_12  and  O_13
REMARK    9  A    between atoms: C_15  and  C_17
REMARK   10  A    between atoms: C_17  and  O_18
REMARK   11  A    between atoms: O_18  and  C_19
REMARK                            x       y       z     vdW  Elec       q    Type
REMARK                         _______ _______ _______ _____ _____    ______ ____
ROOT
ATOM      1  N   UNK A   1       1.346   9.730  20.323  0.00  0.00    +0.000 N 
ATOM      2  C   UNK A   0       1.401   8.724  21.243  0.00  0.00    +0.000 C 
ATOM      3  O   UNK A   0       1.632   9.003  22.422  0.00  0.00    +0.000 OA
ATOM      4  H   UNK A   1       1.482  10.656  20.722  0.00  0.00    +0.000 HD
ENDROOT
BRANCH   1   5
ATOM      5  C   UNK A   1       0.769   9.676  18.975  0.00  0.00    +0.000 C 
BRANCH   5   6
ATOM      6  C   UNK A   1      -0.354  10.730  18.852  0.00  0.00    +0.000 C 
BRANCH   6   7
ATOM      7  O   UNK A   1      -1.642  10.119  18.864  0.00  0.00    +0.000 OA
BRANCH   7  13
ATOM      8  C   UNK A   1      -3.712  11.191  17.934  0.00  0.00    +0.000 A 
ATOM      9  C   UNK A   1      -4.425  11.491  16.760  0.00  0.00    +0.000 A 
ATOM     10  C   UNK A   1      -4.012  10.991  15.526  0.00  0.00    +0.000 A 
ATOM     11  C   UNK A   1      -2.867  10.207  15.451  0.00  0.00    +0.000 A 
ATOM     12  C   UNK A   1      -2.120   9.953  16.604  0.00  0.00    +0.000 A 
ATOM     13  C   UNK A   1      -2.518  10.452  17.855  0.00  0.00    +0.000 A 
BRANCH   8  15
ATOM     14  C   UNK A   1      -3.428  12.800  19.652  0.00  0.00    +0.000 C 
ATOM     15  O   UNK A   1      -4.145  11.678  19.138  0.00  0.00    +0.000 OA
ENDBRANCH   8  15
ENDBRANCH   7  13
ENDBRANCH   6   7
ENDBRANCH   5   6
BRANCH   5  16
ATOM     16  C   UNK A   1       1.892   9.873  17.945  0.00  0.00    +0.000 C 
BRANCH  16  17
ATOM     17  O   UNK A   1       2.221   8.644  17.296  0.00  0.00    +0.000 OA
ATOM     18  H   UNK A   1       2.071   8.768  16.342  0.00  0.00    +0.000 HD
ENDBRANCH  16  17
ENDBRANCH   5  16
ENDBRANCH   1   5
BRANCH   2  19
ATOM     19  C   UNK A   0       1.140   7.289  20.795  0.00  0.00    +0.000 C 
BRANCH  19  20
ATOM     20  O   UNK A   0       2.218   6.753  20.033  0.00  0.00    +0.000 OA
BRANCH  20  21
ATOM     21  C   UNK A   0       2.212   5.378  19.890  0.00  0.00    +0.000 A 
ATOM     22  C   UNK A   0       1.399   4.534  20.677  0.00  0.00    +0.000 A 
ATOM     23  C   UNK A   0       1.383   3.151  20.494  0.00  0.00    +0.000 A 
ATOM     24  C   UNK A   0       2.162   2.553  19.517  0.00  0.00    +0.000 A 
ATOM     25  C   UNK A   0       2.937   3.394  18.710  0.00  0.00    +0.000 A 
ATOM     26  N   UNK A   0       3.704   3.063  17.621  0.00  0.00    +0.000 N 
ATOM     27  C   UNK A   0       4.264   4.176  17.057  0.00  0.00    +0.000 A 
ATOM     28  C   UNK A   0       4.998   4.299  15.873  0.00  0.00    +0.000 A 
ATOM     29  C   UNK A   0       5.556   5.544  15.589  0.00  0.00    +0.000 A 
ATOM     30  C   UNK A   0       5.405   6.608  16.473  0.00  0.00    +0.000 A 
ATOM     31  C   UNK A   0       4.609   6.482  17.625  0.00  0.00    +0.000 A 
ATOM     32  C   UNK A   0       3.984   5.248  17.909  0.00  0.00    +0.000 A 
ATOM     33  C   UNK A   0       3.029   4.780  18.889  0.00  0.00    +0.000 A 
ATOM     34  H   UNK A   0       3.805   2.127  17.258  0.00  0.00    +0.000 HD
ENDBRANCH  20  21
ENDBRANCH  19  20
ENDBRANCH   2  19
TORSDOF 10
ENDMDL
