MODEL 1
REMARK VINA RESULT:      -7.0      0.000      0.000
REMARK  Name = 
REMARK  3 active torsions:
REMARK  status: ('A' for Active; 'I' for Inactive)
REMARK    1  A    between atoms: C_1  and  N_2
REMARK    2  A    between atoms: C_6  and  C_7
REMARK    3  A    between atoms: C_9  and  N_10
REMARK                            x       y       z     vdW  Elec       q    Type
REMARK                         _______ _______ _______ _____ _____    ______ ____
ROOT
ATOM      1  C   UNL     1       5.375   4.859  14.976  0.00  0.00    +0.000 C 
ATOM      2  N   UNL     1       5.124   5.186  16.350  0.00  0.00    +0.000 N 
ATOM      3  C   UNL     1       4.056   4.543  17.031  0.00  0.00    +0.000 C 
ATOM      4  O   UNL     1       3.207   3.802  16.538  0.00  0.00    +0.000 OA
ATOM      5  C   UNL     1       4.188   5.035  18.470  0.00  0.00    +0.000 C 
ATOM      6  C   UNL     1       3.586   4.169  19.509  0.00  0.00    +0.000 C 
ATOM      7  C   UNL     1       2.340   4.403  20.032  0.00  0.00    +0.000 C 
ATOM      8  N   UNL     1       1.657   5.549  19.688  0.00  0.00    +0.000 N 
ATOM      9  C   UNL     1       2.203   6.573  19.013  0.00  0.00    +0.000 A 
ATOM     10  N   UNL     1       1.659   7.758  18.740  0.00  0.00    +0.000 NA
ATOM     11  N   UNL     1       2.581   8.351  17.962  0.00  0.00    +0.000 N 
ATOM     12  C   UNL     1       3.715   7.608  17.813  0.00  0.00    +0.000 A 
ATOM     13  C   UNL     1       3.493   6.415  18.464  0.00  0.00    +0.000 A 
ATOM     14  C   UNL     1       5.662   5.249  18.547  0.00  0.00    +0.000 A 
ATOM     15  C   UNL     1       6.629   4.956  19.493  0.00  0.00    +0.000 A 
ATOM     16  C   UNL     1       7.836   5.612  19.400  0.00  0.00    +0.000 A 
ATOM     17  C   UNL     1       8.015   6.518  18.356  0.00  0.00    +0.000 A 
ATOM     18  C   UNL     1       7.179   6.469  17.228  0.00  0.00    +0.000 A 
ATOM     19  C   UNL     1       6.072   5.659  17.288  0.00  0.00    +0.000 A 
ATOM     20  H   UNL     1       0.707   5.665  20.026  0.00  0.00    +0.000 HD
ATOM     21  H   UNL     1       2.350   9.238  17.527  0.00  0.00    +0.000 HD
ENDROOT
BRANCH   7  22
ATOM     22  N   UNL     1       1.735   3.564  20.939  0.00  0.00    +0.000 N 
ATOM     23  H   UNL     1       0.933   3.029  20.616  0.00  0.00    +0.000 HD
ATOM     24  H   UNL     1       2.397   2.994  21.466  0.00  0.00    +0.000 HD
ENDBRANCH   7  22
BRANCH   6  25
ATOM     25  C   UNL     1       4.411   3.031  20.087  0.00  0.00    +0.000 C 
ATOM     26  N   UNL     1       5.095   2.087  20.567  0.00  0.00    +0.000 NA
ENDBRANCH   6  25
TORSDOF 2
ENDMDL
MODEL 2
REMARK VINA RESULT:      -6.3      8.979     11.376
REMARK  Name = 
REMARK  3 active torsions:
REMARK  status: ('A' for Active; 'I' for Inactive)
REMARK    1  A    between atoms: C_1  and  N_2
REMARK    2  A    between atoms: C_6  and  C_7
REMARK    3  A    between atoms: C_9  and  N_10
REMARK                            x       y       z     vdW  Elec       q    Type
REMARK                         _______ _______ _______ _____ _____    ______ ____
ROOT
ATOM      1  C   UNL     1       6.521  15.262  19.933  0.00  0.00    +0.000 C 
ATOM      2  N   UNL     1       7.873  14.788  19.866  0.00  0.00    +0.000 N 
ATOM      3  C   UNL     1       8.414  14.416  18.606  0.00  0.00    +0.000 C 
ATOM      4  O   UNL     1       7.807  14.327  17.540  0.00  0.00    +0.000 OA
ATOM      5  C   UNL     1       9.877  14.104  18.912  0.00  0.00    +0.000 C 
ATOM      6  C   UNL     1      10.813  14.205  17.770  0.00  0.00    +0.000 C 
ATOM      7  C   UNL     1      11.213  13.112  17.045  0.00  0.00    +0.000 C 
ATOM      8  N   UNL     1      10.844  11.849  17.452  0.00  0.00    +0.000 N 
ATOM      9  C   UNL     1      10.269  11.580  18.636  0.00  0.00    +0.000 A 
ATOM     10  N   UNL     1       9.987  10.388  19.159  0.00  0.00    +0.000 NA
ATOM     11  N   UNL     1       9.333  10.693  20.293  0.00  0.00    +0.000 N 
ATOM     12  C   UNL     1       9.273  12.034  20.533  0.00  0.00    +0.000 A 
ATOM     13  C   UNL     1       9.851  12.655  19.448  0.00  0.00    +0.000 A 
ATOM     14  C   UNL     1      10.115  15.028  20.058  0.00  0.00    +0.000 A 
ATOM     15  C   UNL     1      11.144  15.886  20.405  0.00  0.00    +0.000 A 
ATOM     16  C   UNL     1      11.202  16.322  21.710  0.00  0.00    +0.000 A 
ATOM     17  C   UNL     1      10.218  15.885  22.596  0.00  0.00    +0.000 A 
ATOM     18  C   UNL     1       9.008  15.366  22.106  0.00  0.00    +0.000 A 
ATOM     19  C   UNL     1       8.921  15.109  20.760  0.00  0.00    +0.000 A 
ATOM     20  H   UNL     1      11.086  11.060  16.860  0.00  0.00    +0.000 HD
ATOM     21  H   UNL     1       8.910   9.941  20.826  0.00  0.00    +0.000 HD
ENDROOT
BRANCH   7  22
ATOM     22  N   UNL     1      12.019  13.199  15.934  0.00  0.00    +0.000 N 
ATOM     23  H   UNL     1      12.295  14.130  15.629  0.00  0.00    +0.000 HD
ATOM     24  H   UNL     1      12.802  12.547  15.951  0.00  0.00    +0.000 HD
ENDBRANCH   7  22
BRANCH   6  25
ATOM     25  C   UNL     1      11.430  15.555  17.442  0.00  0.00    +0.000 C 
ATOM     26  N   UNL     1      11.941  16.675  17.170  0.00  0.00    +0.000 NA
ENDBRANCH   6  25
TORSDOF 2
ENDMDL
MODEL 3
REMARK VINA RESULT:      -6.2      5.319      7.700
REMARK  Name = 
REMARK  3 active torsions:
REMARK  status: ('A' for Active; 'I' for Inactive)
REMARK    1  A    between atoms: C_1  and  N_2
REMARK    2  A    between atoms: C_6  and  C_7
REMARK    3  A    between atoms: C_9  and  N_10
REMARK                            x       y       z     vdW  Elec       q    Type
REMARK                         _______ _______ _______ _____ _____    ______ ____
ROOT
ATOM      1  C   UNL     1      -2.641  11.987  17.998  0.00  0.00    +0.000 C 
ATOM      2  N   UNL     1      -1.436  11.723  18.730  0.00  0.00    +0.000 N 
ATOM      3  C   UNL     1      -1.098  10.380  19.043  0.00  0.00    +0.000 C 
ATOM      4  O   UNL     1      -1.797   9.383  18.869  0.00  0.00    +0.000 OA
ATOM      5  C   UNL     1       0.283  10.488  19.688  0.00  0.00    +0.000 C 
ATOM      6  C   UNL     1       1.119   9.268  19.638  0.00  0.00    +0.000 C 
ATOM      7  C   UNL     1       1.207   8.393  20.690  0.00  0.00    +0.000 C 
ATOM      8  N   UNL     1       0.607   8.702  21.891  0.00  0.00    +0.000 N 
ATOM      9  C   UNL     1       0.090   9.906  22.182  0.00  0.00    +0.000 A 
ATOM     10  N   UNL     1      -0.401  10.328  23.346  0.00  0.00    +0.000 NA
ATOM     11  N   UNL     1      -0.875  11.553  23.058  0.00  0.00    +0.000 N 
ATOM     12  C   UNL     1      -0.619  11.939  21.775  0.00  0.00    +0.000 A 
ATOM     13  C   UNL     1      -0.014  10.869  21.156  0.00  0.00    +0.000 A 
ATOM     14  C   UNL     1       0.812  11.693  18.985  0.00  0.00    +0.000 A 
ATOM     15  C   UNL     1       2.030  12.014  18.410  0.00  0.00    +0.000 A 
ATOM     16  C   UNL     1       2.291  13.343  18.164  0.00  0.00    +0.000 A 
ATOM     17  C   UNL     1       1.314  14.281  18.497  0.00  0.00    +0.000 A 
ATOM     18  C   UNL     1      -0.017  13.873  18.688  0.00  0.00    +0.000 A 
ATOM     19  C   UNL     1      -0.271  12.525  18.749  0.00  0.00    +0.000 A 
ATOM     20  H   UNL     1       0.620   8.007  22.631  0.00  0.00    +0.000 HD
ATOM     21  H   UNL     1      -1.405  12.046  23.768  0.00  0.00    +0.000 HD
ENDROOT
BRANCH   7  22
ATOM     22  N   UNL     1       1.916   7.215  20.631  0.00  0.00    +0.000 N 
ATOM     23  H   UNL     1       1.383   6.349  20.634  0.00  0.00    +0.000 HD
ATOM     24  H   UNL     1       2.649   7.219  19.922  0.00  0.00    +0.000 HD
ENDBRANCH   7  22
BRANCH   6  25
ATOM     25  C   UNL     1       1.985   9.019  18.415  0.00  0.00    +0.000 C 
ATOM     26  N   UNL     1       2.703   8.812  17.399  0.00  0.00    +0.000 NA
ENDBRANCH   6  25
TORSDOF 2
ENDMDL
MODEL 4
REMARK VINA RESULT:      -6.1      7.161      9.593
REMARK  Name = 
REMARK  3 active torsions:
REMARK  status: ('A' for Active; 'I' for Inactive)
REMARK    1  A    between atoms: C_1  and  N_2
REMARK    2  A    between atoms: C_6  and  C_7
REMARK    3  A    between atoms: C_9  and  N_10
REMARK                            x       y       z     vdW  Elec       q    Type
REMARK                         _______ _______ _______ _____ _____    ______ ____
ROOT
ATOM      1  C   UNL     1       0.132  14.431  21.406  0.00  0.00    +0.000 C 
ATOM      2  N   UNL     1      -0.615  13.297  20.945  0.00  0.00    +0.000 N 
ATOM      3  C   UNL     1      -0.807  13.115  19.550  0.00  0.00    +0.000 C 
ATOM      4  O   UNL     1      -0.508  13.905  18.655  0.00  0.00    +0.000 OA
ATOM      5  C   UNL     1      -1.511  11.764  19.447  0.00  0.00    +0.000 C 
ATOM      6  C   UNL     1      -1.373  11.058  18.154  0.00  0.00    +0.000 C 
ATOM      7  C   UNL     1      -2.335  11.111  17.179  0.00  0.00    +0.000 C 
ATOM      8  N   UNL     1      -3.537  11.734  17.437  0.00  0.00    +0.000 N 
ATOM      9  C   UNL     1      -3.926  12.136  18.657  0.00  0.00    +0.000 A 
ATOM     10  N   UNL     1      -5.107  12.636  19.019  0.00  0.00    +0.000 NA
ATOM     11  N   UNL     1      -4.924  12.965  20.308  0.00  0.00    +0.000 N 
ATOM     12  C   UNL     1      -3.696  12.610  20.784  0.00  0.00    +0.000 A 
ATOM     13  C   UNL     1      -2.997  12.089  19.717  0.00  0.00    +0.000 A 
ATOM     14  C   UNL     1      -0.951  11.079  20.648  0.00  0.00    +0.000 A 
ATOM     15  C   UNL     1      -0.457   9.808  20.888  0.00  0.00    +0.000 A 
ATOM     16  C   UNL     1      -0.354   9.398  22.199  0.00  0.00    +0.000 A 
ATOM     17  C   UNL     1      -0.740  10.288  23.201  0.00  0.00    +0.000 A 
ATOM     18  C   UNL     1      -0.839  11.662  22.924  0.00  0.00    +0.000 A 
ATOM     19  C   UNL     1      -0.757  12.057  21.611  0.00  0.00    +0.000 A 
ATOM     20  H   UNL     1      -4.206  11.828  16.678  0.00  0.00    +0.000 HD
ATOM     21  H   UNL     1      -5.658  13.475  20.788  0.00  0.00    +0.000 HD
ENDROOT
BRANCH   7  22
ATOM     22  N   UNL     1      -2.188  10.527  15.942  0.00  0.00    +0.000 N 
ATOM     23  H   UNL     1      -1.290  10.097  15.734  0.00  0.00    +0.000 HD
ATOM     24  H   UNL     1      -2.974   9.933  15.680  0.00  0.00    +0.000 HD
ENDBRANCH   7  22
BRANCH   6  25
ATOM     25  C   UNL     1      -0.164  10.164  17.928  0.00  0.00    +0.000 C 
ATOM     26  N   UNL     1       0.839   9.423  17.742  0.00  0.00    +0.000 NA
ENDBRANCH   6  25
TORSDOF 2
ENDMDL
MODEL 5
REMARK VINA RESULT:      -6.0      9.327     11.301
REMARK  Name = 
REMARK  3 active torsions:
REMARK  status: ('A' for Active; 'I' for Inactive)
REMARK    1  A    between atoms: C_1  and  N_2
REMARK    2  A    between atoms: C_6  and  C_7
REMARK    3  A    between atoms: C_9  and  N_10
REMARK                            x       y       z     vdW  Elec       q    Type
REMARK                         _______ _______ _______ _____ _____    ______ ____
ROOT
ATOM      1  C   UNL     1       7.678  12.603  17.075  0.00  0.00    +0.000 C 
ATOM      2  N   UNL     1       8.637  13.337  17.848  0.00  0.00    +0.000 N 
ATOM      3  C   UNL     1       8.188  14.391  18.688  0.00  0.00    +0.000 C 
ATOM      4  O   UNL     1       7.051  14.855  18.745  0.00  0.00    +0.000 OA
ATOM      5  C   UNL     1       9.448  14.829  19.433  0.00  0.00    +0.000 C 
ATOM      6  C   UNL     1       9.229  15.515  20.726  0.00  0.00    +0.000 C 
ATOM      7  C   UNL     1       9.242  16.881  20.848  0.00  0.00    +0.000 C 
ATOM      8  N   UNL     1       9.592  17.661  19.767  0.00  0.00    +0.000 N 
ATOM      9  C   UNL     1      10.119  17.175  18.632  0.00  0.00    +0.000 A 
ATOM     10  N   UNL     1      10.592  17.858  17.590  0.00  0.00    +0.000 NA
ATOM     11  N   UNL     1      10.892  16.897  16.700  0.00  0.00    +0.000 N 
ATOM     12  C   UNL     1      10.701  15.637  17.185  0.00  0.00    +0.000 A 
ATOM     13  C   UNL     1      10.161  15.778  18.444  0.00  0.00    +0.000 A 
ATOM     14  C   UNL     1      10.197  13.540  19.475  0.00  0.00    +0.000 A 
ATOM     15  C   UNL     1      10.916  12.878  20.454  0.00  0.00    +0.000 A 
ATOM     16  C   UNL     1      11.778  11.881  20.052  0.00  0.00    +0.000 A 
ATOM     17  C   UNL     1      11.863  11.593  18.690  0.00  0.00    +0.000 A 
ATOM     18  C   UNL     1      10.840  12.001  17.818  0.00  0.00    +0.000 A 
ATOM     19  C   UNL     1       9.888  12.861  18.307  0.00  0.00    +0.000 A 
ATOM     20  H   UNL     1       9.521  18.670  19.856  0.00  0.00    +0.000 HD
ATOM     21  H   UNL     1      11.174  17.173  15.765  0.00  0.00    +0.000 HD
ENDROOT
BRANCH   7  22
ATOM     22  N   UNL     1       8.962  17.534  22.026  0.00  0.00    +0.000 N 
ATOM     23  H   UNL     1       8.228  17.146  22.612  0.00  0.00    +0.000 HD
ATOM     24  H   UNL     1       9.796  17.781  22.558  0.00  0.00    +0.000 HD
ENDBRANCH   7  22
BRANCH   6  25
ATOM     25  C   UNL     1       9.078  14.678  21.986  0.00  0.00    +0.000 C 
ATOM     26  N   UNL     1       8.952  13.985  23.032  0.00  0.00    +0.000 NA
ENDBRANCH   6  25
TORSDOF 2
ENDMDL
MODEL 6
REMARK VINA RESULT:      -5.9      6.993      9.623
REMARK  Name = 
REMARK  3 active torsions:
REMARK  status: ('A' for Active; 'I' for Inactive)
REMARK    1  A    between atoms: C_1  and  N_2
REMARK    2  A    between atoms: C_6  and  C_7
REMARK    3  A    between atoms: C_9  and  N_10
REMARK                            x       y       z     vdW  Elec       q    Type
REMARK                         _______ _______ _______ _____ _____    ______ ____
ROOT
ATOM      1  C   UNL     1       0.331  15.267  21.743  0.00  0.00    +0.000 C 
ATOM      2  N   UNL     1      -0.291  13.990  21.536  0.00  0.00    +0.000 N 
ATOM      3  C   UNL     1       0.523  12.865  21.236  0.00  0.00    +0.000 C 
ATOM      4  O   UNL     1       1.729  12.870  20.999  0.00  0.00    +0.000 OA
ATOM      5  C   UNL     1      -0.459  11.695  21.221  0.00  0.00    +0.000 C 
ATOM      6  C   UNL     1       0.125  10.357  21.466  0.00  0.00    +0.000 C 
ATOM      7  C   UNL     1       0.448   9.497  20.448  0.00  0.00    +0.000 C 
ATOM      8  N   UNL     1       0.110   9.814  19.150  0.00  0.00    +0.000 N 
ATOM      9  C   UNL     1      -0.697  10.833  18.814  0.00  0.00    +0.000 A 
ATOM     10  N   UNL     1      -1.168  11.141  17.606  0.00  0.00    +0.000 NA
ATOM     11  N   UNL     1      -1.826  12.294  17.815  0.00  0.00    +0.000 N 
ATOM     12  C   UNL     1      -1.851  12.668  19.126  0.00  0.00    +0.000 A 
ATOM     13  C   UNL     1      -1.091  11.748  19.812  0.00  0.00    +0.000 A 
ATOM     14  C   UNL     1      -1.466  12.178  22.209  0.00  0.00    +0.000 A 
ATOM     15  C   UNL     1      -2.145  11.585  23.260  0.00  0.00    +0.000 A 
ATOM     16  C   UNL     1      -3.267  12.223  23.739  0.00  0.00    +0.000 A 
ATOM     17  C   UNL     1      -3.643  13.429  23.149  0.00  0.00    +0.000 A 
ATOM     18  C   UNL     1      -2.715  14.163  22.391  0.00  0.00    +0.000 A 
ATOM     19  C   UNL     1      -1.523  13.557  22.080  0.00  0.00    +0.000 A 
ATOM     20  H   UNL     1       0.425   9.200  18.405  0.00  0.00    +0.000 HD
ATOM     21  H   UNL     1      -2.189  12.797  17.012  0.00  0.00    +0.000 HD
ENDROOT
BRANCH   7  22
ATOM     22  N   UNL     1       1.063   8.284  20.654  0.00  0.00    +0.000 N 
ATOM     23  H   UNL     1       1.323   8.049  21.609  0.00  0.00    +0.000 HD
ATOM     24  H   UNL     1       0.603   7.511  20.175  0.00  0.00    +0.000 HD
ENDBRANCH   7  22
BRANCH   6  25
ATOM     25  C   UNL     1       0.289   9.876  22.898  0.00  0.00    +0.000 C 
ATOM     26  N   UNL     1       0.424   9.478  24.087  0.00  0.00    +0.000 NA
ENDBRANCH   6  25
TORSDOF 2
ENDMDL
MODEL 7
REMARK VINA RESULT:      -5.9      7.581      9.898
REMARK  Name = 
REMARK  3 active torsions:
REMARK  status: ('A' for Active; 'I' for Inactive)
REMARK    1  A    between atoms: C_1  and  N_2
REMARK    2  A    between atoms: C_6  and  C_7
REMARK    3  A    between atoms: C_9  and  N_10
REMARK                            x       y       z     vdW  Elec       q    Type
REMARK                         _______ _______ _______ _____ _____    ______ ____
ROOT
ATOM      1  C   UNL     1       1.094  13.201  18.464  0.00  0.00    +0.000 C 
ATOM      2  N   UNL     1       0.080  12.461  19.159  0.00  0.00    +0.000 N 
ATOM      3  C   UNL     1      -0.531  13.035  20.306  0.00  0.00    +0.000 C 
ATOM      4  O   UNL     1      -0.201  14.074  20.875  0.00  0.00    +0.000 OA
ATOM      5  C   UNL     1      -1.625  12.036  20.678  0.00  0.00    +0.000 C 
ATOM      6  C   UNL     1      -2.752  12.576  21.470  0.00  0.00    +0.000 C 
ATOM      7  C   UNL     1      -2.821  12.453  22.834  0.00  0.00    +0.000 C 
ATOM      8  N   UNL     1      -1.882  11.696  23.501  0.00  0.00    +0.000 N 
ATOM      9  C   UNL     1      -0.996  10.893  22.890  0.00  0.00    +0.000 A 
ATOM     10  N   UNL     1      -0.137  10.043  23.452  0.00  0.00    +0.000 NA
ATOM     11  N   UNL     1       0.572   9.583  22.408  0.00  0.00    +0.000 N 
ATOM     12  C   UNL     1       0.128  10.055  21.207  0.00  0.00    +0.000 A 
ATOM     13  C   UNL     1      -0.884  10.946  21.486  0.00  0.00    +0.000 A 
ATOM     14  C   UNL     1      -1.954  11.484  19.332  0.00  0.00    +0.000 A 
ATOM     15  C   UNL     1      -3.136  11.189  18.676  0.00  0.00    +0.000 A 
ATOM     16  C   UNL     1      -3.069  10.358  17.579  0.00  0.00    +0.000 A 
ATOM     17  C   UNL     1      -1.819   9.879  17.189  0.00  0.00    +0.000 A 
ATOM     18  C   UNL     1      -0.650  10.522  17.627  0.00  0.00    +0.000 A 
ATOM     19  C   UNL     1      -0.774  11.480  18.603  0.00  0.00    +0.000 A 
ATOM     20  H   UNL     1      -1.907  11.680  24.516  0.00  0.00    +0.000 HD
ATOM     21  H   UNL     1       1.376   8.992  22.590  0.00  0.00    +0.000 HD
ENDROOT
BRANCH   7  22
ATOM     22  N   UNL     1      -3.821  13.017  23.591  0.00  0.00    +0.000 N 
ATOM     23  H   UNL     1      -4.012  12.598  24.498  0.00  0.00    +0.000 HD
ATOM     24  H   UNL     1      -3.769  14.035  23.636  0.00  0.00    +0.000 HD
ENDBRANCH   7  22
BRANCH   6  25
ATOM     25  C   UNL     1      -3.927  13.209  20.741  0.00  0.00    +0.000 C 
ATOM     26  N   UNL     1      -4.901  13.734  20.137  0.00  0.00    +0.000 NA
ENDBRANCH   6  25
TORSDOF 2
ENDMDL
MODEL 8
REMARK VINA RESULT:      -5.9     10.892     13.732
REMARK  Name = 
REMARK  3 active torsions:
REMARK  status: ('A' for Active; 'I' for Inactive)
REMARK    1  A    between atoms: C_1  and  N_2
REMARK    2  A    between atoms: C_6  and  C_7
REMARK    3  A    between atoms: C_9  and  N_10
REMARK                            x       y       z     vdW  Elec       q    Type
REMARK                         _______ _______ _______ _____ _____    ______ ____
ROOT
ATOM      1  C   UNL     1      -3.312  11.998  18.589  0.00  0.00    +0.000 C 
ATOM      2  N   UNL     1      -4.676  12.124  19.017  0.00  0.00    +0.000 N 
ATOM      3  C   UNL     1      -4.958  12.236  20.404  0.00  0.00    +0.000 C 
ATOM      4  O   UNL     1      -4.160  12.108  21.331  0.00  0.00    +0.000 OA
ATOM      5  C   UNL     1      -6.464  12.485  20.454  0.00  0.00    +0.000 C 
ATOM      6  C   UNL     1      -6.969  13.158  21.672  0.00  0.00    +0.000 C 
ATOM      7  C   UNL     1      -7.516  12.468  22.723  0.00  0.00    +0.000 C 
ATOM      8  N   UNL     1      -7.729  11.111  22.613  0.00  0.00    +0.000 N 
ATOM      9  C   UNL     1      -7.619  10.425  21.465  0.00  0.00    +0.000 A 
ATOM     10  N   UNL     1      -7.917   9.146  21.242  0.00  0.00    +0.000 NA
ATOM     11  N   UNL     1      -7.522   8.952  19.972  0.00  0.00    +0.000 N 
ATOM     12  C   UNL     1      -7.067  10.089  19.371  0.00  0.00    +0.000 A 
ATOM     13  C   UNL     1      -7.085  11.075  20.333  0.00  0.00    +0.000 A 
ATOM     14  C   UNL     1      -6.661  13.201  19.161  0.00  0.00    +0.000 A 
ATOM     15  C   UNL     1      -7.381  14.320  18.781  0.00  0.00    +0.000 A 
ATOM     16  C   UNL     1      -7.628  14.497  17.437  0.00  0.00    +0.000 A 
ATOM     17  C   UNL     1      -7.128  13.550  16.545  0.00  0.00    +0.000 A 
ATOM     18  C   UNL     1      -6.090  12.689  16.938  0.00  0.00    +0.000 A 
ATOM     19  C   UNL     1      -5.745  12.669  18.267  0.00  0.00    +0.000 A 
ATOM     20  H   UNL     1      -8.064  10.607  23.429  0.00  0.00    +0.000 HD
ATOM     21  H   UNL     1      -7.544   8.010  19.596  0.00  0.00    +0.000 HD
ENDROOT
BRANCH   7  22
ATOM     22  N   UNL     1      -7.916  13.071  23.893  0.00  0.00    +0.000 N 
ATOM     23  H   UNL     1      -8.402  13.961  23.816  0.00  0.00    +0.000 HD
ATOM     24  H   UNL     1      -8.376  12.431  24.540  0.00  0.00    +0.000 HD
ENDBRANCH   7  22
BRANCH   6  25
ATOM     25  C   UNL     1      -6.969  14.677  21.726  0.00  0.00    +0.000 C 
ATOM     26  N   UNL     1      -6.969  15.937  21.772  0.00  0.00    +0.000 NA
ENDBRANCH   6  25
TORSDOF 2
ENDMDL
MODEL 9
REMARK VINA RESULT:      -5.8      7.342      9.813
REMARK  Name = 
REMARK  3 active torsions:
REMARK  status: ('A' for Active; 'I' for Inactive)
REMARK    1  A    between atoms: C_1  and  N_2
REMARK    2  A    between atoms: C_6  and  C_7
REMARK    3  A    between atoms: C_9  and  N_10
REMARK                            x       y       z     vdW  Elec       q    Type
REMARK                         _______ _______ _______ _____ _____    ______ ____
ROOT
ATOM      1  C   UNL     1      -1.558  10.103  18.433  0.00  0.00    +0.000 C 
ATOM      2  N   UNL     1      -1.159  10.859  19.585  0.00  0.00    +0.000 N 
ATOM      3  C   UNL     1      -1.922  11.993  19.967  0.00  0.00    +0.000 C 
ATOM      4  O   UNL     1      -2.848  12.505  19.339  0.00  0.00    +0.000 OA
ATOM      5  C   UNL     1      -1.285  12.441  21.281  0.00  0.00    +0.000 C 
ATOM      6  C   UNL     1      -2.148  13.237  22.182  0.00  0.00    +0.000 C 
ATOM      7  C   UNL     1      -2.100  14.606  22.229  0.00  0.00    +0.000 C 
ATOM      8  N   UNL     1      -1.135  15.282  21.514  0.00  0.00    +0.000 N 
ATOM      9  C   UNL     1      -0.094  14.686  20.911  0.00  0.00    +0.000 A 
ATOM     10  N   UNL     1       0.941  15.263  20.303  0.00  0.00    +0.000 NA
ATOM     11  N   UNL     1       1.620  14.223  19.790  0.00  0.00    +0.000 N 
ATOM     12  C   UNL     1       1.087  13.014  20.131  0.00  0.00    +0.000 A 
ATOM     13  C   UNL     1      -0.062  13.278  20.843  0.00  0.00    +0.000 A 
ATOM     14  C   UNL     1      -0.799  11.131  21.803  0.00  0.00    +0.000 A 
ATOM     15  C   UNL     1      -0.822  10.522  23.045  0.00  0.00    +0.000 A 
ATOM     16  C   UNL     1       0.033   9.463  23.255  0.00  0.00    +0.000 A 
ATOM     17  C   UNL     1       0.858   9.062  22.205  0.00  0.00    +0.000 A 
ATOM     18  C   UNL     1       0.553   9.439  20.886  0.00  0.00    +0.000 A 
ATOM     19  C   UNL     1      -0.436  10.372  20.700  0.00  0.00    +0.000 A 
ATOM     20  H   UNL     1      -1.165  16.297  21.502  0.00  0.00    +0.000 HD
ATOM     21  H   UNL     1       2.405  14.411  19.177  0.00  0.00    +0.000 HD
ENDROOT
BRANCH   7  22
ATOM     22  N   UNL     1      -2.950  15.364  23.002  0.00  0.00    +0.000 N 
ATOM     23  H   UNL     1      -3.903  15.484  22.666  0.00  0.00    +0.000 HD
ATOM     24  H   UNL     1      -2.913  15.127  23.993  0.00  0.00    +0.000 HD
ENDBRANCH   7  22
BRANCH   6  25
ATOM     25  C   UNL     1      -3.058  12.511  23.160  0.00  0.00    +0.000 C 
ATOM     26  N   UNL     1      -3.812  11.909  23.971  0.00  0.00    +0.000 NA
ENDBRANCH   6  25
TORSDOF 2
ENDMDL
