MODEL 1
REMARK VINA RESULT:      -7.6      0.000      0.000
REMARK  Name = 
REMARK  9 active torsions:
REMARK  status: ('A' for Active; 'I' for Inactive)
REMARK    1  A    between atoms: C_1  and  O_2
REMARK    2  A    between atoms: O_2  and  C_3
REMARK    3  A    between atoms: C_9  and  C_10
REMARK    4  A    between atoms: C_10  and  C_11
REMARK    5  A    between atoms: C_11  and  N_12
REMARK    6  A    between atoms: N_12  and  C_13
REMARK    7  A    between atoms: N_12  and  C_14
REMARK    8  A    between atoms: N_16  and  S_17
REMARK    9  A    between atoms: S_17  and  C_20
REMARK                            x       y       z     vdW  Elec       q    Type
REMARK                         _______ _______ _______ _____ _____    ______ ____
ROOT
ATOM      1  C   UNL     1       2.724   6.151  18.739  0.00  0.00    +0.000 A 
ATOM      2  C   UNL     1       2.522   7.391  18.123  0.00  0.00    +0.000 A 
ATOM      3  C   UNL     1       3.411   7.867  17.166  0.00  0.00    +0.000 A 
ATOM      4  C   UNL     1       4.553   7.144  16.812  0.00  0.00    +0.000 A 
ATOM      5  C   UNL     1       4.808   5.930  17.476  0.00  0.00    +0.000 A 
ATOM      6  C   UNL     1       3.898   5.411  18.419  0.00  0.00    +0.000 A 
ATOM      7  C   UNL     1       4.416   4.143  18.861  0.00  0.00    +0.000 A 
ATOM      8  C   UNL     1       5.622   3.946  18.220  0.00  0.00    +0.000 A 
ATOM      9  N   UNL     1       5.872   5.047  17.446  0.00  0.00    +0.000 N 
ENDROOT
BRANCH   9  10
ATOM     10  S   UNL     1       7.303   5.207  16.534  0.00  0.00    +0.000 S 
ATOM     11  O   UNL     1       7.643   6.613  16.570  0.00  0.00    +0.000 OA
ATOM     12  O   UNL     1       8.215   4.187  17.031  0.00  0.00    +0.000 OA
BRANCH  10  13
ATOM     13  C   UNL     1       6.907   4.782  14.861  0.00  0.00    +0.000 A 
ATOM     14  C   UNL     1       5.787   3.969  14.640  0.00  0.00    +0.000 A 
ATOM     15  C   UNL     1       5.506   3.513  13.353  0.00  0.00    +0.000 A 
ATOM     16  C   UNL     1       6.328   3.884  12.290  0.00  0.00    +0.000 A 
ATOM     17  C   UNL     1       7.403   4.748  12.502  0.00  0.00    +0.000 A 
ATOM     18  C   UNL     1       7.694   5.208  13.788  0.00  0.00    +0.000 A 
ENDBRANCH  10  13
ENDBRANCH   9  10
BRANCH   1  20
ATOM     19  C   UNL     1       1.598   6.481  20.805  0.00  0.00    +0.000 C 
ATOM     20  O   UNL     1       1.876   5.638  19.692  0.00  0.00    +0.000 OA
ENDBRANCH   1  20
BRANCH   7  21
ATOM     21  C   UNL     1       3.781   3.200  19.837  0.00  0.00    +0.000 C 
BRANCH  21  22
ATOM     22  C   UNL     1       2.937   2.130  19.121  0.00  0.00    +0.000 C 
BRANCH  22  23
ATOM     23  N   UNL     1       1.600   1.914  19.708  0.00  0.00    +0.000 NA
ATOM     24  C   UNL     1       1.497   2.489  21.051  0.00  0.00    +0.000 C 
ATOM     25  C   UNL     1       0.579   2.510  18.839  0.00  0.00    +0.000 C 
ENDBRANCH  22  23
ENDBRANCH  21  22
ENDBRANCH   7  21
TORSDOF 6
ENDMDL
MODEL 2
REMARK VINA RESULT:      -7.2      1.221      1.538
REMARK  Name = 
REMARK  9 active torsions:
REMARK  status: ('A' for Active; 'I' for Inactive)
REMARK    1  A    between atoms: C_1  and  O_2
REMARK    2  A    between atoms: O_2  and  C_3
REMARK    3  A    between atoms: C_9  and  C_10
REMARK    4  A    between atoms: C_10  and  C_11
REMARK    5  A    between atoms: C_11  and  N_12
REMARK    6  A    between atoms: N_12  and  C_13
REMARK    7  A    between atoms: N_12  and  C_14
REMARK    8  A    between atoms: N_16  and  S_17
REMARK    9  A    between atoms: S_17  and  C_20
REMARK                            x       y       z     vdW  Elec       q    Type
REMARK                         _______ _______ _______ _____ _____    ______ ____
ROOT
ATOM      1  C   UNL     1       2.252   5.454  18.315  0.00  0.00    +0.000 A 
ATOM      2  C   UNL     1       2.221   6.848  18.426  0.00  0.00    +0.000 A 
ATOM      3  C   UNL     1       3.238   7.631  17.891  0.00  0.00    +0.000 A 
ATOM      4  C   UNL     1       4.341   7.054  17.258  0.00  0.00    +0.000 A 
ATOM      5  C   UNL     1       4.422   5.650  17.203  0.00  0.00    +0.000 A 
ATOM      6  C   UNL     1       3.382   4.842  17.703  0.00  0.00    +0.000 A 
ATOM      7  C   UNL     1       3.741   3.472  17.441  0.00  0.00    +0.000 A 
ATOM      8  C   UNL     1       4.983   3.482  16.838  0.00  0.00    +0.000 A 
ATOM      9  N   UNL     1       5.403   4.782  16.760  0.00  0.00    +0.000 N 
ENDROOT
BRANCH   9  10
ATOM     10  S   UNL     1       6.925   5.205  16.119  0.00  0.00    +0.000 S 
ATOM     11  O   UNL     1       7.028   6.642  16.256  0.00  0.00    +0.000 OA
ATOM     12  O   UNL     1       7.888   4.307  16.740  0.00  0.00    +0.000 OA
BRANCH  10  13
ATOM     13  C   UNL     1       6.891   4.819  14.392  0.00  0.00    +0.000 A 
ATOM     14  C   UNL     1       5.973   3.854  13.954  0.00  0.00    +0.000 A 
ATOM     15  C   UNL     1       5.991   3.434  12.626  0.00  0.00    +0.000 A 
ATOM     16  C   UNL     1       6.909   3.989  11.734  0.00  0.00    +0.000 A 
ATOM     17  C   UNL     1       7.776   4.997  12.156  0.00  0.00    +0.000 A 
ATOM     18  C   UNL     1       7.767   5.423  13.486  0.00  0.00    +0.000 A 
ENDBRANCH  10  13
ENDBRANCH   9  10
BRANCH   1  20
ATOM     19  C   UNL     1       0.986   4.796  20.215  0.00  0.00    +0.000 C 
ATOM     20  O   UNL     1       1.273   4.637  18.829  0.00  0.00    +0.000 OA
ENDBRANCH   1  20
BRANCH   7  21
ATOM     21  C   UNL     1       2.934   2.251  17.760  0.00  0.00    +0.000 C 
BRANCH  21  22
ATOM     22  C   UNL     1       3.559   1.446  18.912  0.00  0.00    +0.000 C 
BRANCH  22  23
ATOM     23  N   UNL     1       3.988   2.263  20.065  0.00  0.00    +0.000 NA
ATOM     24  C   UNL     1       2.919   2.409  21.055  0.00  0.00    +0.000 C 
ATOM     25  C   UNL     1       5.160   1.646  20.695  0.00  0.00    +0.000 C 
ENDBRANCH  22  23
ENDBRANCH  21  22
ENDBRANCH   7  21
TORSDOF 6
ENDMDL
MODEL 3
REMARK VINA RESULT:      -7.0      1.805      3.693
REMARK  Name = 
REMARK  9 active torsions:
REMARK  status: ('A' for Active; 'I' for Inactive)
REMARK    1  A    between atoms: C_1  and  O_2
REMARK    2  A    between atoms: O_2  and  C_3
REMARK    3  A    between atoms: C_9  and  C_10
REMARK    4  A    between atoms: C_10  and  C_11
REMARK    5  A    between atoms: C_11  and  N_12
REMARK    6  A    between atoms: N_12  and  C_13
REMARK    7  A    between atoms: N_12  and  C_14
REMARK    8  A    between atoms: N_16  and  S_17
REMARK    9  A    between atoms: S_17  and  C_20
REMARK                            x       y       z     vdW  Elec       q    Type
REMARK                         _______ _______ _______ _____ _____    ______ ____
ROOT
ATOM      1  C   UNL     1       2.416   3.968  18.433  0.00  0.00    +0.000 A 
ATOM      2  C   UNL     1       2.562   2.598  18.193  0.00  0.00    +0.000 A 
ATOM      3  C   UNL     1       3.744   2.086  17.668  0.00  0.00    +0.000 A 
ATOM      4  C   UNL     1       4.809   2.923  17.329  0.00  0.00    +0.000 A 
ATOM      5  C   UNL     1       4.649   4.312  17.496  0.00  0.00    +0.000 A 
ATOM      6  C   UNL     1       3.475   4.845  18.065  0.00  0.00    +0.000 A 
ATOM      7  C   UNL     1       3.652   6.271  18.152  0.00  0.00    +0.000 A 
ATOM      8  C   UNL     1       4.885   6.566  17.609  0.00  0.00    +0.000 A 
ATOM      9  N   UNL     1       5.441   5.396  17.165  0.00  0.00    +0.000 N 
ENDROOT
BRANCH   9  10
ATOM     10  S   UNL     1       6.953   5.352  16.379  0.00  0.00    +0.000 S 
ATOM     11  O   UNL     1       7.423   6.720  16.344  0.00  0.00    +0.000 OA
ATOM     12  O   UNL     1       7.715   4.298  17.030  0.00  0.00    +0.000 OA
BRANCH  10  13
ATOM     13  C   UNL     1       6.660   4.830  14.712  0.00  0.00    +0.000 A 
ATOM     14  C   UNL     1       5.459   4.162  14.437  0.00  0.00    +0.000 A 
ATOM     15  C   UNL     1       5.238   3.631  13.168  0.00  0.00    +0.000 A 
ATOM     16  C   UNL     1       6.204   3.782  12.173  0.00  0.00    +0.000 A 
ATOM     17  C   UNL     1       7.369   4.505  12.432  0.00  0.00    +0.000 A 
ATOM     18  C   UNL     1       7.601   5.039  13.700  0.00  0.00    +0.000 A 
ENDBRANCH  10  13
ENDBRANCH   9  10
BRANCH   1  20
ATOM     19  C   UNL     1       1.067   4.361  20.349  0.00  0.00    +0.000 C 
ATOM     20  O   UNL     1       1.267   4.522  18.949  0.00  0.00    +0.000 OA
ENDBRANCH   1  20
BRANCH   7  21
ATOM     21  C   UNL     1       2.686   7.266  18.721  0.00  0.00    +0.000 C 
BRANCH  21  22
ATOM     22  C   UNL     1       2.351   8.371  17.704  0.00  0.00    +0.000 C 
BRANCH  22  23
ATOM     23  N   UNL     1       1.397   9.385  18.196  0.00  0.00    +0.000 NA
ATOM     24  C   UNL     1       1.091   9.197  19.616  0.00  0.00    +0.000 C 
ATOM     25  C   UNL     1       1.953  10.726  17.987  0.00  0.00    +0.000 C 
ENDBRANCH  22  23
ENDBRANCH  21  22
ENDBRANCH   7  21
TORSDOF 6
ENDMDL
MODEL 4
REMARK VINA RESULT:      -6.9      1.769      3.555
REMARK  Name = 
REMARK  9 active torsions:
REMARK  status: ('A' for Active; 'I' for Inactive)
REMARK    1  A    between atoms: C_1  and  O_2
REMARK    2  A    between atoms: O_2  and  C_3
REMARK    3  A    between atoms: C_9  and  C_10
REMARK    4  A    between atoms: C_10  and  C_11
REMARK    5  A    between atoms: C_11  and  N_12
REMARK    6  A    between atoms: N_12  and  C_13
REMARK    7  A    between atoms: N_12  and  C_14
REMARK    8  A    between atoms: N_16  and  S_17
REMARK    9  A    between atoms: S_17  and  C_20
REMARK                            x       y       z     vdW  Elec       q    Type
REMARK                         _______ _______ _______ _____ _____    ______ ____
ROOT
ATOM      1  C   UNL     1       2.371   3.753  18.304  0.00  0.00    +0.000 A 
ATOM      2  C   UNL     1       2.671   2.388  18.243  0.00  0.00    +0.000 A 
ATOM      3  C   UNL     1       3.939   1.951  17.874  0.00  0.00    +0.000 A 
ATOM      4  C   UNL     1       4.943   2.855  17.517  0.00  0.00    +0.000 A 
ATOM      5  C   UNL     1       4.632   4.227  17.503  0.00  0.00    +0.000 A 
ATOM      6  C   UNL     1       3.367   4.691  17.913  0.00  0.00    +0.000 A 
ATOM      7  C   UNL     1       3.394   6.129  17.841  0.00  0.00    +0.000 A 
ATOM      8  C   UNL     1       4.635   6.492  17.360  0.00  0.00    +0.000 A 
ATOM      9  N   UNL     1       5.340   5.347  17.103  0.00  0.00    +0.000 N 
ENDROOT
BRANCH   9  10
ATOM     10  S   UNL     1       6.911   5.378  16.444  0.00  0.00    +0.000 S 
ATOM     11  O   UNL     1       7.290   6.773  16.383  0.00  0.00    +0.000 OA
ATOM     12  O   UNL     1       7.686   4.408  17.203  0.00  0.00    +0.000 OA
BRANCH  10  13
ATOM     13  C   UNL     1       6.794   4.768  14.785  0.00  0.00    +0.000 A 
ATOM     14  C   UNL     1       7.695   5.272  13.838  0.00  0.00    +0.000 A 
ATOM     15  C   UNL     1       7.565   4.910  12.498  0.00  0.00    +0.000 A 
ATOM     16  C   UNL     1       6.551   4.035  12.110  0.00  0.00    +0.000 A 
ATOM     17  C   UNL     1       5.696   3.484  13.066  0.00  0.00    +0.000 A 
ATOM     18  C   UNL     1       5.818   3.841  14.410  0.00  0.00    +0.000 A 
ENDBRANCH  10  13
ENDBRANCH   9  10
BRANCH   1  20
ATOM     19  C   UNL     1       0.818   4.187  20.049  0.00  0.00    +0.000 C 
ATOM     20  O   UNL     1       1.133   4.234  18.661  0.00  0.00    +0.000 OA
ENDBRANCH   1  20
BRANCH   7  21
ATOM     21  C   UNL     1       2.290   7.072  18.210  0.00  0.00    +0.000 C 
BRANCH  21  22
ATOM     22  C   UNL     1       2.358   7.465  19.697  0.00  0.00    +0.000 C 
BRANCH  22  23
ATOM     23  N   UNL     1       1.214   8.271  20.168  0.00  0.00    +0.000 NA
ATOM     24  C   UNL     1       1.322   8.586  21.594  0.00  0.00    +0.000 C 
ATOM     25  C   UNL     1       1.138   9.516  19.395  0.00  0.00    +0.000 C 
ENDBRANCH  22  23
ENDBRANCH  21  22
ENDBRANCH   7  21
TORSDOF 6
ENDMDL
MODEL 5
REMARK VINA RESULT:      -6.8      0.903      1.480
REMARK  Name = 
REMARK  9 active torsions:
REMARK  status: ('A' for Active; 'I' for Inactive)
REMARK    1  A    between atoms: C_1  and  O_2
REMARK    2  A    between atoms: O_2  and  C_3
REMARK    3  A    between atoms: C_9  and  C_10
REMARK    4  A    between atoms: C_10  and  C_11
REMARK    5  A    between atoms: C_11  and  N_12
REMARK    6  A    between atoms: N_12  and  C_13
REMARK    7  A    between atoms: N_12  and  C_14
REMARK    8  A    between atoms: N_16  and  S_17
REMARK    9  A    between atoms: S_17  and  C_20
REMARK                            x       y       z     vdW  Elec       q    Type
REMARK                         _______ _______ _______ _____ _____    ______ ____
ROOT
ATOM      1  C   UNL     1       2.455   6.721  19.150  0.00  0.00    +0.000 A 
ATOM      2  C   UNL     1       2.333   7.860  18.347  0.00  0.00    +0.000 A 
ATOM      3  C   UNL     1       3.287   8.158  17.380  0.00  0.00    +0.000 A 
ATOM      4  C   UNL     1       4.416   7.355  17.202  0.00  0.00    +0.000 A 
ATOM      5  C   UNL     1       4.589   6.247  18.052  0.00  0.00    +0.000 A 
ATOM      6  C   UNL     1       3.613   5.905  19.009  0.00  0.00    +0.000 A 
ATOM      7  C   UNL     1       4.058   4.702  19.663  0.00  0.00    +0.000 A 
ATOM      8  C   UNL     1       5.286   4.373  19.126  0.00  0.00    +0.000 A 
ATOM      9  N   UNL     1       5.618   5.337  18.213  0.00  0.00    +0.000 N 
ENDROOT
BRANCH   9  10
ATOM     10  S   UNL     1       7.098   5.313  17.367  0.00  0.00    +0.000 S 
ATOM     11  O   UNL     1       7.519   6.693  17.264  0.00  0.00    +0.000 OA
ATOM     12  O   UNL     1       7.922   4.309  18.025  0.00  0.00    +0.000 OA
BRANCH  10  13
ATOM     13  C   UNL     1       6.758   4.719  15.734  0.00  0.00    +0.000 A 
ATOM     14  C   UNL     1       7.588   5.156  14.693  0.00  0.00    +0.000 A 
ATOM     15  C   UNL     1       7.288   4.809  13.377  0.00  0.00    +0.000 A 
ATOM     16  C   UNL     1       6.174   4.015  13.104  0.00  0.00    +0.000 A 
ATOM     17  C   UNL     1       5.387   3.528  14.149  0.00  0.00    +0.000 A 
ATOM     18  C   UNL     1       5.679   3.871  15.470  0.00  0.00    +0.000 A 
ENDBRANCH  10  13
ENDBRANCH   9  10
BRANCH   1  20
ATOM     19  C   UNL     1       1.206   7.408  21.051  0.00  0.00    +0.000 C 
ATOM     20  O   UNL     1       1.540   6.384  20.120  0.00  0.00    +0.000 OA
ENDBRANCH   1  20
BRANCH   7  21
ATOM     21  C   UNL     1       3.338   3.937  20.732  0.00  0.00    +0.000 C 
BRANCH  21  22
ATOM     22  C   UNL     1       2.729   2.636  20.181  0.00  0.00    +0.000 C 
BRANCH  22  23
ATOM     23  N   UNL     1       2.180   2.749  18.815  0.00  0.00    +0.000 NA
ATOM     24  C   UNL     1       2.882   1.875  17.873  0.00  0.00    +0.000 C 
ATOM     25  C   UNL     1       0.753   2.410  18.828  0.00  0.00    +0.000 C 
ENDBRANCH  22  23
ENDBRANCH  21  22
ENDBRANCH   7  21
TORSDOF 6
ENDMDL
MODEL 6
REMARK VINA RESULT:      -6.8      1.710      3.760
REMARK  Name = 
REMARK  9 active torsions:
REMARK  status: ('A' for Active; 'I' for Inactive)
REMARK    1  A    between atoms: C_1  and  O_2
REMARK    2  A    between atoms: O_2  and  C_3
REMARK    3  A    between atoms: C_9  and  C_10
REMARK    4  A    between atoms: C_10  and  C_11
REMARK    5  A    between atoms: C_11  and  N_12
REMARK    6  A    between atoms: N_12  and  C_13
REMARK    7  A    between atoms: N_12  and  C_14
REMARK    8  A    between atoms: N_16  and  S_17
REMARK    9  A    between atoms: S_17  and  C_20
REMARK                            x       y       z     vdW  Elec       q    Type
REMARK                         _______ _______ _______ _____ _____    ______ ____
ROOT
ATOM      1  C   UNL     1       2.806   4.328  19.281  0.00  0.00    +0.000 A 
ATOM      2  C   UNL     1       3.275   3.090  19.734  0.00  0.00    +0.000 A 
ATOM      3  C   UNL     1       4.582   2.685  19.481  0.00  0.00    +0.000 A 
ATOM      4  C   UNL     1       5.457   3.480  18.739  0.00  0.00    +0.000 A 
ATOM      5  C   UNL     1       4.977   4.694  18.215  0.00  0.00    +0.000 A 
ATOM      6  C   UNL     1       3.670   5.141  18.494  0.00  0.00    +0.000 A 
ATOM      7  C   UNL     1       3.515   6.429  17.870  0.00  0.00    +0.000 A 
ATOM      8  C   UNL     1       4.693   6.708  17.207  0.00  0.00    +0.000 A 
ATOM      9  N   UNL     1       5.531   5.638  17.369  0.00  0.00    +0.000 N 
ENDROOT
BRANCH   9  10
ATOM     10  S   UNL     1       7.075   5.580  16.649  0.00  0.00    +0.000 S 
ATOM     11  O   UNL     1       7.499   6.956  16.503  0.00  0.00    +0.000 OA
ATOM     12  O   UNL     1       7.846   4.621  17.426  0.00  0.00    +0.000 OA
BRANCH  10  13
ATOM     13  C   UNL     1       6.871   4.895  15.029  0.00  0.00    +0.000 A 
ATOM     14  C   UNL     1       7.785   5.275  14.037  0.00  0.00    +0.000 A 
ATOM     15  C   UNL     1       7.595   4.854  12.722  0.00  0.00    +0.000 A 
ATOM     16  C   UNL     1       6.507   4.042  12.403  0.00  0.00    +0.000 A 
ATOM     17  C   UNL     1       5.635   3.611  13.405  0.00  0.00    +0.000 A 
ATOM     18  C   UNL     1       5.817   4.028  14.725  0.00  0.00    +0.000 A 
ENDBRANCH  10  13
ENDBRANCH   9  10
BRANCH   1  20
ATOM     19  C   UNL     1       0.737   3.995  20.400  0.00  0.00    +0.000 C 
ATOM     20  O   UNL     1       1.524   4.772  19.503  0.00  0.00    +0.000 OA
ENDBRANCH   1  20
BRANCH   7  21
ATOM     21  C   UNL     1       2.307   7.314  17.916  0.00  0.00    +0.000 C 
BRANCH  21  22
ATOM     22  C   UNL     1       2.142   7.970  19.299  0.00  0.00    +0.000 C 
BRANCH  22  23
ATOM     23  N   UNL     1       1.584   9.337  19.263  0.00  0.00    +0.000 NA
ATOM     24  C   UNL     1       0.840   9.588  18.027  0.00  0.00    +0.000 C 
ATOM     25  C   UNL     1       0.701   9.538  20.417  0.00  0.00    +0.000 C 
ENDBRANCH  22  23
ENDBRANCH  21  22
ENDBRANCH   7  21
TORSDOF 6
ENDMDL
MODEL 7
REMARK VINA RESULT:      -6.5      2.883      4.835
REMARK  Name = 
REMARK  9 active torsions:
REMARK  status: ('A' for Active; 'I' for Inactive)
REMARK    1  A    between atoms: C_1  and  O_2
REMARK    2  A    between atoms: O_2  and  C_3
REMARK    3  A    between atoms: C_9  and  C_10
REMARK    4  A    between atoms: C_10  and  C_11
REMARK    5  A    between atoms: C_11  and  N_12
REMARK    6  A    between atoms: N_12  and  C_13
REMARK    7  A    between atoms: N_12  and  C_14
REMARK    8  A    between atoms: N_16  and  S_17
REMARK    9  A    between atoms: S_17  and  C_20
REMARK                            x       y       z     vdW  Elec       q    Type
REMARK                         _______ _______ _______ _____ _____    ______ ____
ROOT
ATOM      1  C   UNL     1       1.778   3.281  19.370  0.00  0.00    +0.000 A 
ATOM      2  C   UNL     1       2.035   2.073  18.712  0.00  0.00    +0.000 A 
ATOM      3  C   UNL     1       3.003   1.993  17.716  0.00  0.00    +0.000 A 
ATOM      4  C   UNL     1       3.725   3.119  17.313  0.00  0.00    +0.000 A 
ATOM      5  C   UNL     1       3.426   4.356  17.915  0.00  0.00    +0.000 A 
ATOM      6  C   UNL     1       2.478   4.449  18.954  0.00  0.00    +0.000 A 
ATOM      7  C   UNL     1       2.453   5.822  19.387  0.00  0.00    +0.000 A 
ATOM      8  C   UNL     1       3.337   6.520  18.591  0.00  0.00    +0.000 A 
ATOM      9  N   UNL     1       3.862   5.647  17.677  0.00  0.00    +0.000 N 
ENDROOT
BRANCH   9  10
ATOM     10  S   UNL     1       4.963   6.145  16.475  0.00  0.00    +0.000 S 
ATOM     11  O   UNL     1       5.327   4.947  15.749  0.00  0.00    +0.000 OA
ATOM     12  O   UNL     1       4.348   7.284  15.812  0.00  0.00    +0.000 OA
BRANCH  10  13
ATOM     13  C   UNL     1       6.408   6.743  17.306  0.00  0.00    +0.000 A 
ATOM     14  C   UNL     1       6.991   5.921  18.280  0.00  0.00    +0.000 A 
ATOM     15  C   UNL     1       8.057   6.398  19.040  0.00  0.00    +0.000 A 
ATOM     16  C   UNL     1       8.551   7.682  18.815  0.00  0.00    +0.000 A 
ATOM     17  C   UNL     1       8.012   8.473  17.800  0.00  0.00    +0.000 A 
ATOM     18  C   UNL     1       6.943   8.005  17.034  0.00  0.00    +0.000 A 
ENDBRANCH  10  13
ENDBRANCH   9  10
BRANCH   1  20
ATOM     19  C   UNL     1       1.188   2.905  21.640  0.00  0.00    +0.000 C 
ATOM     20  O   UNL     1       0.831   3.412  20.358  0.00  0.00    +0.000 OA
ENDBRANCH   1  20
BRANCH   7  21
ATOM     21  C   UNL     1       1.625   6.403  20.493  0.00  0.00    +0.000 C 
BRANCH  21  22
ATOM     22  C   UNL     1       1.836   7.922  20.616  0.00  0.00    +0.000 C 
BRANCH  22  23
ATOM     23  N   UNL     1       0.700   8.737  20.138  0.00  0.00    +0.000 NA
ATOM     24  C   UNL     1       0.133   9.559  21.209  0.00  0.00    +0.000 C 
ATOM     25  C   UNL     1       1.144   9.601  19.039  0.00  0.00    +0.000 C 
ENDBRANCH  22  23
ENDBRANCH  21  22
ENDBRANCH   7  21
TORSDOF 6
ENDMDL
MODEL 8
REMARK VINA RESULT:      -6.5      2.924      3.775
REMARK  Name = 
REMARK  9 active torsions:
REMARK  status: ('A' for Active; 'I' for Inactive)
REMARK    1  A    between atoms: C_1  and  O_2
REMARK    2  A    between atoms: O_2  and  C_3
REMARK    3  A    between atoms: C_9  and  C_10
REMARK    4  A    between atoms: C_10  and  C_11
REMARK    5  A    between atoms: C_11  and  N_12
REMARK    6  A    between atoms: N_12  and  C_13
REMARK    7  A    between atoms: N_12  and  C_14
REMARK    8  A    between atoms: N_16  and  S_17
REMARK    9  A    between atoms: S_17  and  C_20
REMARK                            x       y       z     vdW  Elec       q    Type
REMARK                         _______ _______ _______ _____ _____    ______ ____
ROOT
ATOM      1  C   UNL     1       1.328   8.148  19.877  0.00  0.00    +0.000 A 
ATOM      2  C   UNL     1       1.297   9.385  19.223  0.00  0.00    +0.000 A 
ATOM      3  C   UNL     1       2.052   9.606  18.076  0.00  0.00    +0.000 A 
ATOM      4  C   UNL     1       2.892   8.618  17.558  0.00  0.00    +0.000 A 
ATOM      5  C   UNL     1       2.989   7.394  18.247  0.00  0.00    +0.000 A 
ATOM      6  C   UNL     1       2.202   7.137  19.387  0.00  0.00    +0.000 A 
ATOM      7  C   UNL     1       2.490   5.791  19.811  0.00  0.00    +0.000 A 
ATOM      8  C   UNL     1       3.454   5.291  18.960  0.00  0.00    +0.000 A 
ATOM      9  N   UNL     1       3.787   6.278  18.073  0.00  0.00    +0.000 N 
ENDROOT
BRANCH   9  10
ATOM     10  S   UNL     1       4.991   6.061  16.886  0.00  0.00    +0.000 S 
ATOM     11  O   UNL     1       5.229   4.636  16.816  0.00  0.00    +0.000 OA
ATOM     12  O   UNL     1       4.554   6.821  15.725  0.00  0.00    +0.000 OA
BRANCH  10  13
ATOM     13  C   UNL     1       6.465   6.834  17.490  0.00  0.00    +0.000 A 
ATOM     14  C   UNL     1       7.246   6.124  18.413  0.00  0.00    +0.000 A 
ATOM     15  C   UNL     1       8.349   6.738  19.002  0.00  0.00    +0.000 A 
ATOM     16  C   UNL     1       8.682   8.048  18.659  0.00  0.00    +0.000 A 
ATOM     17  C   UNL     1       7.942   8.729  17.691  0.00  0.00    +0.000 A 
ATOM     18  C   UNL     1       6.834   8.123  17.095  0.00  0.00    +0.000 A 
ENDBRANCH  10  13
ENDBRANCH   9  10
BRANCH   1  20
ATOM     19  C   UNL     1       0.549   8.923  21.983  0.00  0.00    +0.000 C 
ATOM     20  O   UNL     1       0.602   7.881  21.014  0.00  0.00    +0.000 OA
ENDBRANCH   1  20
BRANCH   7  21
ATOM     21  C   UNL     1       1.871   5.056  20.960  0.00  0.00    +0.000 C 
BRANCH  21  22
ATOM     22  C   UNL     1       0.905   3.961  20.475  0.00  0.00    +0.000 C 
BRANCH  22  23
ATOM     23  N   UNL     1       1.419   2.585  20.621  0.00  0.00    +0.000 NA
ATOM     24  C   UNL     1       1.825   2.017  19.334  0.00  0.00    +0.000 C 
ATOM     25  C   UNL     1       2.562   2.582  21.541  0.00  0.00    +0.000 C 
ENDBRANCH  22  23
ENDBRANCH  21  22
ENDBRANCH   7  21
TORSDOF 6
ENDMDL
MODEL 9
REMARK VINA RESULT:      -6.4      2.666      6.441
REMARK  Name = 
REMARK  9 active torsions:
REMARK  status: ('A' for Active; 'I' for Inactive)
REMARK    1  A    between atoms: C_1  and  O_2
REMARK    2  A    between atoms: O_2  and  C_3
REMARK    3  A    between atoms: C_9  and  C_10
REMARK    4  A    between atoms: C_10  and  C_11
REMARK    5  A    between atoms: C_11  and  N_12
REMARK    6  A    between atoms: N_12  and  C_13
REMARK    7  A    between atoms: N_12  and  C_14
REMARK    8  A    between atoms: N_16  and  S_17
REMARK    9  A    between atoms: S_17  and  C_20
REMARK                            x       y       z     vdW  Elec       q    Type
REMARK                         _______ _______ _______ _____ _____    ______ ____
ROOT
ATOM      1  C   UNL     1       6.077   6.776  17.002  0.00  0.00    +0.000 A 
ATOM      2  C   UNL     1       7.006   5.780  16.680  0.00  0.00    +0.000 A 
ATOM      3  C   UNL     1       6.611   4.455  16.534  0.00  0.00    +0.000 A 
ATOM      4  C   UNL     1       5.285   4.065  16.738  0.00  0.00    +0.000 A 
ATOM      5  C   UNL     1       4.354   5.044  17.134  0.00  0.00    +0.000 A 
ATOM      6  C   UNL     1       4.726   6.398  17.247  0.00  0.00    +0.000 A 
ATOM      7  C   UNL     1       3.544   7.138  17.605  0.00  0.00    +0.000 A 
ATOM      8  C   UNL     1       2.515   6.229  17.737  0.00  0.00    +0.000 A 
ATOM      9  N   UNL     1       3.026   4.978  17.515  0.00  0.00    +0.000 N 
ENDROOT
BRANCH   9  10
ATOM     10  S   UNL     1       2.070   3.573  17.640  0.00  0.00    +0.000 S 
ATOM     11  O   UNL     1       0.709   3.994  17.385  0.00  0.00    +0.000 OA
ATOM     12  O   UNL     1       2.725   2.565  16.820  0.00  0.00    +0.000 OA
BRANCH  10  13
ATOM     13  C   UNL     1       2.168   3.022  19.320  0.00  0.00    +0.000 A 
ATOM     14  C   UNL     1       1.015   3.120  20.110  0.00  0.00    +0.000 A 
ATOM     15  C   UNL     1       1.076   2.809  21.467  0.00  0.00    +0.000 A 
ATOM     16  C   UNL     1       2.280   2.384  22.028  0.00  0.00    +0.000 A 
ATOM     17  C   UNL     1       3.410   2.223  21.226  0.00  0.00    +0.000 A 
ATOM     18  C   UNL     1       3.359   2.534  19.866  0.00  0.00    +0.000 A 
ENDBRANCH  10  13
ENDBRANCH   9  10
BRANCH   1  20
ATOM     19  C   UNL     1       7.741   8.356  17.616  0.00  0.00    +0.000 C 
ATOM     20  O   UNL     1       6.418   8.099  17.159  0.00  0.00    +0.000 OA
ENDBRANCH   1  20
BRANCH   7  21
ATOM     21  C   UNL     1       3.433   8.619  17.804  0.00  0.00    +0.000 C 
BRANCH  21  22
ATOM     22  C   UNL     1       1.971   9.092  17.720  0.00  0.00    +0.000 C 
BRANCH  22  23
ATOM     23  N   UNL     1       1.496   9.823  18.912  0.00  0.00    +0.000 NA
ATOM     24  C   UNL     1       0.255  10.552  18.642  0.00  0.00    +0.000 C 
ATOM     25  C   UNL     1       1.281   8.879  20.014  0.00  0.00    +0.000 C 
ENDBRANCH  22  23
ENDBRANCH  21  22
ENDBRANCH   7  21
TORSDOF 6
ENDMDL
