MODEL 1
REMARK VINA RESULT:      -7.3      0.000      0.000
REMARK  Name = 
REMARK  5 active torsions:
REMARK  status: ('A' for Active; 'I' for Inactive)
REMARK    1  A    between atoms: C_1  and  C_2
REMARK    2  A    between atoms: C_2  and  C_3
REMARK    3  A    between atoms: C_3  and  C_4
REMARK    4  A    between atoms: C_5  and  O_6
REMARK    5  A    between atoms: C_10  and  O_11
REMARK                            x       y       z     vdW  Elec       q    Type
REMARK                         _______ _______ _______ _____ _____    ______ ____
ROOT
ATOM      1  C   UNL     1       2.496   4.371  19.827  0.00  0.00    +0.000 A 
ATOM      2  C   UNL     1       1.515   3.567  19.237  0.00  0.00    +0.000 A 
ATOM      3  C   UNL     1       1.734   2.937  18.016  0.00  0.00    +0.000 A 
ATOM      4  C   UNL     1       2.961   3.060  17.361  0.00  0.00    +0.000 A 
ATOM      5  C   UNL     1       4.012   3.769  17.950  0.00  0.00    +0.000 A 
ATOM      6  C   UNL     1       5.364   3.853  17.359  0.00  0.00    +0.000 A 
ATOM      7  C   UNL     1       6.313   4.443  18.072  0.00  0.00    +0.000 A 
ATOM      8  N   UNL     1       7.645   4.626  17.855  0.00  0.00    +0.000 NA
ATOM      9  N   UNL     1       8.147   5.218  18.861  0.00  0.00    +0.000 NA
ATOM     10  N   UNL     1       7.134   5.514  19.853  0.00  0.00    +0.000 NA
ATOM     11  C   UNL     1       6.046   5.037  19.342  0.00  0.00    +0.000 A 
ATOM     12  O   UNL     1       4.799   5.086  19.885  0.00  0.00    +0.000 OA
ATOM     13  C   UNL     1       3.759   4.407  19.192  0.00  0.00    +0.000 A 
ENDROOT
BRANCH   2  14
ATOM     14  O   UNL     1       0.292   3.336  19.798  0.00  0.00    +0.000 OA
ATOM     15  H   UNL     1      -0.006   4.124  20.277  0.00  0.00    +0.000 HD
ENDBRANCH   2  14
BRANCH   6  16
ATOM     16  O   UNL     1       5.638   3.298  16.123  0.00  0.00    +0.000 OA
ATOM     17  H   UNL     1       5.199   3.792  15.416  0.00  0.00    +0.000 HD
ENDBRANCH   6  16
BRANCH   1  18
ATOM     18  C   UNL     1       2.214   5.181  21.076  0.00  0.00    +0.000 C 
BRANCH  18  20
ATOM     19  C   UNL     1       2.149   7.393  19.852  0.00  0.00    +0.000 C 
ATOM     20  C   UNL     1       1.408   6.445  20.781  0.00  0.00    +0.000 C 
ENDBRANCH  18  20
ENDBRANCH   1  18
TORSDOF 4
ENDMDL
MODEL 2
REMARK VINA RESULT:      -7.1      1.697      2.028
REMARK  Name = 
REMARK  5 active torsions:
REMARK  status: ('A' for Active; 'I' for Inactive)
REMARK    1  A    between atoms: C_1  and  C_2
REMARK    2  A    between atoms: C_2  and  C_3
REMARK    3  A    between atoms: C_3  and  C_4
REMARK    4  A    between atoms: C_5  and  O_6
REMARK    5  A    between atoms: C_10  and  O_11
REMARK                            x       y       z     vdW  Elec       q    Type
REMARK                         _______ _______ _______ _____ _____    ______ ____
ROOT
ATOM      1  C   UNL     1       3.582   2.906  19.310  0.00  0.00    +0.000 A 
ATOM      2  C   UNL     1       2.651   2.398  18.397  0.00  0.00    +0.000 A 
ATOM      3  C   UNL     1       2.521   2.938  17.121  0.00  0.00    +0.000 A 
ATOM      4  C   UNL     1       3.347   3.982  16.701  0.00  0.00    +0.000 A 
ATOM      5  C   UNL     1       4.361   4.463  17.535  0.00  0.00    +0.000 A 
ATOM      6  C   UNL     1       5.333   5.495  17.115  0.00  0.00    +0.000 A 
ATOM      7  C   UNL     1       6.328   5.777  17.945  0.00  0.00    +0.000 A 
ATOM      8  N   UNL     1       7.404   6.607  17.839  0.00  0.00    +0.000 NA
ATOM      9  N   UNL     1       8.109   6.500  18.891  0.00  0.00    +0.000 NA
ATOM     10  N   UNL     1       7.511   5.573  19.829  0.00  0.00    +0.000 NA
ATOM     11  C   UNL     1       6.442   5.162  19.227  0.00  0.00    +0.000 A 
ATOM     12  O   UNL     1       5.517   4.289  19.710  0.00  0.00    +0.000 OA
ATOM     13  C   UNL     1       4.468   3.900  18.834  0.00  0.00    +0.000 A 
ENDROOT
BRANCH   2  14
ATOM     14  O   UNL     1       1.815   1.355  18.674  0.00  0.00    +0.000 OA
ATOM     15  H   UNL     1       1.783   0.748  17.919  0.00  0.00    +0.000 HD
ENDBRANCH   2  14
BRANCH   6  16
ATOM     16  O   UNL     1       5.230   6.113  15.884  0.00  0.00    +0.000 OA
ATOM     17  H   UNL     1       4.315   6.114  15.571  0.00  0.00    +0.000 HD
ENDBRANCH   6  16
BRANCH   1  18
ATOM     18  C   UNL     1       3.626   2.428  20.748  0.00  0.00    +0.000 C 
BRANCH  18  20
ATOM     19  C   UNL     1       2.064   4.346  21.273  0.00  0.00    +0.000 C 
ATOM     20  C   UNL     1       2.415   2.894  21.554  0.00  0.00    +0.000 C 
ENDBRANCH  18  20
ENDBRANCH   1  18
TORSDOF 4
ENDMDL
MODEL 3
REMARK VINA RESULT:      -7.1      3.543      6.022
REMARK  Name = 
REMARK  5 active torsions:
REMARK  status: ('A' for Active; 'I' for Inactive)
REMARK    1  A    between atoms: C_1  and  C_2
REMARK    2  A    between atoms: C_2  and  C_3
REMARK    3  A    between atoms: C_3  and  C_4
REMARK    4  A    between atoms: C_5  and  O_6
REMARK    5  A    between atoms: C_10  and  O_11
REMARK                            x       y       z     vdW  Elec       q    Type
REMARK                         _______ _______ _______ _____ _____    ______ ____
ROOT
ATOM      1  C   UNL     1       5.635   4.729  16.040  0.00  0.00    +0.000 A 
ATOM      2  C   UNL     1       6.442   5.857  16.224  0.00  0.00    +0.000 A 
ATOM      3  C   UNL     1       6.049   6.898  17.059  0.00  0.00    +0.000 A 
ATOM      4  C   UNL     1       4.850   6.829  17.769  0.00  0.00    +0.000 A 
ATOM      5  C   UNL     1       4.050   5.685  17.701  0.00  0.00    +0.000 A 
ATOM      6  C   UNL     1       2.823   5.506  18.505  0.00  0.00    +0.000 A 
ATOM      7  C   UNL     1       2.219   4.326  18.453  0.00  0.00    +0.000 A 
ATOM      8  N   UNL     1       1.134   3.821  19.104  0.00  0.00    +0.000 NA
ATOM      9  N   UNL     1       0.968   2.612  18.747  0.00  0.00    +0.000 NA
ATOM     10  N   UNL     1       1.956   2.216  17.766  0.00  0.00    +0.000 NA
ATOM     11  C   UNL     1       2.688   3.272  17.613  0.00  0.00    +0.000 A 
ATOM     12  O   UNL     1       3.746   3.418  16.771  0.00  0.00    +0.000 OA
ATOM     13  C   UNL     1       4.470   4.639  16.838  0.00  0.00    +0.000 A 
ENDROOT
BRANCH   2  14
ATOM     14  O   UNL     1       7.654   6.024  15.618  0.00  0.00    +0.000 OA
ATOM     15  H   UNL     1       8.333   5.518  16.089  0.00  0.00    +0.000 HD
ENDBRANCH   2  14
BRANCH   6  16
ATOM     16  O   UNL     1       2.344   6.520  19.312  0.00  0.00    +0.000 OA
ATOM     17  H   UNL     1       2.921   7.295  19.275  0.00  0.00    +0.000 HD
ENDBRANCH   6  16
BRANCH   1  18
ATOM     18  C   UNL     1       5.980   3.663  15.019  0.00  0.00    +0.000 C 
BRANCH  18  20
ATOM     19  C   UNL     1       6.415   3.572  12.530  0.00  0.00    +0.000 C 
ATOM     20  C   UNL     1       5.451   3.998  13.626  0.00  0.00    +0.000 C 
ENDBRANCH  18  20
ENDBRANCH   1  18
TORSDOF 4
ENDMDL
MODEL 4
REMARK VINA RESULT:      -7.0      2.924      5.219
REMARK  Name = 
REMARK  5 active torsions:
REMARK  status: ('A' for Active; 'I' for Inactive)
REMARK    1  A    between atoms: C_1  and  C_2
REMARK    2  A    between atoms: C_2  and  C_3
REMARK    3  A    between atoms: C_3  and  C_4
REMARK    4  A    between atoms: C_5  and  O_6
REMARK    5  A    between atoms: C_10  and  O_11
REMARK                            x       y       z     vdW  Elec       q    Type
REMARK                         _______ _______ _______ _____ _____    ______ ____
ROOT
ATOM      1  C   UNL     1       4.607   5.171  17.108  0.00  0.00    +0.000 A 
ATOM      2  C   UNL     1       4.589   6.496  16.662  0.00  0.00    +0.000 A 
ATOM      3  C   UNL     1       3.810   7.462  17.292  0.00  0.00    +0.000 A 
ATOM      4  C   UNL     1       3.050   7.140  18.418  0.00  0.00    +0.000 A 
ATOM      5  C   UNL     1       3.105   5.856  18.968  0.00  0.00    +0.000 A 
ATOM      6  C   UNL     1       2.406   5.479  20.214  0.00  0.00    +0.000 A 
ATOM      7  C   UNL     1       2.638   4.271  20.709  0.00  0.00    +0.000 A 
ATOM      8  N   UNL     1       2.217   3.648  21.846  0.00  0.00    +0.000 NA
ATOM      9  N   UNL     1       2.751   2.496  21.903  0.00  0.00    +0.000 NA
ATOM     10  N   UNL     1       3.577   2.244  20.741  0.00  0.00    +0.000 NA
ATOM     11  C   UNL     1       3.482   3.331  20.046  0.00  0.00    +0.000 A 
ATOM     12  O   UNL     1       4.063   3.584  18.842  0.00  0.00    +0.000 OA
ATOM     13  C   UNL     1       3.902   4.889  18.302  0.00  0.00    +0.000 A 
ENDROOT
BRANCH   2  14
ATOM     14  O   UNL     1       5.319   6.943  15.598  0.00  0.00    +0.000 OA
ATOM     15  H   UNL     1       6.254   6.724  15.722  0.00  0.00    +0.000 HD
ENDBRANCH   2  14
BRANCH   6  16
ATOM     16  O   UNL     1       1.572   6.370  20.862  0.00  0.00    +0.000 OA
ATOM     17  H   UNL     1       0.955   5.907  21.446  0.00  0.00    +0.000 HD
ENDBRANCH   6  16
BRANCH   1  18
ATOM     18  C   UNL     1       5.329   4.083  16.339  0.00  0.00    +0.000 C 
BRANCH  18  20
ATOM     19  C   UNL     1       7.433   4.607  17.642  0.00  0.00    +0.000 C 
ATOM     20  C   UNL     1       6.837   4.320  16.273  0.00  0.00    +0.000 C 
ENDBRANCH  18  20
ENDBRANCH   1  18
TORSDOF 4
ENDMDL
MODEL 5
REMARK VINA RESULT:      -7.0      3.330      5.848
REMARK  Name = 
REMARK  5 active torsions:
REMARK  status: ('A' for Active; 'I' for Inactive)
REMARK    1  A    between atoms: C_1  and  C_2
REMARK    2  A    between atoms: C_2  and  C_3
REMARK    3  A    between atoms: C_3  and  C_4
REMARK    4  A    between atoms: C_5  and  O_6
REMARK    5  A    between atoms: C_10  and  O_11
REMARK                            x       y       z     vdW  Elec       q    Type
REMARK                         _______ _______ _______ _____ _____    ______ ____
ROOT
ATOM      1  C   UNL     1       5.550   4.063  16.929  0.00  0.00    +0.000 A 
ATOM      2  C   UNL     1       6.655   4.753  17.439  0.00  0.00    +0.000 A 
ATOM      3  C   UNL     1       6.567   5.492  18.615  0.00  0.00    +0.000 A 
ATOM      4  C   UNL     1       5.377   5.534  19.343  0.00  0.00    +0.000 A 
ATOM      5  C   UNL     1       4.269   4.784  18.935  0.00  0.00    +0.000 A 
ATOM      6  C   UNL     1       3.015   4.704  19.714  0.00  0.00    +0.000 A 
ATOM      7  C   UNL     1       2.083   3.859  19.294  0.00  0.00    +0.000 A 
ATOM      8  N   UNL     1       0.871   3.503  19.804  0.00  0.00    +0.000 NA
ATOM      9  N   UNL     1       0.358   2.612  19.057  0.00  0.00    +0.000 NA
ATOM     10  N   UNL     1       1.216   2.319  17.928  0.00  0.00    +0.000 NA
ATOM     11  C   UNL     1       2.240   3.090  18.103  0.00  0.00    +0.000 A 
ATOM     12  O   UNL     1       3.324   3.204  17.290  0.00  0.00    +0.000 OA
ATOM     13  C   UNL     1       4.383   4.045  17.729  0.00  0.00    +0.000 A 
ENDROOT
BRANCH   2  14
ATOM     14  O   UNL     1       7.883   4.757  16.841  0.00  0.00    +0.000 OA
ATOM     15  H   UNL     1       8.494   4.191  17.337  0.00  0.00    +0.000 HD
ENDBRANCH   2  14
BRANCH   6  16
ATOM     16  O   UNL     1       2.838   5.454  20.861  0.00  0.00    +0.000 OA
ATOM     17  H   UNL     1       2.025   5.976  20.813  0.00  0.00    +0.000 HD
ENDBRANCH   6  16
BRANCH   1  18
ATOM     18  C   UNL     1       5.593   3.383  15.575  0.00  0.00    +0.000 C 
BRANCH  18  20
ATOM     19  C   UNL     1       6.017   3.728  13.106  0.00  0.00    +0.000 C 
ATOM     20  C   UNL     1       5.630   4.384  14.422  0.00  0.00    +0.000 C 
ENDBRANCH  18  20
ENDBRANCH   1  18
TORSDOF 4
ENDMDL
MODEL 6
REMARK VINA RESULT:      -6.9      2.545      3.269
REMARK  Name = 
REMARK  5 active torsions:
REMARK  status: ('A' for Active; 'I' for Inactive)
REMARK    1  A    between atoms: C_1  and  C_2
REMARK    2  A    between atoms: C_2  and  C_3
REMARK    3  A    between atoms: C_3  and  C_4
REMARK    4  A    between atoms: C_5  and  O_6
REMARK    5  A    between atoms: C_10  and  O_11
REMARK                            x       y       z     vdW  Elec       q    Type
REMARK                         _______ _______ _______ _____ _____    ______ ____
ROOT
ATOM      1  C   UNL     1       2.963   6.994  18.585  0.00  0.00    +0.000 A 
ATOM      2  C   UNL     1       2.364   6.563  19.774  0.00  0.00    +0.000 A 
ATOM      3  C   UNL     1       2.349   5.217  20.129  0.00  0.00    +0.000 A 
ATOM      4  C   UNL     1       2.968   4.261  19.322  0.00  0.00    +0.000 A 
ATOM      5  C   UNL     1       3.667   4.645  18.175  0.00  0.00    +0.000 A 
ATOM      6  C   UNL     1       4.428   3.697  17.334  0.00  0.00    +0.000 A 
ATOM      7  C   UNL     1       5.157   4.197  16.346  0.00  0.00    +0.000 A 
ATOM      8  N   UNL     1       6.006   3.622  15.449  0.00  0.00    +0.000 NA
ATOM      9  N   UNL     1       6.509   4.532  14.719  0.00  0.00    +0.000 NA
ATOM     10  N   UNL     1       5.984   5.835  15.071  0.00  0.00    +0.000 NA
ATOM     11  C   UNL     1       5.174   5.593  16.050  0.00  0.00    +0.000 A 
ATOM     12  O   UNL     1       4.408   6.497  16.719  0.00  0.00    +0.000 OA
ATOM     13  C   UNL     1       3.661   6.022  17.832  0.00  0.00    +0.000 A 
ENDROOT
BRANCH   2  14
ATOM     14  O   UNL     1       1.762   7.404  20.664  0.00  0.00    +0.000 OA
ATOM     15  H   UNL     1       1.598   8.264  20.247  0.00  0.00    +0.000 HD
ENDBRANCH   2  14
BRANCH   6  16
ATOM     16  O   UNL     1       4.411   2.340  17.596  0.00  0.00    +0.000 OA
ATOM     17  H   UNL     1       3.511   1.989  17.553  0.00  0.00    +0.000 HD
ENDBRANCH   6  16
BRANCH   1  18
ATOM     18  C   UNL     1       2.852   8.431  18.116  0.00  0.00    +0.000 C 
BRANCH  18  20
ATOM     19  C   UNL     1       0.883   9.994  18.392  0.00  0.00    +0.000 C 
ATOM     20  C   UNL     1       1.439   8.787  17.655  0.00  0.00    +0.000 C 
ENDBRANCH  18  20
ENDBRANCH   1  18
TORSDOF 4
ENDMDL
MODEL 7
REMARK VINA RESULT:      -6.9      1.830      2.023
REMARK  Name = 
REMARK  5 active torsions:
REMARK  status: ('A' for Active; 'I' for Inactive)
REMARK    1  A    between atoms: C_1  and  C_2
REMARK    2  A    between atoms: C_2  and  C_3
REMARK    3  A    between atoms: C_3  and  C_4
REMARK    4  A    between atoms: C_5  and  O_6
REMARK    5  A    between atoms: C_10  and  O_11
REMARK                            x       y       z     vdW  Elec       q    Type
REMARK                         _______ _______ _______ _____ _____    ______ ____
ROOT
ATOM      1  C   UNL     1       2.746   5.553  18.694  0.00  0.00    +0.000 A 
ATOM      2  C   UNL     1       2.003   4.392  18.930  0.00  0.00    +0.000 A 
ATOM      3  C   UNL     1       2.319   3.191  18.301  0.00  0.00    +0.000 A 
ATOM      4  C   UNL     1       3.416   3.104  17.443  0.00  0.00    +0.000 A 
ATOM      5  C   UNL     1       4.253   4.206  17.247  0.00  0.00    +0.000 A 
ATOM      6  C   UNL     1       5.486   4.152  16.433  0.00  0.00    +0.000 A 
ATOM      7  C   UNL     1       6.267   5.223  16.427  0.00  0.00    +0.000 A 
ATOM      8  N   UNL     1       7.476   5.475  15.850  0.00  0.00    +0.000 NA
ATOM      9  N   UNL     1       7.848   6.647  16.171  0.00  0.00    +0.000 NA
ATOM     10  N   UNL     1       6.854   7.303  16.996  0.00  0.00    +0.000 NA
ATOM     11  C   UNL     1       5.920   6.418  17.125  0.00  0.00    +0.000 A 
ATOM     12  O   UNL     1       4.746   6.562  17.799  0.00  0.00    +0.000 OA
ATOM     13  C   UNL     1       3.905   5.420  17.894  0.00  0.00    +0.000 A 
ENDROOT
BRANCH   2  14
ATOM     14  O   UNL     1       0.933   4.339  19.776  0.00  0.00    +0.000 OA
ATOM     15  H   UNL     1       0.974   5.074  20.407  0.00  0.00    +0.000 HD
ENDBRANCH   2  14
BRANCH   6  16
ATOM     16  O   UNL     1       5.832   3.009  15.736  0.00  0.00    +0.000 OA
ATOM     17  H   UNL     1       5.220   2.850  15.004  0.00  0.00    +0.000 HD
ENDBRANCH   6  16
BRANCH   1  18
ATOM     18  C   UNL     1       2.319   6.896  19.253  0.00  0.00    +0.000 C 
BRANCH  18  20
ATOM     19  C   UNL     1       1.450   9.208  18.711  0.00  0.00    +0.000 C 
ATOM     20  C   UNL     1       2.037   7.921  18.155  0.00  0.00    +0.000 C 
ENDBRANCH  18  20
ENDBRANCH   1  18
TORSDOF 4
ENDMDL
MODEL 8
REMARK VINA RESULT:      -6.8      3.290      4.474
REMARK  Name = 
REMARK  5 active torsions:
REMARK  status: ('A' for Active; 'I' for Inactive)
REMARK    1  A    between atoms: C_1  and  C_2
REMARK    2  A    between atoms: C_2  and  C_3
REMARK    3  A    between atoms: C_3  and  C_4
REMARK    4  A    between atoms: C_5  and  O_6
REMARK    5  A    between atoms: C_10  and  O_11
REMARK                            x       y       z     vdW  Elec       q    Type
REMARK                         _______ _______ _______ _____ _____    ______ ____
ROOT
ATOM      1  C   UNL     1       4.049   6.259  17.407  0.00  0.00    +0.000 A 
ATOM      2  C   UNL     1       4.828   6.021  16.269  0.00  0.00    +0.000 A 
ATOM      3  C   UNL     1       5.259   4.739  15.943  0.00  0.00    +0.000 A 
ATOM      4  C   UNL     1       4.892   3.643  16.726  0.00  0.00    +0.000 A 
ATOM      5  C   UNL     1       4.035   3.806  17.818  0.00  0.00    +0.000 A 
ATOM      6  C   UNL     1       3.527   2.677  18.625  0.00  0.00    +0.000 A 
ATOM      7  C   UNL     1       2.618   2.942  19.553  0.00  0.00    +0.000 A 
ATOM      8  N   UNL     1       1.914   2.144  20.404  0.00  0.00    +0.000 NA
ATOM      9  N   UNL     1       1.119   2.867  21.081  0.00  0.00    +0.000 NA
ATOM     10  N   UNL     1       1.264   4.266  20.738  0.00  0.00    +0.000 NA
ATOM     11  C   UNL     1       2.175   4.272  19.820  0.00  0.00    +0.000 A 
ATOM     12  O   UNL     1       2.687   5.360  19.184  0.00  0.00    +0.000 OA
ATOM     13  C   UNL     1       3.615   5.125  18.133  0.00  0.00    +0.000 A 
ENDROOT
BRANCH   2  14
ATOM     14  O   UNL     1       5.218   7.002  15.404  0.00  0.00    +0.000 OA
ATOM     15  H   UNL     1       5.034   6.731  14.492  0.00  0.00    +0.000 HD
ENDBRANCH   2  14
BRANCH   6  16
ATOM     16  O   UNL     1       3.957   1.384  18.393  0.00  0.00    +0.000 OA
ATOM     17  H   UNL     1       4.293   1.286  17.491  0.00  0.00    +0.000 HD
ENDBRANCH   6  16
BRANCH   1  18
ATOM     18  C   UNL     1       3.703   7.665  17.854  0.00  0.00    +0.000 C 
BRANCH  18  20
ATOM     19  C   UNL     1       1.937   9.474  17.912  0.00  0.00    +0.000 C 
ATOM     20  C   UNL     1       2.249   8.028  17.560  0.00  0.00    +0.000 C 
ENDBRANCH  18  20
ENDBRANCH   1  18
TORSDOF 4
ENDMDL
MODEL 9
REMARK VINA RESULT:      -6.8      2.945      4.996
REMARK  Name = 
REMARK  5 active torsions:
REMARK  status: ('A' for Active; 'I' for Inactive)
REMARK    1  A    between atoms: C_1  and  C_2
REMARK    2  A    between atoms: C_2  and  C_3
REMARK    3  A    between atoms: C_3  and  C_4
REMARK    4  A    between atoms: C_5  and  O_6
REMARK    5  A    between atoms: C_10  and  O_11
REMARK                            x       y       z     vdW  Elec       q    Type
REMARK                         _______ _______ _______ _____ _____    ______ ____
ROOT
ATOM      1  C   UNL     1       5.892   5.766  16.961  0.00  0.00    +0.000 A 
ATOM      2  C   UNL     1       6.417   5.142  15.824  0.00  0.00    +0.000 A 
ATOM      3  C   UNL     1       5.986   3.879  15.429  0.00  0.00    +0.000 A 
ATOM      4  C   UNL     1       4.985   3.213  16.138  0.00  0.00    +0.000 A 
ATOM      5  C   UNL     1       4.354   3.830  17.222  0.00  0.00    +0.000 A 
ATOM      6  C   UNL     1       3.220   3.224  17.951  0.00  0.00    +0.000 A 
ATOM      7  C   UNL     1       2.619   3.958  18.877  0.00  0.00    +0.000 A 
ATOM      8  N   UNL     1       1.532   3.732  19.666  0.00  0.00    +0.000 NA
ATOM      9  N   UNL     1       1.315   4.766  20.372  0.00  0.00    +0.000 NA
ATOM     10  N   UNL     1       2.306   5.791  20.117  0.00  0.00    +0.000 NA
ATOM     11  C   UNL     1       3.073   5.268  19.216  0.00  0.00    +0.000 A 
ATOM     12  O   UNL     1       4.177   5.832  18.656  0.00  0.00    +0.000 OA
ATOM     13  C   UNL     1       4.817   5.115  17.609  0.00  0.00    +0.000 A 
ENDROOT
BRANCH   2  14
ATOM     14  O   UNL     1       7.371   5.706  15.026  0.00  0.00    +0.000 OA
ATOM     15  H   UNL     1       7.413   5.237  14.179  0.00  0.00    +0.000 HD
ENDBRANCH   2  14
BRANCH   6  16
ATOM     16  O   UNL     1       2.776   1.950  17.648  0.00  0.00    +0.000 OA
ATOM     17  H   UNL     1       2.814   1.375  18.425  0.00  0.00    +0.000 HD
ENDBRANCH   6  16
BRANCH   1  18
ATOM     18  C   UNL     1       6.461   7.069  17.485  0.00  0.00    +0.000 C 
BRANCH  18  20
ATOM     19  C   UNL     1       7.781   5.803  19.232  0.00  0.00    +0.000 C 
ATOM     20  C   UNL     1       7.818   6.883  18.162  0.00  0.00    +0.000 C 
ENDBRANCH  18  20
ENDBRANCH   1  18
TORSDOF 4
ENDMDL
