MODEL 1
REMARK VINA RESULT:      -9.3      0.000      0.000
REMARK  Name = 
REMARK  6 active torsions:
REMARK  status: ('A' for Active; 'I' for Inactive)
REMARK    1  A    between atoms: C_1  and  C_2
REMARK    2  A    between atoms: C_2  and  O_3
REMARK    3  A    between atoms: C_5  and  C_6
REMARK    4  A    between atoms: C_8  and  C_9
REMARK    5  A    between atoms: C_12  and  C_13
REMARK    6  A    between atoms: C_13  and  C_16
REMARK                            x       y       z     vdW  Elec       q    Type
REMARK                         _______ _______ _______ _____ _____    ______ ____
ROOT
ATOM      1  C   UNL     1      -1.247  12.676  20.323  0.00  0.00    +0.000 A 
ATOM      2  N   UNL     1      -0.990  11.385  20.266  0.00  0.00    +0.000 NA
ATOM      3  C   UNL     1       0.216  11.268  19.583  0.00  0.00    +0.000 A 
ATOM      4  C   UNL     1       0.660  12.519  19.176  0.00  0.00    +0.000 A 
ATOM      5  C   UNL     1       1.778  13.065  18.425  0.00  0.00    +0.000 A 
ATOM      6  N   UNL     1       2.746  12.336  17.795  0.00  0.00    +0.000 N 
ATOM      7  N   UNL     1       1.916  14.366  18.290  0.00  0.00    +0.000 NA
ATOM      8  C   UNL     1       0.980  15.201  18.854  0.00  0.00    +0.000 A 
ATOM      9  C   UNL     1      -0.094  14.768  19.526  0.00  0.00    +0.000 A 
ATOM     10  N   UNL     1      -0.258  13.403  19.687  0.00  0.00    +0.000 N 
ATOM     11  H   UNL     1       2.447  11.463  17.379  0.00  0.00    +0.000 HD
ATOM     12  H   UNL     1       3.305  12.908  17.172  0.00  0.00    +0.000 HD
ENDROOT
BRANCH   3  13
ATOM     13  C   UNL     1       0.861   9.979  19.354  0.00  0.00    +0.000 A 
ATOM     14  C   UNL     1       1.208   9.573  18.063  0.00  0.00    +0.000 A 
ATOM     15  C   UNL     1       1.881   8.354  17.853  0.00  0.00    +0.000 A 
ATOM     16  C   UNL     1       2.242   7.536  18.937  0.00  0.00    +0.000 A 
ATOM     17  C   UNL     1       1.875   7.939  20.225  0.00  0.00    +0.000 A 
ATOM     18  C   UNL     1       1.142   9.111  20.416  0.00  0.00    +0.000 A 
BRANCH  16  19
ATOM     19  C   UNL     1       3.004   6.231  18.733  0.00  0.00    +0.000 C 
ATOM     20  F   UNL     1       3.446   6.128  17.437  0.00  0.00    +0.000 F 
ATOM     21  F   UNL     1       4.167   6.248  19.465  0.00  0.00    +0.000 F 
BRANCH  19  22
ATOM     22  C   UNL     1       2.161   5.014  19.105  0.00  0.00    +0.000 A 
ATOM     23  C   UNL     1       1.641   4.175  18.106  0.00  0.00    +0.000 A 
ATOM     24  C   UNL     1       0.936   3.019  18.446  0.00  0.00    +0.000 A 
ATOM     25  C   UNL     1       0.739   2.688  19.785  0.00  0.00    +0.000 A 
ATOM     26  C   UNL     1       1.224   3.525  20.788  0.00  0.00    +0.000 A 
ATOM     27  C   UNL     1       1.925   4.685  20.451  0.00  0.00    +0.000 A 
ENDBRANCH  19  22
ENDBRANCH  16  19
ENDBRANCH   3  13
BRANCH   1  31
ATOM     28  C   UNL     1      -4.907  14.252  22.412  0.00  0.00    +0.000 C 
ATOM     29  C   UNL     1      -4.445  12.953  21.759  0.00  0.00    +0.000 C 
ATOM     30  C   UNL     1      -3.031  12.462  22.187  0.00  0.00    +0.000 C 
ATOM     31  C   UNL     1      -2.451  13.308  21.015  0.00  0.00    +0.000 C 
ATOM     32  C   UNL     1      -3.830  13.097  20.335  0.00  0.00    +0.000 C 
BRANCH  29  33
ATOM     33  O   UNL     1      -5.504  11.986  21.886  0.00  0.00    +0.000 OA
ATOM     34  H   UNL     1      -6.260  12.474  22.260  0.00  0.00    +0.000 HD
ENDBRANCH  29  33
ENDBRANCH   1  31
TORSDOF 5
ENDMDL
MODEL 2
REMARK VINA RESULT:      -9.1      0.840      1.259
REMARK  Name = 
REMARK  6 active torsions:
REMARK  status: ('A' for Active; 'I' for Inactive)
REMARK    1  A    between atoms: C_1  and  C_2
REMARK    2  A    between atoms: C_2  and  O_3
REMARK    3  A    between atoms: C_5  and  C_6
REMARK    4  A    between atoms: C_8  and  C_9
REMARK    5  A    between atoms: C_12  and  C_13
REMARK    6  A    between atoms: C_13  and  C_16
REMARK                            x       y       z     vdW  Elec       q    Type
REMARK                         _______ _______ _______ _____ _____    ______ ____
ROOT
ATOM      1  C   UNL     1      -0.792  12.533  20.895  0.00  0.00    +0.000 A 
ATOM      2  N   UNL     1      -0.569  11.238  20.803  0.00  0.00    +0.000 NA
ATOM      3  C   UNL     1       0.497  11.098  19.921  0.00  0.00    +0.000 A 
ATOM      4  C   UNL     1       0.884  12.339  19.435  0.00  0.00    +0.000 A 
ATOM      5  C   UNL     1       1.862  12.864  18.498  0.00  0.00    +0.000 A 
ATOM      6  N   UNL     1       2.694  12.117  17.714  0.00  0.00    +0.000 N 
ATOM      7  N   UNL     1       1.996  14.162  18.333  0.00  0.00    +0.000 NA
ATOM      8  C   UNL     1       1.187  15.014  19.046  0.00  0.00    +0.000 A 
ATOM      9  C   UNL     1       0.238  14.602  19.897  0.00  0.00    +0.000 A 
ATOM     10  N   UNL     1       0.083  13.240  20.093  0.00  0.00    +0.000 N 
ATOM     11  H   UNL     1       2.313  11.247  17.362  0.00  0.00    +0.000 HD
ATOM     12  H   UNL     1       3.146  12.676  17.000  0.00  0.00    +0.000 HD
ENDROOT
BRANCH   3  13
ATOM     13  C   UNL     1       1.071   9.797  19.592  0.00  0.00    +0.000 A 
ATOM     14  C   UNL     1       1.466   9.500  18.285  0.00  0.00    +0.000 A 
ATOM     15  C   UNL     1       2.072   8.266  17.982  0.00  0.00    +0.000 A 
ATOM     16  C   UNL     1       2.317   7.320  18.992  0.00  0.00    +0.000 A 
ATOM     17  C   UNL     1       1.903   7.614  20.295  0.00  0.00    +0.000 A 
ATOM     18  C   UNL     1       1.235   8.809  20.570  0.00  0.00    +0.000 A 
BRANCH  16  19
ATOM     19  C   UNL     1       3.006   5.993  18.692  0.00  0.00    +0.000 C 
ATOM     20  F   UNL     1       2.989   5.735  17.343  0.00  0.00    +0.000 F 
ATOM     21  F   UNL     1       4.346   6.084  18.982  0.00  0.00    +0.000 F 
BRANCH  19  22
ATOM     22  C   UNL     1       2.374   4.835  19.461  0.00  0.00    +0.000 A 
ATOM     23  C   UNL     1       2.725   4.594  20.799  0.00  0.00    +0.000 A 
ATOM     24  C   UNL     1       2.092   3.585  21.529  0.00  0.00    +0.000 A 
ATOM     25  C   UNL     1       1.106   2.804  20.930  0.00  0.00    +0.000 A 
ATOM     26  C   UNL     1       0.767   3.012  19.595  0.00  0.00    +0.000 A 
ATOM     27  C   UNL     1       1.402   4.017  18.862  0.00  0.00    +0.000 A 
ENDBRANCH  19  22
ENDBRANCH  16  19
ENDBRANCH   3  13
BRANCH   1  31
ATOM     28  C   UNL     1      -3.918  14.197  23.671  0.00  0.00    +0.000 C 
ATOM     29  C   UNL     1      -3.367  12.831  23.271  0.00  0.00    +0.000 C 
ATOM     30  C   UNL     1      -1.815  12.717  23.267  0.00  0.00    +0.000 C 
ATOM     31  C   UNL     1      -1.846  13.187  21.783  0.00  0.00    +0.000 C 
ATOM     32  C   UNL     1      -3.269  12.568  21.738  0.00  0.00    +0.000 C 
BRANCH  29  33
ATOM     33  O   UNL     1      -4.063  11.827  24.032  0.00  0.00    +0.000 OA
ATOM     34  H   UNL     1      -4.729  12.309  24.555  0.00  0.00    +0.000 HD
ENDBRANCH  29  33
ENDBRANCH   1  31
TORSDOF 5
ENDMDL
MODEL 3
REMARK VINA RESULT:      -8.9      3.019      3.878
REMARK  Name = 
REMARK  6 active torsions:
REMARK  status: ('A' for Active; 'I' for Inactive)
REMARK    1  A    between atoms: C_1  and  C_2
REMARK    2  A    between atoms: C_2  and  O_3
REMARK    3  A    between atoms: C_5  and  C_6
REMARK    4  A    between atoms: C_8  and  C_9
REMARK    5  A    between atoms: C_12  and  C_13
REMARK    6  A    between atoms: C_13  and  C_16
REMARK                            x       y       z     vdW  Elec       q    Type
REMARK                         _______ _______ _______ _____ _____    ______ ____
ROOT
ATOM      1  C   UNL     1      -1.257  10.437  18.971  0.00  0.00    +0.000 A 
ATOM      2  N   UNL     1      -0.396   9.660  18.344  0.00  0.00    +0.000 NA
ATOM      3  C   UNL     1       0.538   9.280  19.301  0.00  0.00    +0.000 A 
ATOM      4  C   UNL     1       0.256   9.888  20.516  0.00  0.00    +0.000 A 
ATOM      5  C   UNL     1       0.834   9.939  21.848  0.00  0.00    +0.000 A 
ATOM      6  N   UNL     1       2.012   9.360  22.227  0.00  0.00    +0.000 N 
ATOM      7  N   UNL     1       0.227  10.595  22.813  0.00  0.00    +0.000 NA
ATOM      8  C   UNL     1      -0.952  11.246  22.540  0.00  0.00    +0.000 A 
ATOM      9  C   UNL     1      -1.523  11.276  21.330  0.00  0.00    +0.000 A 
ATOM     10  N   UNL     1      -0.907  10.586  20.299  0.00  0.00    +0.000 N 
ATOM     11  H   UNL     1       2.749   9.354  21.532  0.00  0.00    +0.000 HD
ATOM     12  H   UNL     1       2.319   9.687  23.136  0.00  0.00    +0.000 HD
ENDROOT
BRANCH   3  13
ATOM     13  C   UNL     1       1.640   8.371  18.998  0.00  0.00    +0.000 A 
ATOM     14  C   UNL     1       1.893   7.260  19.807  0.00  0.00    +0.000 A 
ATOM     15  C   UNL     1       2.921   6.355  19.479  0.00  0.00    +0.000 A 
ATOM     16  C   UNL     1       3.693   6.535  18.319  0.00  0.00    +0.000 A 
ATOM     17  C   UNL     1       3.447   7.658  17.523  0.00  0.00    +0.000 A 
ATOM     18  C   UNL     1       2.476   8.589  17.898  0.00  0.00    +0.000 A 
BRANCH  16  19
ATOM     19  C   UNL     1       4.785   5.546  17.926  0.00  0.00    +0.000 C 
ATOM     20  F   UNL     1       5.144   5.722  16.612  0.00  0.00    +0.000 F 
ATOM     21  F   UNL     1       5.942   5.827  18.612  0.00  0.00    +0.000 F 
BRANCH  19  22
ATOM     22  C   UNL     1       4.361   4.100  18.171  0.00  0.00    +0.000 A 
ATOM     23  C   UNL     1       4.754   3.432  19.342  0.00  0.00    +0.000 A 
ATOM     24  C   UNL     1       4.303   2.136  19.605  0.00  0.00    +0.000 A 
ATOM     25  C   UNL     1       3.460   1.492  18.702  0.00  0.00    +0.000 A 
ATOM     26  C   UNL     1       3.085   2.132  17.521  0.00  0.00    +0.000 A 
ATOM     27  C   UNL     1       3.538   3.425  17.253  0.00  0.00    +0.000 A 
ENDBRANCH  19  22
ENDBRANCH  16  19
ENDBRANCH   3  13
BRANCH   1  31
ATOM     28  C   UNL     1      -4.921  12.063  16.929  0.00  0.00    +0.000 C 
ATOM     29  C   UNL     1      -3.851  11.008  16.666  0.00  0.00    +0.000 C 
ATOM     30  C   UNL     1      -3.561  10.047  17.856  0.00  0.00    +0.000 C 
ATOM     31  C   UNL     1      -2.494  11.071  18.343  0.00  0.00    +0.000 C 
ATOM     32  C   UNL     1      -2.379  11.484  16.851  0.00  0.00    +0.000 C 
BRANCH  29  33
ATOM     33  O   UNL     1      -4.148  10.372  15.410  0.00  0.00    +0.000 OA
ATOM     34  H   UNL     1      -4.565   9.522  15.639  0.00  0.00    +0.000 HD
ENDBRANCH  29  33
ENDBRANCH   1  31
TORSDOF 5
ENDMDL
MODEL 4
REMARK VINA RESULT:      -8.9      1.746      2.771
REMARK  Name = 
REMARK  6 active torsions:
REMARK  status: ('A' for Active; 'I' for Inactive)
REMARK    1  A    between atoms: C_1  and  C_2
REMARK    2  A    between atoms: C_2  and  O_3
REMARK    3  A    between atoms: C_5  and  C_6
REMARK    4  A    between atoms: C_8  and  C_9
REMARK    5  A    between atoms: C_12  and  C_13
REMARK    6  A    between atoms: C_13  and  C_16
REMARK                            x       y       z     vdW  Elec       q    Type
REMARK                         _______ _______ _______ _____ _____    ______ ____
ROOT
ATOM      1  C   UNL     1      -0.487  12.227  21.216  0.00  0.00    +0.000 A 
ATOM      2  N   UNL     1      -0.281  10.933  21.080  0.00  0.00    +0.000 NA
ATOM      3  C   UNL     1       0.677  10.805  20.080  0.00  0.00    +0.000 A 
ATOM      4  C   UNL     1       1.010  12.053  19.572  0.00  0.00    +0.000 A 
ATOM      5  C   UNL     1       1.877  12.590  18.537  0.00  0.00    +0.000 A 
ATOM      6  N   UNL     1       2.612  11.853  17.652  0.00  0.00    +0.000 N 
ATOM      7  N   UNL     1       1.995  13.890  18.377  0.00  0.00    +0.000 NA
ATOM      8  C   UNL     1       1.275  14.733  19.190  0.00  0.00    +0.000 A 
ATOM      9  C   UNL     1       0.429  14.310  20.138  0.00  0.00    +0.000 A 
ATOM     10  N   UNL     1       0.292  12.945  20.330  0.00  0.00    +0.000 N 
ATOM     11  H   UNL     1       2.190  10.990  17.333  0.00  0.00    +0.000 HD
ATOM     12  H   UNL     1       2.980  12.423  16.899  0.00  0.00    +0.000 HD
ENDROOT
BRANCH   3  13
ATOM     13  C   UNL     1       1.206   9.508  19.669  0.00  0.00    +0.000 A 
ATOM     14  C   UNL     1       1.478   9.241  18.324  0.00  0.00    +0.000 A 
ATOM     15  C   UNL     1       2.041   8.011  17.938  0.00  0.00    +0.000 A 
ATOM     16  C   UNL     1       2.367   7.037  18.897  0.00  0.00    +0.000 A 
ATOM     17  C   UNL     1       2.075   7.302  20.239  0.00  0.00    +0.000 A 
ATOM     18  C   UNL     1       1.448   8.495  20.603  0.00  0.00    +0.000 A 
BRANCH  16  19
ATOM     19  C   UNL     1       3.012   5.713  18.503  0.00  0.00    +0.000 C 
ATOM     20  F   UNL     1       2.747   4.749  19.445  0.00  0.00    +0.000 F 
ATOM     21  F   UNL     1       2.416   5.219  17.368  0.00  0.00    +0.000 F 
BRANCH  19  22
ATOM     22  C   UNL     1       4.518   5.851  18.294  0.00  0.00    +0.000 A 
ATOM     23  C   UNL     1       5.418   5.392  19.270  0.00  0.00    +0.000 A 
ATOM     24  C   UNL     1       6.796   5.447  19.047  0.00  0.00    +0.000 A 
ATOM     25  C   UNL     1       7.290   5.963  17.851  0.00  0.00    +0.000 A 
ATOM     26  C   UNL     1       6.411   6.449  16.885  0.00  0.00    +0.000 A 
ATOM     27  C   UNL     1       5.033   6.400  17.107  0.00  0.00    +0.000 A 
ENDBRANCH  19  22
ENDBRANCH  16  19
ENDBRANCH   3  13
BRANCH   1  31
ATOM     28  C   UNL     1      -3.464  13.881  24.157  0.00  0.00    +0.000 C 
ATOM     29  C   UNL     1      -3.429  12.840  23.043  0.00  0.00    +0.000 C 
ATOM     30  C   UNL     1      -2.228  11.851  23.096  0.00  0.00    +0.000 C 
ATOM     31  C   UNL     1      -1.432  12.869  22.228  0.00  0.00    +0.000 C 
ATOM     32  C   UNL     1      -2.817  13.320  21.693  0.00  0.00    +0.000 C 
BRANCH  29  33
ATOM     33  O   UNL     1      -4.732  12.233  22.956  0.00  0.00    +0.000 OA
ATOM     34  H   UNL     1      -4.932  11.913  23.854  0.00  0.00    +0.000 HD
ENDBRANCH  29  33
ENDBRANCH   1  31
TORSDOF 5
ENDMDL
MODEL 5
REMARK VINA RESULT:      -8.9      1.646      2.644
REMARK  Name = 
REMARK  6 active torsions:
REMARK  status: ('A' for Active; 'I' for Inactive)
REMARK    1  A    between atoms: C_1  and  C_2
REMARK    2  A    between atoms: C_2  and  O_3
REMARK    3  A    between atoms: C_5  and  C_6
REMARK    4  A    between atoms: C_8  and  C_9
REMARK    5  A    between atoms: C_12  and  C_13
REMARK    6  A    between atoms: C_13  and  C_16
REMARK                            x       y       z     vdW  Elec       q    Type
REMARK                         _______ _______ _______ _____ _____    ______ ____
ROOT
ATOM      1  C   UNL     1      -0.770  12.512  20.687  0.00  0.00    +0.000 A 
ATOM      2  N   UNL     1      -0.589  11.211  20.596  0.00  0.00    +0.000 NA
ATOM      3  C   UNL     1       0.505  11.038  19.756  0.00  0.00    +0.000 A 
ATOM      4  C   UNL     1       0.953  12.267  19.292  0.00  0.00    +0.000 A 
ATOM      5  C   UNL     1       1.984  12.762  18.397  0.00  0.00    +0.000 A 
ATOM      6  N   UNL     1       2.820  11.990  17.641  0.00  0.00    +0.000 N 
ATOM      7  N   UNL     1       2.169  14.056  18.245  0.00  0.00    +0.000 NA
ATOM      8  C   UNL     1       1.362  14.932  18.931  0.00  0.00    +0.000 A 
ATOM      9  C   UNL     1       0.368  14.549  19.742  0.00  0.00    +0.000 A 
ATOM     10  N   UNL     1       0.159  13.192  19.924  0.00  0.00    +0.000 N 
ATOM     11  H   UNL     1       2.423  11.136  17.270  0.00  0.00    +0.000 HD
ATOM     12  H   UNL     1       3.318  12.537  16.948  0.00  0.00    +0.000 HD
ENDROOT
BRANCH   3  13
ATOM     13  C   UNL     1       1.046   9.720  19.441  0.00  0.00    +0.000 A 
ATOM     14  C   UNL     1       1.292   9.345  18.118  0.00  0.00    +0.000 A 
ATOM     15  C   UNL     1       1.867   8.094  17.822  0.00  0.00    +0.000 A 
ATOM     16  C   UNL     1       2.232   7.210  18.852  0.00  0.00    +0.000 A 
ATOM     17  C   UNL     1       1.967   7.583  20.173  0.00  0.00    +0.000 A 
ATOM     18  C   UNL     1       1.328   8.792  20.451  0.00  0.00    +0.000 A 
BRANCH  16  19
ATOM     19  C   UNL     1       2.891   5.867  18.555  0.00  0.00    +0.000 C 
ATOM     20  F   UNL     1       2.646   4.976  19.570  0.00  0.00    +0.000 F 
ATOM     21  F   UNL     1       2.293   5.282  17.465  0.00  0.00    +0.000 F 
BRANCH  19  22
ATOM     22  C   UNL     1       4.394   6.008  18.323  0.00  0.00    +0.000 A 
ATOM     23  C   UNL     1       4.880   6.764  17.245  0.00  0.00    +0.000 A 
ATOM     24  C   UNL     1       6.253   6.958  17.076  0.00  0.00    +0.000 A 
ATOM     25  C   UNL     1       7.155   6.397  17.978  0.00  0.00    +0.000 A 
ATOM     26  C   UNL     1       6.688   5.620  19.037  0.00  0.00    +0.000 A 
ATOM     27  C   UNL     1       5.316   5.420  19.205  0.00  0.00    +0.000 A 
ENDBRANCH  19  22
ENDBRANCH  16  19
ENDBRANCH   3  13
BRANCH   1  31
ATOM     28  C   UNL     1      -3.894  14.297  23.390  0.00  0.00    +0.000 C 
ATOM     29  C   UNL     1      -3.234  12.941  23.160  0.00  0.00    +0.000 C 
ATOM     30  C   UNL     1      -1.680  12.966  23.069  0.00  0.00    +0.000 C 
ATOM     31  C   UNL     1      -1.836  13.198  21.537  0.00  0.00    +0.000 C 
ATOM     32  C   UNL     1      -3.192  12.456  21.680  0.00  0.00    +0.000 C 
BRANCH  29  33
ATOM     33  O   UNL     1      -3.787  12.007  24.106  0.00  0.00    +0.000 OA
ATOM     34  H   UNL     1      -4.263  12.549  24.761  0.00  0.00    +0.000 HD
ENDBRANCH  29  33
ENDBRANCH   1  31
TORSDOF 5
ENDMDL
MODEL 6
REMARK VINA RESULT:      -8.8      0.756      1.206
REMARK  Name = 
REMARK  6 active torsions:
REMARK  status: ('A' for Active; 'I' for Inactive)
REMARK    1  A    between atoms: C_1  and  C_2
REMARK    2  A    between atoms: C_2  and  O_3
REMARK    3  A    between atoms: C_5  and  C_6
REMARK    4  A    between atoms: C_8  and  C_9
REMARK    5  A    between atoms: C_12  and  C_13
REMARK    6  A    between atoms: C_13  and  C_16
REMARK                            x       y       z     vdW  Elec       q    Type
REMARK                         _______ _______ _______ _____ _____    ______ ____
ROOT
ATOM      1  C   UNL     1      -1.023  12.534  20.528  0.00  0.00    +0.000 A 
ATOM      2  N   UNL     1      -0.729  11.250  20.485  0.00  0.00    +0.000 NA
ATOM      3  C   UNL     1       0.426  11.152  19.715  0.00  0.00    +0.000 A 
ATOM      4  C   UNL     1       0.797  12.404  19.245  0.00  0.00    +0.000 A 
ATOM      5  C   UNL     1       1.837  12.965  18.399  0.00  0.00    +0.000 A 
ATOM      6  N   UNL     1       2.779  12.249  17.716  0.00  0.00    +0.000 N 
ATOM      7  N   UNL     1       1.921  14.265  18.222  0.00  0.00    +0.000 NA
ATOM      8  C   UNL     1       1.004  15.085  18.834  0.00  0.00    +0.000 A 
ATOM      9  C   UNL     1      -0.003  14.638  19.595  0.00  0.00    +0.000 A 
ATOM     10  N   UNL     1      -0.109  13.273  19.803  0.00  0.00    +0.000 N 
ATOM     11  H   UNL     1       2.478  11.356  17.346  0.00  0.00    +0.000 HD
ATOM     12  H   UNL     1       3.271  12.821  17.039  0.00  0.00    +0.000 HD
ENDROOT
BRANCH   3  13
ATOM     13  C   UNL     1       1.094   9.878  19.471  0.00  0.00    +0.000 A 
ATOM     14  C   UNL     1       1.285   8.961  20.508  0.00  0.00    +0.000 A 
ATOM     15  C   UNL     1       1.879   7.709  20.256  0.00  0.00    +0.000 A 
ATOM     16  C   UNL     1       2.265   7.346  18.955  0.00  0.00    +0.000 A 
ATOM     17  C   UNL     1       2.089   8.275  17.925  0.00  0.00    +0.000 A 
ATOM     18  C   UNL     1       1.568   9.541  18.198  0.00  0.00    +0.000 A 
BRANCH  16  19
ATOM     19  C   UNL     1       2.876   5.981  18.655  0.00  0.00    +0.000 C 
ATOM     20  F   UNL     1       2.754   5.682  17.321  0.00  0.00    +0.000 F 
ATOM     21  F   UNL     1       4.235   6.022  18.849  0.00  0.00    +0.000 F 
BRANCH  19  22
ATOM     22  C   UNL     1       2.252   4.877  19.506  0.00  0.00    +0.000 A 
ATOM     23  C   UNL     1       1.308   3.998  18.951  0.00  0.00    +0.000 A 
ATOM     24  C   UNL     1       0.794   2.940  19.705  0.00  0.00    +0.000 A 
ATOM     25  C   UNL     1       1.213   2.751  21.020  0.00  0.00    +0.000 A 
ATOM     26  C   UNL     1       2.127   3.632  21.594  0.00  0.00    +0.000 A 
ATOM     27  C   UNL     1       2.639   4.694  20.844  0.00  0.00    +0.000 A 
ENDBRANCH  19  22
ENDBRANCH  16  19
ENDBRANCH   3  13
BRANCH   1  31
ATOM     28  C   UNL     1      -4.424  14.127  23.006  0.00  0.00    +0.000 C 
ATOM     29  C   UNL     1      -3.578  12.860  22.923  0.00  0.00    +0.000 C 
ATOM     30  C   UNL     1      -2.041  13.092  22.843  0.00  0.00    +0.000 C 
ATOM     31  C   UNL     1      -2.192  13.146  21.294  0.00  0.00    +0.000 C 
ATOM     32  C   UNL     1      -3.435  12.240  21.500  0.00  0.00    +0.000 C 
BRANCH  29  33
ATOM     33  O   UNL     1      -4.019  11.958  23.955  0.00  0.00    +0.000 OA
ATOM     34  H   UNL     1      -4.314  11.153  23.490  0.00  0.00    +0.000 HD
ENDBRANCH  29  33
ENDBRANCH   1  31
TORSDOF 5
ENDMDL
MODEL 7
REMARK VINA RESULT:      -8.7      5.069      9.691
REMARK  Name = 
REMARK  6 active torsions:
REMARK  status: ('A' for Active; 'I' for Inactive)
REMARK    1  A    between atoms: C_1  and  C_2
REMARK    2  A    between atoms: C_2  and  O_3
REMARK    3  A    between atoms: C_5  and  C_6
REMARK    4  A    between atoms: C_8  and  C_9
REMARK    5  A    between atoms: C_12  and  C_13
REMARK    6  A    between atoms: C_13  and  C_16
REMARK                            x       y       z     vdW  Elec       q    Type
REMARK                         _______ _______ _______ _____ _____    ______ ____
ROOT
ATOM      1  C   UNL     1       4.173   5.047  17.065  0.00  0.00    +0.000 A 
ATOM      2  N   UNL     1       3.639   6.247  17.167  0.00  0.00    +0.000 NA
ATOM      3  C   UNL     1       3.042   6.291  18.422  0.00  0.00    +0.000 A 
ATOM      4  C   UNL     1       3.178   5.067  19.062  0.00  0.00    +0.000 A 
ATOM      5  C   UNL     1       2.769   4.465  20.319  0.00  0.00    +0.000 A 
ATOM      6  N   UNL     1       1.970   5.052  21.260  0.00  0.00    +0.000 N 
ATOM      7  N   UNL     1       3.156   3.248  20.631  0.00  0.00    +0.000 NA
ATOM      8  C   UNL     1       3.937   2.546  19.744  0.00  0.00    +0.000 A 
ATOM      9  C   UNL     1       4.320   3.020  18.552  0.00  0.00    +0.000 A 
ATOM     10  N   UNL     1       3.931   4.303  18.204  0.00  0.00    +0.000 N 
ATOM     11  H   UNL     1       1.232   5.648  20.907  0.00  0.00    +0.000 HD
ATOM     12  H   UNL     1       1.653   4.386  21.955  0.00  0.00    +0.000 HD
ENDROOT
BRANCH   3  13
ATOM     13  C   UNL     1       2.376   7.488  18.927  0.00  0.00    +0.000 A 
ATOM     14  C   UNL     1       2.190   8.603  18.106  0.00  0.00    +0.000 A 
ATOM     15  C   UNL     1       1.497   9.734  18.578  0.00  0.00    +0.000 A 
ATOM     16  C   UNL     1       0.953   9.753  19.874  0.00  0.00    +0.000 A 
ATOM     17  C   UNL     1       1.158   8.641  20.698  0.00  0.00    +0.000 A 
ATOM     18  C   UNL     1       1.911   7.557  20.245  0.00  0.00    +0.000 A 
BRANCH  16  19
ATOM     19  C   UNL     1       0.166  10.952  20.392  0.00  0.00    +0.000 C 
ATOM     20  F   UNL     1      -0.082  10.821  21.736  0.00  0.00    +0.000 F 
ATOM     21  F   UNL     1       0.939  12.086  20.320  0.00  0.00    +0.000 F 
BRANCH  19  22
ATOM     22  C   UNL     1      -1.140  11.151  19.627  0.00  0.00    +0.000 A 
ATOM     23  C   UNL     1      -1.468  10.314  18.549  0.00  0.00    +0.000 A 
ATOM     24  C   UNL     1      -2.697  10.444  17.897  0.00  0.00    +0.000 A 
ATOM     25  C   UNL     1      -3.610  11.412  18.313  0.00  0.00    +0.000 A 
ATOM     26  C   UNL     1      -3.287  12.268  19.364  0.00  0.00    +0.000 A 
ATOM     27  C   UNL     1      -2.056  12.144  20.013  0.00  0.00    +0.000 A 
ENDBRANCH  19  22
ENDBRANCH  16  19
ENDBRANCH   3  13
BRANCH   1  31
ATOM     28  C   UNL     1       6.783   3.709  13.653  0.00  0.00    +0.000 C 
ATOM     29  C   UNL     1       6.767   4.817  14.702  0.00  0.00    +0.000 C 
ATOM     30  C   UNL     1       6.495   4.345  16.160  0.00  0.00    +0.000 C 
ATOM     31  C   UNL     1       4.977   4.536  15.873  0.00  0.00    +0.000 C 
ATOM     32  C   UNL     1       5.425   5.598  14.834  0.00  0.00    +0.000 C 
BRANCH  29  33
ATOM     33  O   UNL     1       7.944   5.625  14.518  0.00  0.00    +0.000 OA
ATOM     34  H   UNL     1       8.051   6.124  15.348  0.00  0.00    +0.000 HD
ENDBRANCH  29  33
ENDBRANCH   1  31
TORSDOF 5
ENDMDL
MODEL 8
REMARK VINA RESULT:      -8.7      1.235      1.688
REMARK  Name = 
REMARK  6 active torsions:
REMARK  status: ('A' for Active; 'I' for Inactive)
REMARK    1  A    between atoms: C_1  and  C_2
REMARK    2  A    between atoms: C_2  and  O_3
REMARK    3  A    between atoms: C_5  and  C_6
REMARK    4  A    between atoms: C_8  and  C_9
REMARK    5  A    between atoms: C_12  and  C_13
REMARK    6  A    between atoms: C_13  and  C_16
REMARK                            x       y       z     vdW  Elec       q    Type
REMARK                         _______ _______ _______ _____ _____    ______ ____
ROOT
ATOM      1  C   UNL     1      -2.342  12.311  19.508  0.00  0.00    +0.000 A 
ATOM      2  N   UNL     1      -1.846  11.119  19.245  0.00  0.00    +0.000 NA
ATOM      3  C   UNL     1      -0.475  11.225  19.453  0.00  0.00    +0.000 A 
ATOM      4  C   UNL     1      -0.141  12.528  19.797  0.00  0.00    +0.000 A 
ATOM      5  C   UNL     1       1.066  13.279  20.096  0.00  0.00    +0.000 A 
ATOM      6  N   UNL     1       2.342  12.800  20.017  0.00  0.00    +0.000 N 
ATOM      7  N   UNL     1       0.990  14.539  20.466  0.00  0.00    +0.000 NA
ATOM      8  C   UNL     1      -0.244  15.140  20.549  0.00  0.00    +0.000 A 
ATOM      9  C   UNL     1      -1.393  14.522  20.251  0.00  0.00    +0.000 A 
ATOM     10  N   UNL     1      -1.341  13.193  19.866  0.00  0.00    +0.000 N 
ATOM     11  H   UNL     1       2.525  12.140  19.272  0.00  0.00    +0.000 HD
ATOM     12  H   UNL     1       3.030  13.543  20.074  0.00  0.00    +0.000 HD
ENDROOT
BRANCH   3  13
ATOM     13  C   UNL     1       0.426  10.087  19.303  0.00  0.00    +0.000 A 
ATOM     14  C   UNL     1       0.794   9.316  20.408  0.00  0.00    +0.000 A 
ATOM     15  C   UNL     1       1.618   8.185  20.251  0.00  0.00    +0.000 A 
ATOM     16  C   UNL     1       2.064   7.793  18.978  0.00  0.00    +0.000 A 
ATOM     17  C   UNL     1       1.709   8.579  17.877  0.00  0.00    +0.000 A 
ATOM     18  C   UNL     1       0.954   9.740  18.054  0.00  0.00    +0.000 A 
BRANCH  16  19
ATOM     19  C   UNL     1       2.926   6.551  18.781  0.00  0.00    +0.000 C 
ATOM     20  F   UNL     1       3.463   6.532  17.518  0.00  0.00    +0.000 F 
ATOM     21  F   UNL     1       4.031   6.613  19.596  0.00  0.00    +0.000 F 
BRANCH  19  22
ATOM     22  C   UNL     1       2.145   5.266  19.045  0.00  0.00    +0.000 A 
ATOM     23  C   UNL     1       1.793   4.416  17.985  0.00  0.00    +0.000 A 
ATOM     24  C   UNL     1       1.146   3.203  18.232  0.00  0.00    +0.000 A 
ATOM     25  C   UNL     1       0.841   2.827  19.538  0.00  0.00    +0.000 A 
ATOM     26  C   UNL     1       1.158   3.673  20.599  0.00  0.00    +0.000 A 
ATOM     27  C   UNL     1       1.800   4.889  20.355  0.00  0.00    +0.000 A 
ENDBRANCH  19  22
ENDBRANCH  16  19
ENDBRANCH   3  13
BRANCH   1  31
ATOM     28  C   UNL     1      -6.755  13.187  19.577  0.00  0.00    +0.000 C 
ATOM     29  C   UNL     1      -5.814  12.070  20.017  0.00  0.00    +0.000 C 
ATOM     30  C   UNL     1      -4.564  12.534  20.821  0.00  0.00    +0.000 C 
ATOM     31  C   UNL     1      -3.822  12.682  19.460  0.00  0.00    +0.000 C 
ATOM     32  C   UNL     1      -4.793  11.588  18.943  0.00  0.00    +0.000 C 
BRANCH  29  33
ATOM     33  O   UNL     1      -6.602  11.036  20.635  0.00  0.00    +0.000 OA
ATOM     34  H   UNL     1      -6.695  11.300  21.569  0.00  0.00    +0.000 HD
ENDBRANCH  29  33
ENDBRANCH   1  31
TORSDOF 5
ENDMDL
MODEL 9
REMARK VINA RESULT:      -8.6      1.631      2.669
REMARK  Name = 
REMARK  6 active torsions:
REMARK  status: ('A' for Active; 'I' for Inactive)
REMARK    1  A    between atoms: C_1  and  C_2
REMARK    2  A    between atoms: C_2  and  O_3
REMARK    3  A    between atoms: C_5  and  C_6
REMARK    4  A    between atoms: C_8  and  C_9
REMARK    5  A    between atoms: C_12  and  C_13
REMARK    6  A    between atoms: C_13  and  C_16
REMARK                            x       y       z     vdW  Elec       q    Type
REMARK                         _______ _______ _______ _____ _____    ______ ____
ROOT
ATOM      1  C   UNL     1      -0.591  12.337  21.179  0.00  0.00    +0.000 A 
ATOM      2  N   UNL     1      -0.349  11.047  21.064  0.00  0.00    +0.000 NA
ATOM      3  C   UNL     1       0.639  10.932  20.092  0.00  0.00    +0.000 A 
ATOM      4  C   UNL     1       0.955  12.182  19.577  0.00  0.00    +0.000 A 
ATOM      5  C   UNL     1       1.835  12.730  18.560  0.00  0.00    +0.000 A 
ATOM      6  N   UNL     1       2.613  12.002  17.705  0.00  0.00    +0.000 N 
ATOM      7  N   UNL     1       1.925  14.031  18.388  0.00  0.00    +0.000 NA
ATOM      8  C   UNL     1       1.162  14.864  19.171  0.00  0.00    +0.000 A 
ATOM      9  C   UNL     1       0.301  14.430  20.100  0.00  0.00    +0.000 A 
ATOM     10  N   UNL     1       0.194  13.064  20.306  0.00  0.00    +0.000 N 
ATOM     11  H   UNL     1       2.222  11.125  17.385  0.00  0.00    +0.000 HD
ATOM     12  H   UNL     1       2.987  12.573  16.956  0.00  0.00    +0.000 HD
ENDROOT
BRANCH   3  13
ATOM     13  C   UNL     1       1.212   9.645  19.710  0.00  0.00    +0.000 A 
ATOM     14  C   UNL     1       1.487   8.671  20.674  0.00  0.00    +0.000 A 
ATOM     15  C   UNL     1       1.986   7.410  20.296  0.00  0.00    +0.000 A 
ATOM     16  C   UNL     1       2.190   7.095  18.942  0.00  0.00    +0.000 A 
ATOM     17  C   UNL     1       1.931   8.080  17.983  0.00  0.00    +0.000 A 
ATOM     18  C   UNL     1       1.508   9.351  18.375  0.00  0.00    +0.000 A 
BRANCH  16  19
ATOM     19  C   UNL     1       2.694   5.722  18.509  0.00  0.00    +0.000 C 
ATOM     20  F   UNL     1       2.412   4.781  19.468  0.00  0.00    +0.000 F 
ATOM     21  F   UNL     1       1.985   5.285  17.416  0.00  0.00    +0.000 F 
BRANCH  19  22
ATOM     22  C   UNL     1       4.189   5.734  18.201  0.00  0.00    +0.000 A 
ATOM     23  C   UNL     1       4.655   6.164  16.948  0.00  0.00    +0.000 A 
ATOM     24  C   UNL     1       6.025   6.249  16.689  0.00  0.00    +0.000 A 
ATOM     25  C   UNL     1       6.945   5.904  17.678  0.00  0.00    +0.000 A 
ATOM     26  C   UNL     1       6.498   5.449  18.917  0.00  0.00    +0.000 A 
ATOM     27  C   UNL     1       5.129   5.357  19.176  0.00  0.00    +0.000 A 
ENDBRANCH  19  22
ENDBRANCH  16  19
ENDBRANCH   3  13
BRANCH   1  31
ATOM     28  C   UNL     1      -3.684  13.943  24.024  0.00  0.00    +0.000 C 
ATOM     29  C   UNL     1      -3.587  12.873  22.941  0.00  0.00    +0.000 C 
ATOM     30  C   UNL     1      -2.345  11.939  23.042  0.00  0.00    +0.000 C 
ATOM     31  C   UNL     1      -1.579  12.966  22.157  0.00  0.00    +0.000 C 
ATOM     32  C   UNL     1      -2.974  13.340  21.587  0.00  0.00    +0.000 C 
BRANCH  29  33
ATOM     33  O   UNL     1      -4.860  12.208  22.853  0.00  0.00    +0.000 OA
ATOM     34  H   UNL     1      -4.662  11.300  22.560  0.00  0.00    +0.000 HD
ENDBRANCH  29  33
ENDBRANCH   1  31
TORSDOF 5
ENDMDL
