MODEL 1
REMARK VINA RESULT:      -8.2      0.000      0.000
REMARK  Name = 
REMARK  5 active torsions:
REMARK  status: ('A' for Active; 'I' for Inactive)
REMARK    1  A    between atoms: C_13  and  C_14
REMARK    2  A    between atoms: C_14  and  O_16
REMARK    3  A    between atoms: O_16  and  C_17
REMARK    4  A    between atoms: C_17  and  C_18
REMARK    5  A    between atoms: C_18  and  N_19
REMARK                            x       y       z     vdW  Elec       q    Type
REMARK                         _______ _______ _______ _____ _____    ______ ____
ROOT
ATOM      1  O   UNL     1       3.776   7.500  16.885  0.00  0.00    +0.000 OA
ATOM      2  C   UNL     1       3.093   7.346  17.889  0.00  0.00    +0.000 C 
ATOM      3  C   UNL     1       2.320   8.489  18.412  0.00  0.00    +0.000 A 
ATOM      4  C   UNL     1       2.309   9.695  17.702  0.00  0.00    +0.000 A 
ATOM      5  C   UNL     1       1.609  10.783  18.212  0.00  0.00    +0.000 A 
ATOM      6  C   UNL     1       0.943  10.625  19.415  0.00  0.00    +0.000 A 
ATOM      7  N   UNL     1       0.928   9.472  20.123  0.00  0.00    +0.000 NA
ATOM      8  C   UNL     1       1.617   8.414  19.611  0.00  0.00    +0.000 A 
ATOM      9  C   UNL     1       1.594   7.140  20.419  0.00  0.00    +0.000 C 
ATOM     10  O   UNL     1       0.992   7.080  21.484  0.00  0.00    +0.000 OA
ATOM     11  C   UNL     1       2.329   6.031  19.843  0.00  0.00    +0.000 A 
ATOM     12  C   UNL     1       3.026   6.109  18.647  0.00  0.00    +0.000 A 
ATOM     13  C   UNL     1       3.656   4.849  18.414  0.00  0.00    +0.000 A 
ATOM     14  C   UNL     1       3.311   4.036  19.483  0.00  0.00    +0.000 A 
ATOM     15  C   UNL     1       3.603   2.689  19.838  0.00  0.00    +0.000 A 
ATOM     16  F   UNL     1       4.342   1.935  19.002  0.00  0.00    +0.000 F 
ATOM     17  C   UNL     1       3.133   2.156  20.976  0.00  0.00    +0.000 A 
ATOM     18  C   UNL     1       2.310   2.936  21.879  0.00  0.00    +0.000 A 
ATOM     19  C   UNL     1       2.015   4.206  21.553  0.00  0.00    +0.000 A 
ATOM     20  N   UNL     1       2.502   4.760  20.362  0.00  0.00    +0.000 N 
ENDROOT
BRANCH  13  21
ATOM     21  C   UNL     1       4.556   4.491  17.327  0.00  0.00    +0.000 C 
ATOM     22  O   UNL     1       4.174   3.962  16.291  0.00  0.00    +0.000 OA
BRANCH  21  23
ATOM     23  O   UNL     1       5.858   4.743  17.629  0.00  0.00    +0.000 OA
BRANCH  23  24
ATOM     24  C   UNL     1       6.772   4.323  16.608  0.00  0.00    +0.000 C 
BRANCH  24  25
ATOM     25  C   UNL     1       7.098   5.467  15.645  0.00  0.00    +0.000 C 
BRANCH  25  26
ATOM     26  N   UNL     1       6.763   5.181  14.236  0.00  0.00    +0.000 NA
ATOM     27  C   UNL     1       7.928   5.362  13.352  0.00  0.00    +0.000 C 
ATOM     28  C   UNL     1       7.568   5.078  11.893  0.00  0.00    +0.000 C 
ATOM     29  C   UNL     1       6.999   3.677  11.731  0.00  0.00    +0.000 C 
ATOM     30  C   UNL     1       5.843   3.461  12.699  0.00  0.00    +0.000 C 
ATOM     31  C   UNL     1       6.246   3.805  14.132  0.00  0.00    +0.000 C 
ENDBRANCH  25  26
ENDBRANCH  24  25
ENDBRANCH  23  24
ENDBRANCH  21  23
ENDBRANCH  13  21
TORSDOF 5
ENDMDL
MODEL 2
REMARK VINA RESULT:      -7.9      4.102      6.773
REMARK  Name = 
REMARK  5 active torsions:
REMARK  status: ('A' for Active; 'I' for Inactive)
REMARK    1  A    between atoms: C_13  and  C_14
REMARK    2  A    between atoms: C_14  and  O_16
REMARK    3  A    between atoms: O_16  and  C_17
REMARK    4  A    between atoms: C_17  and  C_18
REMARK    5  A    between atoms: C_18  and  N_19
REMARK                            x       y       z     vdW  Elec       q    Type
REMARK                         _______ _______ _______ _____ _____    ______ ____
ROOT
ATOM      1  O   UNL     1       5.133   5.691  19.943  0.00  0.00    +0.000 OA
ATOM      2  C   UNL     1       4.524   5.127  19.043  0.00  0.00    +0.000 C 
ATOM      3  C   UNL     1       3.222   4.501  19.343  0.00  0.00    +0.000 A 
ATOM      4  C   UNL     1       2.668   4.642  20.621  0.00  0.00    +0.000 A 
ATOM      5  C   UNL     1       1.459   4.023  20.914  0.00  0.00    +0.000 A 
ATOM      6  C   UNL     1       0.844   3.284  19.917  0.00  0.00    +0.000 A 
ATOM      7  N   UNL     1       1.349   3.134  18.670  0.00  0.00    +0.000 NA
ATOM      8  C   UNL     1       2.534   3.746  18.397  0.00  0.00    +0.000 A 
ATOM      9  C   UNL     1       3.084   3.560  17.004  0.00  0.00    +0.000 C 
ATOM     10  O   UNL     1       2.489   2.880  16.178  0.00  0.00    +0.000 OA
ATOM     11  C   UNL     1       4.342   4.232  16.742  0.00  0.00    +0.000 A 
ATOM     12  C   UNL     1       5.023   4.985  17.686  0.00  0.00    +0.000 A 
ATOM     13  C   UNL     1       6.233   5.459  17.094  0.00  0.00    +0.000 A 
ATOM     14  C   UNL     1       6.242   4.980  15.793  0.00  0.00    +0.000 A 
ATOM     15  C   UNL     1       7.146   5.101  14.699  0.00  0.00    +0.000 A 
ATOM     16  F   UNL     1       8.252   5.856  14.843  0.00  0.00    +0.000 F 
ATOM     17  C   UNL     1       6.899   4.497  13.527  0.00  0.00    +0.000 A 
ATOM     18  C   UNL     1       5.701   3.703  13.337  0.00  0.00    +0.000 A 
ATOM     19  C   UNL     1       4.831   3.589  14.354  0.00  0.00    +0.000 A 
ATOM     20  N   UNL     1       5.088   4.224  15.577  0.00  0.00    +0.000 N 
ENDROOT
BRANCH  13  21
ATOM     21  C   UNL     1       7.298   6.218  17.730  0.00  0.00    +0.000 C 
ATOM     22  O   UNL     1       8.040   5.745  18.581  0.00  0.00    +0.000 OA
BRANCH  21  23
ATOM     23  O   UNL     1       7.321   7.516  17.325  0.00  0.00    +0.000 OA
BRANCH  23  24
ATOM     24  C   UNL     1       8.291   8.313  18.017  0.00  0.00    +0.000 C 
BRANCH  24  25
ATOM     25  C   UNL     1       8.001   9.808  17.858  0.00  0.00    +0.000 C 
BRANCH  25  26
ATOM     26  N   UNL     1       9.138  10.682  18.210  0.00  0.00    +0.000 NA
ATOM     27  C   UNL     1       8.894  12.079  17.812  0.00  0.00    +0.000 C 
ATOM     28  C   UNL     1      10.082  12.973  18.167  0.00  0.00    +0.000 C 
ATOM     29  C   UNL     1      10.399  12.900  19.653  0.00  0.00    +0.000 C 
ATOM     30  C   UNL     1      10.575  11.450  20.084  0.00  0.00    +0.000 C 
ATOM     31  C   UNL     1       9.381  10.595  19.661  0.00  0.00    +0.000 C 
ENDBRANCH  25  26
ENDBRANCH  24  25
ENDBRANCH  23  24
ENDBRANCH  21  23
ENDBRANCH  13  21
TORSDOF 5
ENDMDL
MODEL 3
REMARK VINA RESULT:      -7.7      4.698      8.446
REMARK  Name = 
REMARK  5 active torsions:
REMARK  status: ('A' for Active; 'I' for Inactive)
REMARK    1  A    between atoms: C_13  and  C_14
REMARK    2  A    between atoms: C_14  and  O_16
REMARK    3  A    between atoms: O_16  and  C_17
REMARK    4  A    between atoms: C_17  and  C_18
REMARK    5  A    between atoms: C_18  and  N_19
REMARK                            x       y       z     vdW  Elec       q    Type
REMARK                         _______ _______ _______ _____ _____    ______ ____
ROOT
ATOM      1  O   UNL     1      -0.040  12.130  22.343  0.00  0.00    +0.000 OA
ATOM      2  C   UNL     1      -1.081  12.466  21.793  0.00  0.00    +0.000 C 
ATOM      3  C   UNL     1      -1.988  13.402  22.485  0.00  0.00    +0.000 A 
ATOM      4  C   UNL     1      -1.600  13.957  23.710  0.00  0.00    +0.000 A 
ATOM      5  C   UNL     1      -2.468  14.811  24.379  0.00  0.00    +0.000 A 
ATOM      6  C   UNL     1      -3.696  15.081  23.799  0.00  0.00    +0.000 A 
ATOM      7  N   UNL     1      -4.099  14.567  22.614  0.00  0.00    +0.000 NA
ATOM      8  C   UNL     1      -3.238  13.732  21.969  0.00  0.00    +0.000 A 
ATOM      9  C   UNL     1      -3.709  13.162  20.653  0.00  0.00    +0.000 C 
ATOM     10  O   UNL     1      -4.816  13.438  20.208  0.00  0.00    +0.000 OA
ATOM     11  C   UNL     1      -2.766  12.285  19.987  0.00  0.00    +0.000 A 
ATOM     12  C   UNL     1      -1.521  11.961  20.504  0.00  0.00    +0.000 A 
ATOM     13  C   UNL     1      -0.888  11.049  19.605  0.00  0.00    +0.000 A 
ATOM     14  C   UNL     1      -1.774  10.856  18.557  0.00  0.00    +0.000 A 
ATOM     15  C   UNL     1      -1.741  10.084  17.361  0.00  0.00    +0.000 A 
ATOM     16  F   UNL     1      -0.633   9.377  17.067  0.00  0.00    +0.000 F 
ATOM     17  C   UNL     1      -2.783  10.074  16.515  0.00  0.00    +0.000 A 
ATOM     18  C   UNL     1      -3.975  10.851  16.793  0.00  0.00    +0.000 A 
ATOM     19  C   UNL     1      -4.018  11.594  17.911  0.00  0.00    +0.000 A 
ATOM     20  N   UNL     1      -2.928  11.608  18.792  0.00  0.00    +0.000 N 
ENDROOT
BRANCH  13  21
ATOM     21  C   UNL     1       0.392  10.377  19.774  0.00  0.00    +0.000 C 
ATOM     22  O   UNL     1       1.459  10.879  19.443  0.00  0.00    +0.000 OA
BRANCH  21  23
ATOM     23  O   UNL     1       0.254   9.117  20.266  0.00  0.00    +0.000 OA
BRANCH  23  24
ATOM     24  C   UNL     1       1.503   8.482  20.567  0.00  0.00    +0.000 C 
BRANCH  24  25
ATOM     25  C   UNL     1       2.048   7.721  19.355  0.00  0.00    +0.000 C 
BRANCH  25  26
ATOM     26  N   UNL     1       2.471   6.338  19.654  0.00  0.00    +0.000 NA
ATOM     27  C   UNL     1       1.636   5.728  20.704  0.00  0.00    +0.000 C 
ATOM     28  C   UNL     1       2.091   4.303  21.017  0.00  0.00    +0.000 C 
ATOM     29  C   UNL     1       2.078   3.436  19.767  0.00  0.00    +0.000 C 
ATOM     30  C   UNL     1       2.878   4.102  18.655  0.00  0.00    +0.000 C 
ATOM     31  C   UNL     1       2.412   5.538  18.419  0.00  0.00    +0.000 C 
ENDBRANCH  25  26
ENDBRANCH  24  25
ENDBRANCH  23  24
ENDBRANCH  21  23
ENDBRANCH  13  21
TORSDOF 5
ENDMDL
MODEL 4
REMARK VINA RESULT:      -7.6      5.202      9.105
REMARK  Name = 
REMARK  5 active torsions:
REMARK  status: ('A' for Active; 'I' for Inactive)
REMARK    1  A    between atoms: C_13  and  C_14
REMARK    2  A    between atoms: C_14  and  O_16
REMARK    3  A    between atoms: O_16  and  C_17
REMARK    4  A    between atoms: C_17  and  C_18
REMARK    5  A    between atoms: C_18  and  N_19
REMARK                            x       y       z     vdW  Elec       q    Type
REMARK                         _______ _______ _______ _____ _____    ______ ____
ROOT
ATOM      1  O   UNL     1      -0.286  10.677  18.608  0.00  0.00    +0.000 OA
ATOM      2  C   UNL     1      -1.447  11.051  18.715  0.00  0.00    +0.000 C 
ATOM      3  C   UNL     1      -2.378  10.830  17.592  0.00  0.00    +0.000 A 
ATOM      4  C   UNL     1      -1.942  10.119  16.467  0.00  0.00    +0.000 A 
ATOM      5  C   UNL     1      -2.808   9.940  15.394  0.00  0.00    +0.000 A 
ATOM      6  C   UNL     1      -4.080  10.480  15.483  0.00  0.00    +0.000 A 
ATOM      7  N   UNL     1      -4.534  11.166  16.557  0.00  0.00    +0.000 NA
ATOM      8  C   UNL     1      -3.676  11.333  17.602  0.00  0.00    +0.000 A 
ATOM      9  C   UNL     1      -4.198  12.108  18.787  0.00  0.00    +0.000 C 
ATOM     10  O   UNL     1      -5.334  12.566  18.788  0.00  0.00    +0.000 OA
ATOM     11  C   UNL     1      -3.264  12.259  19.886  0.00  0.00    +0.000 A 
ATOM     12  C   UNL     1      -1.973  11.755  19.872  0.00  0.00    +0.000 A 
ATOM     13  C   UNL     1      -1.335  12.126  21.094  0.00  0.00    +0.000 A 
ATOM     14  C   UNL     1      -2.273  12.844  21.821  0.00  0.00    +0.000 A 
ATOM     15  C   UNL     1      -2.266  13.473  23.098  0.00  0.00    +0.000 A 
ATOM     16  F   UNL     1      -1.167  13.380  23.870  0.00  0.00    +0.000 F 
ATOM     17  C   UNL     1      -3.344  14.131  23.551  0.00  0.00    +0.000 A 
ATOM     18  C   UNL     1      -4.551  14.221  22.752  0.00  0.00    +0.000 A 
ATOM     19  C   UNL     1      -4.578  13.623  21.550  0.00  0.00    +0.000 A 
ATOM     20  N   UNL     1      -3.454  12.931  21.080  0.00  0.00    +0.000 N 
ENDROOT
BRANCH  13  21
ATOM     21  C   UNL     1       0.046  11.888  21.486  0.00  0.00    +0.000 C 
ATOM     22  O   UNL     1       0.958  12.662  21.225  0.00  0.00    +0.000 OA
BRANCH  21  23
ATOM     23  O   UNL     1       0.209  10.686  22.102  0.00  0.00    +0.000 OA
BRANCH  23  24
ATOM     24  C   UNL     1       1.287   9.910  21.563  0.00  0.00    +0.000 C 
BRANCH  24  25
ATOM     25  C   UNL     1       0.822   8.503  21.177  0.00  0.00    +0.000 C 
BRANCH  25  26
ATOM     26  N   UNL     1       1.833   7.717  20.442  0.00  0.00    +0.000 NA
ATOM     27  C   UNL     1       1.582   6.269  20.553  0.00  0.00    +0.000 C 
ATOM     28  C   UNL     1       2.642   5.463  19.802  0.00  0.00    +0.000 C 
ATOM     29  C   UNL     1       2.708   5.873  18.339  0.00  0.00    +0.000 C 
ATOM     30  C   UNL     1       2.890   7.380  18.220  0.00  0.00    +0.000 C 
ATOM     31  C   UNL     1       1.834   8.133  19.029  0.00  0.00    +0.000 C 
ENDBRANCH  25  26
ENDBRANCH  24  25
ENDBRANCH  23  24
ENDBRANCH  21  23
ENDBRANCH  13  21
TORSDOF 5
ENDMDL
MODEL 5
REMARK VINA RESULT:      -7.6      4.194      6.829
REMARK  Name = 
REMARK  5 active torsions:
REMARK  status: ('A' for Active; 'I' for Inactive)
REMARK    1  A    between atoms: C_13  and  C_14
REMARK    2  A    between atoms: C_14  and  O_16
REMARK    3  A    between atoms: O_16  and  C_17
REMARK    4  A    between atoms: C_17  and  C_18
REMARK    5  A    between atoms: C_18  and  N_19
REMARK                            x       y       z     vdW  Elec       q    Type
REMARK                         _______ _______ _______ _____ _____    ______ ____
ROOT
ATOM      1  O   UNL     1       2.704  11.810  17.608  0.00  0.00    +0.000 OA
ATOM      2  C   UNL     1       2.117  12.329  18.549  0.00  0.00    +0.000 C 
ATOM      3  C   UNL     1       2.221  13.789  18.741  0.00  0.00    +0.000 A 
ATOM      4  C   UNL     1       2.908  14.560  17.796  0.00  0.00    +0.000 A 
ATOM      5  C   UNL     1       3.036  15.929  17.994  0.00  0.00    +0.000 A 
ATOM      6  C   UNL     1       2.471  16.481  19.131  0.00  0.00    +0.000 A 
ATOM      7  N   UNL     1       1.795  15.766  20.059  0.00  0.00    +0.000 NA
ATOM      8  C   UNL     1       1.677  14.425  19.853  0.00  0.00    +0.000 A 
ATOM      9  C   UNL     1       0.927  13.644  20.904  0.00  0.00    +0.000 C 
ATOM     10  O   UNL     1       0.464  14.201  21.892  0.00  0.00    +0.000 OA
ATOM     11  C   UNL     1       0.810  12.221  20.649  0.00  0.00    +0.000 A 
ATOM     12  C   UNL     1       1.351  11.592  19.539  0.00  0.00    +0.000 A 
ATOM     13  C   UNL     1       1.077  10.194  19.640  0.00  0.00    +0.000 A 
ATOM     14  C   UNL     1       0.363  10.020  20.815  0.00  0.00    +0.000 A 
ATOM     15  C   UNL     1      -0.203   8.892  21.473  0.00  0.00    +0.000 A 
ATOM     16  F   UNL     1      -0.114   7.680  20.891  0.00  0.00    +0.000 F 
ATOM     17  C   UNL     1      -0.844   9.023  22.645  0.00  0.00    +0.000 A 
ATOM     18  C   UNL     1      -0.980  10.320  23.277  0.00  0.00    +0.000 A 
ATOM     19  C   UNL     1      -0.461  11.397  22.665  0.00  0.00    +0.000 A 
ATOM     20  N   UNL     1       0.203  11.260  21.438  0.00  0.00    +0.000 N 
ENDROOT
BRANCH  13  21
ATOM     21  C   UNL     1       1.521   9.133  18.747  0.00  0.00    +0.000 C 
ATOM     22  O   UNL     1       1.167   9.052  17.579  0.00  0.00    +0.000 OA
BRANCH  21  23
ATOM     23  O   UNL     1       2.304   8.219  19.380  0.00  0.00    +0.000 OA
BRANCH  23  24
ATOM     24  C   UNL     1       2.656   7.101  18.555  0.00  0.00    +0.000 C 
BRANCH  24  25
ATOM     25  C   UNL     1       3.549   6.112  19.308  0.00  0.00    +0.000 C 
BRANCH  25  26
ATOM     26  N   UNL     1       2.927   4.792  19.534  0.00  0.00    +0.000 NA
ATOM     27  C   UNL     1       2.081   4.788  20.740  0.00  0.00    +0.000 C 
ATOM     28  C   UNL     1       1.453   3.414  20.975  0.00  0.00    +0.000 C 
ATOM     29  C   UNL     1       0.645   2.966  19.766  0.00  0.00    +0.000 C 
ATOM     30  C   UNL     1       1.496   3.042  18.505  0.00  0.00    +0.000 C 
ATOM     31  C   UNL     1       2.135   4.421  18.348  0.00  0.00    +0.000 C 
ENDBRANCH  25  26
ENDBRANCH  24  25
ENDBRANCH  23  24
ENDBRANCH  21  23
ENDBRANCH  13  21
TORSDOF 5
ENDMDL
MODEL 6
REMARK VINA RESULT:      -7.5      4.682      8.374
REMARK  Name = 
REMARK  5 active torsions:
REMARK  status: ('A' for Active; 'I' for Inactive)
REMARK    1  A    between atoms: C_13  and  C_14
REMARK    2  A    between atoms: C_14  and  O_16
REMARK    3  A    between atoms: O_16  and  C_17
REMARK    4  A    between atoms: C_17  and  C_18
REMARK    5  A    between atoms: C_18  and  N_19
REMARK                            x       y       z     vdW  Elec       q    Type
REMARK                         _______ _______ _______ _____ _____    ______ ____
ROOT
ATOM      1  O   UNL     1      -0.069  11.975  22.197  0.00  0.00    +0.000 OA
ATOM      2  C   UNL     1      -1.105  12.348  21.660  0.00  0.00    +0.000 C 
ATOM      3  C   UNL     1      -1.980  13.298  22.374  0.00  0.00    +0.000 A 
ATOM      4  C   UNL     1      -1.568  13.822  23.605  0.00  0.00    +0.000 A 
ATOM      5  C   UNL     1      -2.407  14.689  24.294  0.00  0.00    +0.000 A 
ATOM      6  C   UNL     1      -3.631  15.003  23.728  0.00  0.00    +0.000 A 
ATOM      7  N   UNL     1      -4.057  14.519  22.538  0.00  0.00    +0.000 NA
ATOM      8  C   UNL     1      -3.224  13.670  21.873  0.00  0.00    +0.000 A 
ATOM      9  C   UNL     1      -3.720  13.135  20.552  0.00  0.00    +0.000 C 
ATOM     10  O   UNL     1      -4.823  13.449  20.120  0.00  0.00    +0.000 OA
ATOM     11  C   UNL     1      -2.807  12.243  19.865  0.00  0.00    +0.000 A 
ATOM     12  C   UNL     1      -1.568  11.876  20.367  0.00  0.00    +0.000 A 
ATOM     13  C   UNL     1      -0.966  10.962  19.449  0.00  0.00    +0.000 A 
ATOM     14  C   UNL     1      -1.866  10.810  18.405  0.00  0.00    +0.000 A 
ATOM     15  C   UNL     1      -1.863  10.057  17.197  0.00  0.00    +0.000 A 
ATOM     16  F   UNL     1      -0.777   9.324  16.883  0.00  0.00    +0.000 F 
ATOM     17  C   UNL     1      -2.910  10.090  16.358  0.00  0.00    +0.000 A 
ATOM     18  C   UNL     1      -4.078  10.895  16.658  0.00  0.00    +0.000 A 
ATOM     19  C   UNL     1      -4.093  11.620  17.788  0.00  0.00    +0.000 A 
ATOM     20  N   UNL     1      -2.997  11.590  18.661  0.00  0.00    +0.000 N 
ENDROOT
BRANCH  13  21
ATOM     21  C   UNL     1       0.296  10.252  19.597  0.00  0.00    +0.000 C 
ATOM     22  O   UNL     1       1.297  10.529  18.950  0.00  0.00    +0.000 OA
BRANCH  21  23
ATOM     23  O   UNL     1       0.206   9.216  20.473  0.00  0.00    +0.000 OA
BRANCH  23  24
ATOM     24  C   UNL     1       1.470   8.606  20.766  0.00  0.00    +0.000 C 
BRANCH  24  25
ATOM     25  C   UNL     1       1.298   7.148  21.198  0.00  0.00    +0.000 C 
BRANCH  25  26
ATOM     26  N   UNL     1       1.665   6.165  20.158  0.00  0.00    +0.000 NA
ATOM     27  C   UNL     1       2.709   6.687  19.260  0.00  0.00    +0.000 C 
ATOM     28  C   UNL     1       3.071   5.669  18.178  0.00  0.00    +0.000 C 
ATOM     29  C   UNL     1       3.519   4.352  18.792  0.00  0.00    +0.000 C 
ATOM     30  C   UNL     1       2.475   3.848  19.780  0.00  0.00    +0.000 C 
ATOM     31  C   UNL     1       2.117   4.922  20.807  0.00  0.00    +0.000 C 
ENDBRANCH  25  26
ENDBRANCH  24  25
ENDBRANCH  23  24
ENDBRANCH  21  23
ENDBRANCH  13  21
TORSDOF 5
ENDMDL
MODEL 7
REMARK VINA RESULT:      -7.5      7.571     10.170
REMARK  Name = 
REMARK  5 active torsions:
REMARK  status: ('A' for Active; 'I' for Inactive)
REMARK    1  A    between atoms: C_13  and  C_14
REMARK    2  A    between atoms: C_14  and  O_16
REMARK    3  A    between atoms: O_16  and  C_17
REMARK    4  A    between atoms: C_17  and  C_18
REMARK    5  A    between atoms: C_18  and  N_19
REMARK                            x       y       z     vdW  Elec       q    Type
REMARK                         _______ _______ _______ _____ _____    ______ ____
ROOT
ATOM      1  O   UNL     1      -0.174  12.333  22.432  0.00  0.00    +0.000 OA
ATOM      2  C   UNL     1      -1.210  12.625  21.848  0.00  0.00    +0.000 C 
ATOM      3  C   UNL     1      -2.163  13.547  22.496  0.00  0.00    +0.000 A 
ATOM      4  C   UNL     1      -1.824  14.139  23.719  0.00  0.00    +0.000 A 
ATOM      5  C   UNL     1      -2.734  14.980  24.347  0.00  0.00    +0.000 A 
ATOM      6  C   UNL     1      -3.954  15.201  23.730  0.00  0.00    +0.000 A 
ATOM      7  N   UNL     1      -4.310  14.649  22.546  0.00  0.00    +0.000 NA
ATOM      8  C   UNL     1      -3.408  13.828  21.941  0.00  0.00    +0.000 A 
ATOM      9  C   UNL     1      -3.827  13.217  20.627  0.00  0.00    +0.000 C 
ATOM     10  O   UNL     1      -4.930  13.449  20.148  0.00  0.00    +0.000 OA
ATOM     11  C   UNL     1      -2.841  12.355  20.004  0.00  0.00    +0.000 A 
ATOM     12  C   UNL     1      -1.601  12.080  20.559  0.00  0.00    +0.000 A 
ATOM     13  C   UNL     1      -0.917  11.170  19.697  0.00  0.00    +0.000 A 
ATOM     14  C   UNL     1      -1.769  10.927  18.632  0.00  0.00    +0.000 A 
ATOM     15  C   UNL     1      -1.682  10.133  17.454  0.00  0.00    +0.000 A 
ATOM     16  F   UNL     1      -0.546   9.453  17.203  0.00  0.00    +0.000 F 
ATOM     17  C   UNL     1      -2.700  10.073  16.581  0.00  0.00    +0.000 A 
ATOM     18  C   UNL     1      -3.921  10.819  16.812  0.00  0.00    +0.000 A 
ATOM     19  C   UNL     1      -4.017  11.583  17.913  0.00  0.00    +0.000 A 
ATOM     20  N   UNL     1      -2.951  11.648  18.820  0.00  0.00    +0.000 N 
ENDROOT
BRANCH  13  21
ATOM     21  C   UNL     1       0.378  10.541  19.913  0.00  0.00    +0.000 C 
ATOM     22  O   UNL     1       0.510   9.348  20.150  0.00  0.00    +0.000 OA
BRANCH  21  23
ATOM     23  O   UNL     1       1.399  11.439  19.892  0.00  0.00    +0.000 OA
BRANCH  23  24
ATOM     24  C   UNL     1       1.707  11.923  18.578  0.00  0.00    +0.000 C 
BRANCH  24  25
ATOM     25  C   UNL     1       1.878  13.444  18.570  0.00  0.00    +0.000 C 
BRANCH  25  26
ATOM     26  N   UNL     1       1.037  14.149  19.557  0.00  0.00    +0.000 NA
ATOM     27  C   UNL     1       1.847  14.957  20.485  0.00  0.00    +0.000 C 
ATOM     28  C   UNL     1       0.969  15.672  21.513  0.00  0.00    +0.000 C 
ATOM     29  C   UNL     1      -0.073  16.545  20.830  0.00  0.00    +0.000 C 
ATOM     30  C   UNL     1      -0.862  15.730  19.814  0.00  0.00    +0.000 C 
ATOM     31  C   UNL     1       0.067  15.000  18.845  0.00  0.00    +0.000 C 
ENDBRANCH  25  26
ENDBRANCH  24  25
ENDBRANCH  23  24
ENDBRANCH  21  23
ENDBRANCH  13  21
TORSDOF 5
ENDMDL
MODEL 8
REMARK VINA RESULT:      -7.4      4.866      8.328
REMARK  Name = 
REMARK  5 active torsions:
REMARK  status: ('A' for Active; 'I' for Inactive)
REMARK    1  A    between atoms: C_13  and  C_14
REMARK    2  A    between atoms: C_14  and  O_16
REMARK    3  A    between atoms: O_16  and  C_17
REMARK    4  A    between atoms: C_17  and  C_18
REMARK    5  A    between atoms: C_18  and  N_19
REMARK                            x       y       z     vdW  Elec       q    Type
REMARK                         _______ _______ _______ _____ _____    ______ ____
ROOT
ATOM      1  O   UNL     1      -0.216  11.891  22.301  0.00  0.00    +0.000 OA
ATOM      2  C   UNL     1      -1.210  12.378  21.777  0.00  0.00    +0.000 C 
ATOM      3  C   UNL     1      -1.956  13.430  22.494  0.00  0.00    +0.000 A 
ATOM      4  C   UNL     1      -1.464  13.914  23.711  0.00  0.00    +0.000 A 
ATOM      5  C   UNL     1      -2.184  14.880  24.404  0.00  0.00    +0.000 A 
ATOM      6  C   UNL     1      -3.373  15.328  23.854  0.00  0.00    +0.000 A 
ATOM      7  N   UNL     1      -3.873  14.886  22.677  0.00  0.00    +0.000 NA
ATOM      8  C   UNL     1      -3.157  13.940  22.008  0.00  0.00    +0.000 A 
ATOM      9  C   UNL     1      -3.735  13.454  20.702  0.00  0.00    +0.000 C 
ATOM     10  O   UNL     1      -4.801  13.890  20.285  0.00  0.00    +0.000 OA
ATOM     11  C   UNL     1      -2.944  12.455  20.011  0.00  0.00    +0.000 A 
ATOM     12  C   UNL     1      -1.748  11.951  20.496  0.00  0.00    +0.000 A 
ATOM     13  C   UNL     1      -1.273  10.964  19.580  0.00  0.00    +0.000 A 
ATOM     14  C   UNL     1      -2.202  10.908  18.552  0.00  0.00    +0.000 A 
ATOM     15  C   UNL     1      -2.308  10.148  17.353  0.00  0.00    +0.000 A 
ATOM     16  F   UNL     1      -1.321   9.291  17.030  0.00  0.00    +0.000 F 
ATOM     17  C   UNL     1      -3.359  10.295  16.531  0.00  0.00    +0.000 A 
ATOM     18  C   UNL     1      -4.420  11.233  16.840  0.00  0.00    +0.000 A 
ATOM     19  C   UNL     1      -4.330  11.966  17.963  0.00  0.00    +0.000 A 
ATOM     20  N   UNL     1      -3.230  11.817  18.817  0.00  0.00    +0.000 N 
ENDROOT
BRANCH  13  21
ATOM     21  C   UNL     1      -0.100  10.113  19.715  0.00  0.00    +0.000 C 
ATOM     22  O   UNL     1       0.003   9.248  20.575  0.00  0.00    +0.000 OA
BRANCH  21  23
ATOM     23  O   UNL     1       0.881  10.440  18.832  0.00  0.00    +0.000 OA
BRANCH  23  24
ATOM     24  C   UNL     1       1.994   9.538  18.855  0.00  0.00    +0.000 C 
BRANCH  24  25
ATOM     25  C   UNL     1       1.943   8.558  17.681  0.00  0.00    +0.000 C 
BRANCH  25  26
ATOM     26  N   UNL     1       2.519   7.231  17.979  0.00  0.00    +0.000 NA
ATOM     27  C   UNL     1       3.918   7.131  17.526  0.00  0.00    +0.000 C 
ATOM     28  C   UNL     1       4.501   5.749  17.826  0.00  0.00    +0.000 C 
ATOM     29  C   UNL     1       4.406   5.424  19.309  0.00  0.00    +0.000 C 
ATOM     30  C   UNL     1       2.975   5.602  19.798  0.00  0.00    +0.000 C 
ATOM     31  C   UNL     1       2.428   6.980  19.429  0.00  0.00    +0.000 C 
ENDBRANCH  25  26
ENDBRANCH  24  25
ENDBRANCH  23  24
ENDBRANCH  21  23
ENDBRANCH  13  21
TORSDOF 5
ENDMDL
MODEL 9
REMARK VINA RESULT:      -7.3      4.606      9.541
REMARK  Name = 
REMARK  5 active torsions:
REMARK  status: ('A' for Active; 'I' for Inactive)
REMARK    1  A    between atoms: C_13  and  C_14
REMARK    2  A    between atoms: C_14  and  O_16
REMARK    3  A    between atoms: O_16  and  C_17
REMARK    4  A    between atoms: C_17  and  C_18
REMARK    5  A    between atoms: C_18  and  N_19
REMARK                            x       y       z     vdW  Elec       q    Type
REMARK                         _______ _______ _______ _____ _____    ______ ____
ROOT
ATOM      1  O   UNL     1       1.927  10.108  17.249  0.00  0.00    +0.000 OA
ATOM      2  C   UNL     1       1.787   9.537  18.324  0.00  0.00    +0.000 C 
ATOM      3  C   UNL     1       2.378   8.198  18.506  0.00  0.00    +0.000 A 
ATOM      4  C   UNL     1       3.161   7.646  17.485  0.00  0.00    +0.000 A 
ATOM      5  C   UNL     1       3.689   6.370  17.642  0.00  0.00    +0.000 A 
ATOM      6  C   UNL     1       3.416   5.689  18.816  0.00  0.00    +0.000 A 
ATOM      7  N   UNL     1       2.669   6.196  19.824  0.00  0.00    +0.000 NA
ATOM      8  C   UNL     1       2.159   7.448  19.658  0.00  0.00    +0.000 A 
ATOM      9  C   UNL     1       1.322   7.991  20.790  0.00  0.00    +0.000 C 
ATOM     10  O   UNL     1       1.114   7.324  21.796  0.00  0.00    +0.000 OA
ATOM     11  C   UNL     1       0.802   9.329  20.586  0.00  0.00    +0.000 A 
ATOM     12  C   UNL     1       1.025  10.074  19.438  0.00  0.00    +0.000 A 
ATOM     13  C   UNL     1       0.333  11.316  19.569  0.00  0.00    +0.000 A 
ATOM     14  C   UNL     1      -0.287  11.288  20.809  0.00  0.00    +0.000 A 
ATOM     15  C   UNL     1      -1.107  12.203  21.528  0.00  0.00    +0.000 A 
ATOM     16  F   UNL     1      -1.371  13.409  20.990  0.00  0.00    +0.000 F 
ATOM     17  C   UNL     1      -1.595  11.892  22.739  0.00  0.00    +0.000 A 
ATOM     18  C   UNL     1      -1.300  10.612  23.353  0.00  0.00    +0.000 A 
ATOM     19  C   UNL     1      -0.519   9.741  22.693  0.00  0.00    +0.000 A 
ATOM     20  N   UNL     1      -0.005  10.069  21.432  0.00  0.00    +0.000 N 
ENDROOT
BRANCH  13  21
ATOM     21  C   UNL     1       0.213  12.378  18.581  0.00  0.00    +0.000 C 
ATOM     22  O   UNL     1       1.157  13.074  18.231  0.00  0.00    +0.000 OA
BRANCH  21  23
ATOM     23  O   UNL     1      -1.067  12.547  18.155  0.00  0.00    +0.000 OA
BRANCH  23  24
ATOM     24  C   UNL     1      -1.590  11.411  17.454  0.00  0.00    +0.000 C 
BRANCH  24  25
ATOM     25  C   UNL     1      -2.904  10.929  18.073  0.00  0.00    +0.000 C 
BRANCH  25  26
ATOM     26  N   UNL     1      -3.967  11.953  18.101  0.00  0.00    +0.000 NA
ATOM     27  C   UNL     1      -5.071  11.616  17.185  0.00  0.00    +0.000 C 
ATOM     28  C   UNL     1      -6.160  12.689  17.209  0.00  0.00    +0.000 C 
ATOM     29  C   UNL     1      -6.693  12.899  18.618  0.00  0.00    +0.000 C 
ATOM     30  C   UNL     1      -5.546  13.171  19.581  0.00  0.00    +0.000 C 
ATOM     31  C   UNL     1      -4.467  12.094  19.480  0.00  0.00    +0.000 C 
ENDBRANCH  25  26
ENDBRANCH  24  25
ENDBRANCH  23  24
ENDBRANCH  21  23
ENDBRANCH  13  21
TORSDOF 5
ENDMDL
