MODEL 1
REMARK VINA RESULT:      -8.2      0.000      0.000
REMARK  Name = 
REMARK  6 active torsions:
REMARK  status: ('A' for Active; 'I' for Inactive)
REMARK    1  A    between atoms: C_1  and  O_2
REMARK    2  A    between atoms: O_2  and  C_3
REMARK    3  A    between atoms: C_6  and  C_7
REMARK    4  A    between atoms: CA_12  and  CB_13
REMARK    5  A    between atoms: CB_13  and  CG_14
REMARK    6  A    between atoms: N_22  and  C_23
REMARK                            x       y       z     vdW  Elec       q    Type
REMARK                         _______ _______ _______ _____ _____    ______ ____
ROOT
ATOM      1  C   UNK A   2      -0.433   9.919  20.190  0.00  0.00    +0.000 C 
ATOM      2  C   UNK A   2       0.804   9.435  19.972  0.00  0.00    +0.000 C 
ATOM      3  C   UNK A   2       1.280   8.478  21.028  0.00  0.00    +0.000 C 
ATOM      4  O   UNK A   2       1.043   8.600  22.220  0.00  0.00    +0.000 OA
ATOM      5  N   PHE A   1       1.945   7.386  20.541  0.00  0.00    +0.000 N 
ATOM      6  CA  PHE A   1       2.622   7.380  19.254  0.00  0.00    +0.000 C 
ATOM      7  C   PHE A   1       2.196   8.461  18.241  0.00  0.00    +0.000 C 
ATOM      8  O   PHE A   1       2.605   8.444  17.078  0.00  0.00    +0.000 OA
ATOM      9  N   UNK A   2       1.501   9.539  18.776  0.00  0.00    +0.000 N 
ATOM     10  C   UNK A   2       1.713  10.852  18.171  0.00  0.00    +0.000 C 
ATOM     11  H   PHE A   1       2.286   6.774  21.269  0.00  0.00    +0.000 HD
ENDROOT
BRANCH   1  15
ATOM     12  C   UNK A   2      -3.419  11.429  17.500  0.00  0.00    +0.000 A 
ATOM     13  C   UNK A   2      -2.803  10.212  17.231  0.00  0.00    +0.000 A 
ATOM     14  C   UNK A   2      -1.827   9.715  18.097  0.00  0.00    +0.000 A 
ATOM     15  C   UNK A   2      -1.392  10.461  19.204  0.00  0.00    +0.000 A 
ATOM     16  C   UNK A   2      -2.002  11.693  19.450  0.00  0.00    +0.000 A 
ATOM     17  C   UNK A   2      -3.011  12.175  18.605  0.00  0.00    +0.000 A 
BRANCH  12  19
ATOM     18  C   UNK A   2      -5.659  12.069  17.181  0.00  0.00    +0.000 C 
ATOM     19  O   UNK A   2      -4.382  11.810  16.608  0.00  0.00    +0.000 OA
ENDBRANCH  12  19
ENDBRANCH   1  15
BRANCH   6  20
ATOM     20  CB  PHE A   1       2.694   5.980  18.617  0.00  0.00    +0.000 C 
BRANCH  20  21
ATOM     21  CG  PHE A   1       2.167   4.838  19.461  0.00  0.00    +0.000 A 
ATOM     22  CD1 PHE A   1       1.233   3.930  18.947  0.00  0.00    +0.000 A 
ATOM     23  CE1 PHE A   1       0.793   2.854  19.723  0.00  0.00    +0.000 A 
ATOM     24  CZ  PHE A   1       1.275   2.678  21.018  0.00  0.00    +0.000 A 
ATOM     25  CE2 PHE A   1       2.197   3.580  21.542  0.00  0.00    +0.000 A 
ATOM     26  CD2 PHE A   1       2.641   4.653  20.768  0.00  0.00    +0.000 A 
ENDBRANCH  20  21
ENDBRANCH   6  20
TORSDOF 4
ENDMDL
MODEL 2
REMARK VINA RESULT:      -8.0      1.561      2.295
REMARK  Name = 
REMARK  6 active torsions:
REMARK  status: ('A' for Active; 'I' for Inactive)
REMARK    1  A    between atoms: C_1  and  O_2
REMARK    2  A    between atoms: O_2  and  C_3
REMARK    3  A    between atoms: C_6  and  C_7
REMARK    4  A    between atoms: CA_12  and  CB_13
REMARK    5  A    between atoms: CB_13  and  CG_14
REMARK    6  A    between atoms: N_22  and  C_23
REMARK                            x       y       z     vdW  Elec       q    Type
REMARK                         _______ _______ _______ _____ _____    ______ ____
ROOT
ATOM      1  C   UNK A   2      -0.376   9.950  20.180  0.00  0.00    +0.000 C 
ATOM      2  C   UNK A   2       0.845   9.420  19.977  0.00  0.00    +0.000 C 
ATOM      3  C   UNK A   2       1.310   8.516  21.085  0.00  0.00    +0.000 C 
ATOM      4  O   UNK A   2       1.091   8.716  22.269  0.00  0.00    +0.000 OA
ATOM      5  N   PHE A   1       1.939   7.379  20.657  0.00  0.00    +0.000 N 
ATOM      6  CA  PHE A   1       2.598   7.277  19.365  0.00  0.00    +0.000 C 
ATOM      7  C   PHE A   1       2.187   8.306  18.293  0.00  0.00    +0.000 C 
ATOM      8  O   PHE A   1       2.580   8.207  17.128  0.00  0.00    +0.000 OA
ATOM      9  N   UNK A   2       1.528   9.433  18.769  0.00  0.00    +0.000 N 
ATOM     10  C   UNK A   2       1.766  10.701  18.083  0.00  0.00    +0.000 C 
ATOM     11  H   PHE A   1       2.274   6.803  21.417  0.00  0.00    +0.000 HD
ENDROOT
BRANCH   1  15
ATOM     12  C   UNK A   2      -3.357  11.372  17.437  0.00  0.00    +0.000 A 
ATOM     13  C   UNK A   2      -2.768  10.130  17.229  0.00  0.00    +0.000 A 
ATOM     14  C   UNK A   2      -1.794   9.660  18.113  0.00  0.00    +0.000 A 
ATOM     15  C   UNK A   2      -1.333  10.457  19.174  0.00  0.00    +0.000 A 
ATOM     16  C   UNK A   2      -1.916  11.713  19.357  0.00  0.00    +0.000 A 
ATOM     17  C   UNK A   2      -2.923  12.169  18.496  0.00  0.00    +0.000 A 
BRANCH  12  19
ATOM     18  C   UNK A   2      -5.594  12.014  17.100  0.00  0.00    +0.000 C 
ATOM     19  O   UNK A   2      -4.320  11.724  16.534  0.00  0.00    +0.000 OA
ENDBRANCH  12  19
ENDBRANCH   1  15
BRANCH   6  20
ATOM     20  CB  PHE A   1       2.626   5.840  18.813  0.00  0.00    +0.000 C 
BRANCH  20  21
ATOM     21  CG  PHE A   1       3.971   5.342  18.324  0.00  0.00    +0.000 A 
ATOM     22  CD1 PHE A   1       4.149   4.925  17.000  0.00  0.00    +0.000 A 
ATOM     23  CE1 PHE A   1       5.408   4.513  16.552  0.00  0.00    +0.000 A 
ATOM     24  CZ  PHE A   1       6.496   4.511  17.422  0.00  0.00    +0.000 A 
ATOM     25  CE2 PHE A   1       6.328   4.915  18.743  0.00  0.00    +0.000 A 
ATOM     26  CD2 PHE A   1       5.073   5.330  19.192  0.00  0.00    +0.000 A 
ENDBRANCH  20  21
ENDBRANCH   6  20
TORSDOF 4
ENDMDL
MODEL 3
REMARK VINA RESULT:      -8.0      1.680      2.547
REMARK  Name = 
REMARK  6 active torsions:
REMARK  status: ('A' for Active; 'I' for Inactive)
REMARK    1  A    between atoms: C_1  and  O_2
REMARK    2  A    between atoms: O_2  and  C_3
REMARK    3  A    between atoms: C_6  and  C_7
REMARK    4  A    between atoms: CA_12  and  CB_13
REMARK    5  A    between atoms: CB_13  and  CG_14
REMARK    6  A    between atoms: N_22  and  C_23
REMARK                            x       y       z     vdW  Elec       q    Type
REMARK                         _______ _______ _______ _____ _____    ______ ____
ROOT
ATOM      1  C   UNK A   2      -0.393   9.936  19.982  0.00  0.00    +0.000 C 
ATOM      2  C   UNK A   2       0.830   9.374  19.940  0.00  0.00    +0.000 C 
ATOM      3  C   UNK A   2       1.172   8.565  21.160  0.00  0.00    +0.000 C 
ATOM      4  O   UNK A   2       0.850   8.872  22.297  0.00  0.00    +0.000 OA
ATOM      5  N   PHE A   1       1.812   7.386  20.893  0.00  0.00    +0.000 N 
ATOM      6  CA  PHE A   1       2.585   7.161  19.682  0.00  0.00    +0.000 C 
ATOM      7  C   PHE A   1       2.297   8.097  18.492  0.00  0.00    +0.000 C 
ATOM      8  O   PHE A   1       2.793   7.891  17.381  0.00  0.00    +0.000 OA
ATOM      9  N   UNK A   2       1.622   9.271  18.804  0.00  0.00    +0.000 N 
ATOM     10  C   UNK A   2       1.949  10.470  18.037  0.00  0.00    +0.000 C 
ATOM     11  H   PHE A   1       2.064   6.875  21.727  0.00  0.00    +0.000 HD
ENDROOT
BRANCH   1  15
ATOM     12  C   UNK A   2      -3.074  11.075  16.828  0.00  0.00    +0.000 A 
ATOM     13  C   UNK A   2      -2.213   9.999  16.644  0.00  0.00    +0.000 A 
ATOM     14  C   UNK A   2      -1.334   9.623  17.662  0.00  0.00    +0.000 A 
ATOM     15  C   UNK A   2      -1.242  10.366  18.850  0.00  0.00    +0.000 A 
ATOM     16  C   UNK A   2      -2.095  11.460  19.013  0.00  0.00    +0.000 A 
ATOM     17  C   UNK A   2      -3.008  11.813  18.010  0.00  0.00    +0.000 A 
BRANCH  12  19
ATOM     18  C   UNK A   2      -3.780  10.467  14.669  0.00  0.00    +0.000 C 
ATOM     19  O   UNK A   2      -3.916  11.340  15.785  0.00  0.00    +0.000 OA
ENDBRANCH  12  19
ENDBRANCH   1  15
BRANCH   6  20
ATOM     20  CB  PHE A   1       2.632   5.681  19.261  0.00  0.00    +0.000 C 
BRANCH  20  21
ATOM     21  CG  PHE A   1       3.895   5.230  18.557  0.00  0.00    +0.000 A 
ATOM     22  CD1 PHE A   1       5.153   5.409  19.144  0.00  0.00    +0.000 A 
ATOM     23  CE1 PHE A   1       6.305   4.945  18.502  0.00  0.00    +0.000 A 
ATOM     24  CZ  PHE A   1       6.212   4.304  17.269  0.00  0.00    +0.000 A 
ATOM     25  CE2 PHE A   1       4.967   4.129  16.672  0.00  0.00    +0.000 A 
ATOM     26  CD2 PHE A   1       3.815   4.588  17.312  0.00  0.00    +0.000 A 
ENDBRANCH  20  21
ENDBRANCH   6  20
TORSDOF 4
ENDMDL
MODEL 4
REMARK VINA RESULT:      -7.7      5.077      7.246
REMARK  Name = 
REMARK  6 active torsions:
REMARK  status: ('A' for Active; 'I' for Inactive)
REMARK    1  A    between atoms: C_1  and  O_2
REMARK    2  A    between atoms: O_2  and  C_3
REMARK    3  A    between atoms: C_6  and  C_7
REMARK    4  A    between atoms: CA_12  and  CB_13
REMARK    5  A    between atoms: CB_13  and  CG_14
REMARK    6  A    between atoms: N_22  and  C_23
REMARK                            x       y       z     vdW  Elec       q    Type
REMARK                         _______ _______ _______ _____ _____    ______ ____
ROOT
ATOM      1  C   UNK A   2       3.478   4.896  18.246  0.00  0.00    +0.000 C 
ATOM      2  C   UNK A   2       4.700   4.584  17.775  0.00  0.00    +0.000 C 
ATOM      3  C   UNK A   2       4.734   3.328  16.950  0.00  0.00    +0.000 C 
ATOM      4  O   UNK A   2       4.071   2.331  17.192  0.00  0.00    +0.000 OA
ATOM      5  N   PHE A   1       5.517   3.410  15.831  0.00  0.00    +0.000 N 
ATOM      6  CA  PHE A   1       6.624   4.344  15.706  0.00  0.00    +0.000 C 
ATOM      7  C   PHE A   1       6.622   5.554  16.660  0.00  0.00    +0.000 C 
ATOM      8  O   PHE A   1       7.435   6.473  16.530  0.00  0.00    +0.000 OA
ATOM      9  N   UNK A   2       5.794   5.438  17.770  0.00  0.00    +0.000 N 
ATOM     10  C   UNK A   2       6.235   6.060  19.017  0.00  0.00    +0.000 C 
ATOM     11  H   PHE A   1       5.553   2.545  15.310  0.00  0.00    +0.000 HD
ENDROOT
BRANCH   1  15
ATOM     12  C   UNK A   2       1.732   8.646  19.396  0.00  0.00    +0.000 A 
ATOM     13  C   UNK A   2       2.309   8.513  18.138  0.00  0.00    +0.000 A 
ATOM     14  C   UNK A   2       2.884   7.299  17.756  0.00  0.00    +0.000 A 
ATOM     15  C   UNK A   2       2.964   6.221  18.653  0.00  0.00    +0.000 A 
ATOM     16  C   UNK A   2       2.402   6.375  19.922  0.00  0.00    +0.000 A 
ATOM     17  C   UNK A   2       1.787   7.579  20.293  0.00  0.00    +0.000 A 
BRANCH  12  19
ATOM     18  C   UNK A   2       0.142   9.848  20.645  0.00  0.00    +0.000 C 
ATOM     19  O   UNK A   2       1.169   9.863  19.659  0.00  0.00    +0.000 OA
ENDBRANCH  12  19
ENDBRANCH   1  15
BRANCH   6  20
ATOM     20  CB  PHE A   1       6.909   4.752  14.249  0.00  0.00    +0.000 C 
BRANCH  20  21
ATOM     21  CG  PHE A   1       6.262   3.893  13.181  0.00  0.00    +0.000 A 
ATOM     22  CD1 PHE A   1       4.907   4.040  12.859  0.00  0.00    +0.000 A 
ATOM     23  CE1 PHE A   1       4.337   3.273  11.838  0.00  0.00    +0.000 A 
ATOM     24  CZ  PHE A   1       5.111   2.353  11.135  0.00  0.00    +0.000 A 
ATOM     25  CE2 PHE A   1       6.457   2.193  11.453  0.00  0.00    +0.000 A 
ATOM     26  CD2 PHE A   1       7.029   2.959  12.469  0.00  0.00    +0.000 A 
ENDBRANCH  20  21
ENDBRANCH   6  20
TORSDOF 4
ENDMDL
MODEL 5
REMARK VINA RESULT:      -7.7      5.131      7.284
REMARK  Name = 
REMARK  6 active torsions:
REMARK  status: ('A' for Active; 'I' for Inactive)
REMARK    1  A    between atoms: C_1  and  O_2
REMARK    2  A    between atoms: O_2  and  C_3
REMARK    3  A    between atoms: C_6  and  C_7
REMARK    4  A    between atoms: CA_12  and  CB_13
REMARK    5  A    between atoms: CB_13  and  CG_14
REMARK    6  A    between atoms: N_22  and  C_23
REMARK                            x       y       z     vdW  Elec       q    Type
REMARK                         _______ _______ _______ _____ _____    ______ ____
ROOT
ATOM      1  C   UNK A   2       3.519   4.900  18.153  0.00  0.00    +0.000 C 
ATOM      2  C   UNK A   2       4.744   4.596  17.682  0.00  0.00    +0.000 C 
ATOM      3  C   UNK A   2       4.782   3.350  16.843  0.00  0.00    +0.000 C 
ATOM      4  O   UNK A   2       4.121   2.349  17.073  0.00  0.00    +0.000 OA
ATOM      5  N   PHE A   1       5.567   3.446  15.726  0.00  0.00    +0.000 N 
ATOM      6  CA  PHE A   1       6.673   4.383  15.614  0.00  0.00    +0.000 C 
ATOM      7  C   PHE A   1       6.666   5.583  16.581  0.00  0.00    +0.000 C 
ATOM      8  O   PHE A   1       7.477   6.505  16.463  0.00  0.00    +0.000 OA
ATOM      9  N   UNK A   2       5.836   5.453  17.688  0.00  0.00    +0.000 N 
ATOM     10  C   UNK A   2       6.273   6.063  18.942  0.00  0.00    +0.000 C 
ATOM     11  H   PHE A   1       5.606   2.587  15.196  0.00  0.00    +0.000 HD
ENDROOT
BRANCH   1  15
ATOM     12  C   UNK A   2       1.762   8.632  19.346  0.00  0.00    +0.000 A 
ATOM     13  C   UNK A   2       2.317   8.507  18.077  0.00  0.00    +0.000 A 
ATOM     14  C   UNK A   2       2.895   7.299  17.681  0.00  0.00    +0.000 A 
ATOM     15  C   UNK A   2       3.002   6.220  18.573  0.00  0.00    +0.000 A 
ATOM     16  C   UNK A   2       2.463   6.366  19.854  0.00  0.00    +0.000 A 
ATOM     17  C   UNK A   2       1.845   7.564  20.239  0.00  0.00    +0.000 A 
BRANCH  12  19
ATOM     18  C   UNK A   2       0.375  10.371  18.586  0.00  0.00    +0.000 C 
ATOM     19  O   UNK A   2       1.194   9.843  19.623  0.00  0.00    +0.000 OA
ENDBRANCH  12  19
ENDBRANCH   1  15
BRANCH   6  20
ATOM     20  CB  PHE A   1       6.959   4.807  14.161  0.00  0.00    +0.000 C 
BRANCH  20  21
ATOM     21  CG  PHE A   1       6.348   3.936  13.083  0.00  0.00    +0.000 A 
ATOM     22  CD1 PHE A   1       7.122   3.001  12.385  0.00  0.00    +0.000 A 
ATOM     23  CE1 PHE A   1       6.532   2.172  11.426  0.00  0.00    +0.000 A 
ATOM     24  CZ  PHE A   1       5.170   2.271  11.153  0.00  0.00    +0.000 A 
ATOM     25  CE2 PHE A   1       4.393   3.204  11.835  0.00  0.00    +0.000 A 
ATOM     26  CD2 PHE A   1       4.979   4.031  12.795  0.00  0.00    +0.000 A 
ENDBRANCH  20  21
ENDBRANCH   6  20
TORSDOF 4
ENDMDL
MODEL 6
REMARK VINA RESULT:      -7.6      1.594      2.269
REMARK  Name = 
REMARK  6 active torsions:
REMARK  status: ('A' for Active; 'I' for Inactive)
REMARK    1  A    between atoms: C_1  and  O_2
REMARK    2  A    between atoms: O_2  and  C_3
REMARK    3  A    between atoms: C_6  and  C_7
REMARK    4  A    between atoms: CA_12  and  CB_13
REMARK    5  A    between atoms: CB_13  and  CG_14
REMARK    6  A    between atoms: N_22  and  C_23
REMARK                            x       y       z     vdW  Elec       q    Type
REMARK                         _______ _______ _______ _____ _____    ______ ____
ROOT
ATOM      1  C   UNK A   2      -0.368  10.283  20.011  0.00  0.00    +0.000 C 
ATOM      2  C   UNK A   2       0.788   9.594  20.058  0.00  0.00    +0.000 C 
ATOM      3  C   UNK A   2       1.092   9.006  21.408  0.00  0.00    +0.000 C 
ATOM      4  O   UNK A   2       0.849   9.562  22.467  0.00  0.00    +0.000 OA
ATOM      5  N   PHE A   1       1.597   7.735  21.368  0.00  0.00    +0.000 N 
ATOM      6  CA  PHE A   1       2.294   7.196  20.211  0.00  0.00    +0.000 C 
ATOM      7  C   PHE A   1       2.056   7.908  18.864  0.00  0.00    +0.000 C 
ATOM      8  O   PHE A   1       2.484   7.436  17.808  0.00  0.00    +0.000 OA
ATOM      9  N   UNK A   2       1.519   9.186  18.951  0.00  0.00    +0.000 N 
ATOM     10  C   UNK A   2       1.938  10.170  17.955  0.00  0.00    +0.000 C 
ATOM     11  H   PHE A   1       1.827   7.372  22.282  0.00  0.00    +0.000 HD
ENDROOT
BRANCH   1  15
ATOM     12  C   UNK A   2      -2.626  11.012  16.432  0.00  0.00    +0.000 A 
ATOM     13  C   UNK A   2      -1.971  12.066  17.059  0.00  0.00    +0.000 A 
ATOM     14  C   UNK A   2      -1.238  11.841  18.226  0.00  0.00    +0.000 A 
ATOM     15  C   UNK A   2      -1.212  10.574  18.832  0.00  0.00    +0.000 A 
ATOM     16  C   UNK A   2      -1.894   9.528  18.206  0.00  0.00    +0.000 A 
ATOM     17  C   UNK A   2      -2.596   9.743  17.012  0.00  0.00    +0.000 A 
BRANCH  12  19
ATOM     18  C   UNK A   2      -3.519  10.238  14.399  0.00  0.00    +0.000 C 
ATOM     19  O   UNK A   2      -3.288  11.332  15.281  0.00  0.00    +0.000 OA
ENDBRANCH  12  19
ENDBRANCH   1  15
BRANCH   6  20
ATOM     20  CB  PHE A   1       2.171   5.666  20.091  0.00  0.00    +0.000 C 
BRANCH  20  21
ATOM     21  CG  PHE A   1       3.145   4.994  19.145  0.00  0.00    +0.000 A 
ATOM     22  CD1 PHE A   1       2.691   4.239  18.057  0.00  0.00    +0.000 A 
ATOM     23  CE1 PHE A   1       3.604   3.665  17.166  0.00  0.00    +0.000 A 
ATOM     24  CZ  PHE A   1       4.973   3.835  17.357  0.00  0.00    +0.000 A 
ATOM     25  CE2 PHE A   1       5.435   4.576  18.441  0.00  0.00    +0.000 A 
ATOM     26  CD2 PHE A   1       4.526   5.153  19.329  0.00  0.00    +0.000 A 
ENDBRANCH  20  21
ENDBRANCH   6  20
TORSDOF 4
ENDMDL
MODEL 7
REMARK VINA RESULT:      -7.4      1.536      1.856
REMARK  Name = 
REMARK  6 active torsions:
REMARK  status: ('A' for Active; 'I' for Inactive)
REMARK    1  A    between atoms: C_1  and  O_2
REMARK    2  A    between atoms: O_2  and  C_3
REMARK    3  A    between atoms: C_6  and  C_7
REMARK    4  A    between atoms: CA_12  and  CB_13
REMARK    5  A    between atoms: CB_13  and  CG_14
REMARK    6  A    between atoms: N_22  and  C_23
REMARK                            x       y       z     vdW  Elec       q    Type
REMARK                         _______ _______ _______ _____ _____    ______ ____
ROOT
ATOM      1  C   UNK A   2       0.252  10.080  19.951  0.00  0.00    +0.000 C 
ATOM      2  C   UNK A   2       1.208   9.135  20.027  0.00  0.00    +0.000 C 
ATOM      3  C   UNK A   2       1.469   8.641  21.423  0.00  0.00    +0.000 C 
ATOM      4  O   UNK A   2       1.451   9.352  22.415  0.00  0.00    +0.000 OA
ATOM      5  N   PHE A   1       1.648   7.287  21.517  0.00  0.00    +0.000 N 
ATOM      6  CA  PHE A   1       2.101   6.469  20.404  0.00  0.00    +0.000 C 
ATOM      7  C   PHE A   1       1.935   7.066  18.992  0.00  0.00    +0.000 C 
ATOM      8  O   PHE A   1       2.152   6.390  17.983  0.00  0.00    +0.000 OA
ATOM      9  N   UNK A   2       1.730   8.439  18.945  0.00  0.00    +0.000 N 
ATOM     10  C   UNK A   2       2.292   9.173  17.813  0.00  0.00    +0.000 C 
ATOM     11  H   PHE A   1       1.856   6.981  22.457  0.00  0.00    +0.000 HD
ENDROOT
BRANCH   1  15
ATOM     12  C   UNK A   2      -2.396  11.173  16.753  0.00  0.00    +0.000 A 
ATOM     13  C   UNK A   2      -2.074   9.835  16.953  0.00  0.00    +0.000 A 
ATOM     14  C   UNK A   2      -1.210   9.469  17.987  0.00  0.00    +0.000 A 
ATOM     15  C   UNK A   2      -0.589  10.440  18.790  0.00  0.00    +0.000 A 
ATOM     16  C   UNK A   2      -0.902  11.782  18.563  0.00  0.00    +0.000 A 
ATOM     17  C   UNK A   2      -1.801  12.148  17.553  0.00  0.00    +0.000 A 
BRANCH  12  19
ATOM     18  C   UNK A   2      -3.416  10.361  14.796  0.00  0.00    +0.000 C 
ATOM     19  O   UNK A   2      -3.274  11.420  15.736  0.00  0.00    +0.000 OA
ENDBRANCH  12  19
ENDBRANCH   1  15
BRANCH   6  20
ATOM     20  CB  PHE A   1       1.604   5.014  20.483  0.00  0.00    +0.000 C 
BRANCH  20  21
ATOM     21  CG  PHE A   1       2.335   4.015  19.610  0.00  0.00    +0.000 A 
ATOM     22  CD1 PHE A   1       1.640   3.191  18.716  0.00  0.00    +0.000 A 
ATOM     23  CE1 PHE A   1       2.334   2.308  17.883  0.00  0.00    +0.000 A 
ATOM     24  CZ  PHE A   1       3.724   2.237  17.938  0.00  0.00    +0.000 A 
ATOM     25  CE2 PHE A   1       4.425   3.044  18.830  0.00  0.00    +0.000 A 
ATOM     26  CD2 PHE A   1       3.735   3.929  19.660  0.00  0.00    +0.000 A 
ENDBRANCH  20  21
ENDBRANCH   6  20
TORSDOF 4
ENDMDL
MODEL 8
REMARK VINA RESULT:      -7.4      0.828      1.627
REMARK  Name = 
REMARK  6 active torsions:
REMARK  status: ('A' for Active; 'I' for Inactive)
REMARK    1  A    between atoms: C_1  and  O_2
REMARK    2  A    between atoms: O_2  and  C_3
REMARK    3  A    between atoms: C_6  and  C_7
REMARK    4  A    between atoms: CA_12  and  CB_13
REMARK    5  A    between atoms: CB_13  and  CG_14
REMARK    6  A    between atoms: N_22  and  C_23
REMARK                            x       y       z     vdW  Elec       q    Type
REMARK                         _______ _______ _______ _____ _____    ______ ____
ROOT
ATOM      1  C   UNK A   2      -0.347   9.733  19.866  0.00  0.00    +0.000 C 
ATOM      2  C   UNK A   2       0.920   9.290  19.770  0.00  0.00    +0.000 C 
ATOM      3  C   UNK A   2       1.354   8.426  20.922  0.00  0.00    +0.000 C 
ATOM      4  O   UNK A   2       1.024   8.616  22.082  0.00  0.00    +0.000 OA
ATOM      5  N   PHE A   1       2.094   7.334  20.559  0.00  0.00    +0.000 N 
ATOM      6  CA  PHE A   1       2.864   7.273  19.327  0.00  0.00    +0.000 C 
ATOM      7  C   PHE A   1       2.473   8.265  18.215  0.00  0.00    +0.000 C 
ATOM      8  O   PHE A   1       2.967   8.189  17.087  0.00  0.00    +0.000 OA
ATOM      9  N   UNK A   2       1.700   9.345  18.623  0.00  0.00    +0.000 N 
ATOM     10  C   UNK A   2       1.905  10.624  17.946  0.00  0.00    +0.000 C 
ATOM     11  H   PHE A   1       2.404   6.787  21.350  0.00  0.00    +0.000 HD
ENDROOT
BRANCH   1  15
ATOM     12  C   UNK A   2      -2.746  11.060  16.561  0.00  0.00    +0.000 A 
ATOM     13  C   UNK A   2      -2.649  11.849  17.702  0.00  0.00    +0.000 A 
ATOM     14  C   UNK A   2      -1.876  11.424  18.784  0.00  0.00    +0.000 A 
ATOM     15  C   UNK A   2      -1.250  10.167  18.779  0.00  0.00    +0.000 A 
ATOM     16  C   UNK A   2      -1.375   9.373  17.637  0.00  0.00    +0.000 A 
ATOM     17  C   UNK A   2      -2.116   9.816  16.533  0.00  0.00    +0.000 A 
BRANCH  12  19
ATOM     18  C   UNK A   2      -3.921  10.637  14.569  0.00  0.00    +0.000 C 
ATOM     19  O   UNK A   2      -3.500  11.580  15.548  0.00  0.00    +0.000 OA
ENDBRANCH  12  19
ENDBRANCH   1  15
BRANCH   6  20
ATOM     20  CB  PHE A   1       3.037   5.839  18.795  0.00  0.00    +0.000 C 
BRANCH  20  21
ATOM     21  CG  PHE A   1       2.404   4.741  19.625  0.00  0.00    +0.000 A 
ATOM     22  CD1 PHE A   1       2.864   4.455  20.916  0.00  0.00    +0.000 A 
ATOM     23  CE1 PHE A   1       2.237   3.471  21.687  0.00  0.00    +0.000 A 
ATOM     24  CZ  PHE A   1       1.152   2.763  21.176  0.00  0.00    +0.000 A 
ATOM     25  CE2 PHE A   1       0.693   3.033  19.889  0.00  0.00    +0.000 A 
ATOM     26  CD2 PHE A   1       1.314   4.017  19.119  0.00  0.00    +0.000 A 
ENDBRANCH  20  21
ENDBRANCH   6  20
TORSDOF 4
ENDMDL
MODEL 9
REMARK VINA RESULT:      -7.3      1.496      2.086
REMARK  Name = 
REMARK  6 active torsions:
REMARK  status: ('A' for Active; 'I' for Inactive)
REMARK    1  A    between atoms: C_1  and  O_2
REMARK    2  A    between atoms: O_2  and  C_3
REMARK    3  A    between atoms: C_6  and  C_7
REMARK    4  A    between atoms: CA_12  and  CB_13
REMARK    5  A    between atoms: CB_13  and  CG_14
REMARK    6  A    between atoms: N_22  and  C_23
REMARK                            x       y       z     vdW  Elec       q    Type
REMARK                         _______ _______ _______ _____ _____    ______ ____
ROOT
ATOM      1  C   UNK A   2      -0.203  10.235  20.018  0.00  0.00    +0.000 C 
ATOM      2  C   UNK A   2       0.904   9.471  20.083  0.00  0.00    +0.000 C 
ATOM      3  C   UNK A   2       1.212   8.961  21.463  0.00  0.00    +0.000 C 
ATOM      4  O   UNK A   2       1.043   9.606  22.485  0.00  0.00    +0.000 OA
ATOM      5  N   PHE A   1       1.627   7.658  21.502  0.00  0.00    +0.000 N 
ATOM      6  CA  PHE A   1       2.246   6.990  20.369  0.00  0.00    +0.000 C 
ATOM      7  C   PHE A   1       2.013   7.619  18.981  0.00  0.00    +0.000 C 
ATOM      8  O   PHE A   1       2.372   7.044  17.950  0.00  0.00    +0.000 OA
ATOM      9  N   UNK A   2       1.568   8.935  18.988  0.00  0.00    +0.000 N 
ATOM     10  C   UNK A   2       2.020   9.813  17.912  0.00  0.00    +0.000 C 
ATOM     11  H   PHE A   1       1.862   7.346  22.434  0.00  0.00    +0.000 HD
ENDROOT
BRANCH   1  15
ATOM     12  C   UNK A   2      -2.886  11.121  16.784  0.00  0.00    +0.000 A 
ATOM     13  C   UNK A   2      -2.772   9.814  17.246  0.00  0.00    +0.000 A 
ATOM     14  C   UNK A   2      -1.899   9.515  18.294  0.00  0.00    +0.000 A 
ATOM     15  C   UNK A   2      -1.064  10.500  18.845  0.00  0.00    +0.000 A 
ATOM     16  C   UNK A   2      -1.171  11.805  18.357  0.00  0.00    +0.000 A 
ATOM     17  C   UNK A   2      -2.077  12.115  17.334  0.00  0.00    +0.000 A 
BRANCH  12  19
ATOM     18  C   UNK A   2      -3.681  10.400  14.692  0.00  0.00    +0.000 C 
ATOM     19  O   UNK A   2      -3.791  11.313  15.779  0.00  0.00    +0.000 OA
ENDBRANCH  12  19
ENDBRANCH   1  15
BRANCH   6  20
ATOM     20  CB  PHE A   1       2.015   5.467  20.365  0.00  0.00    +0.000 C 
BRANCH  20  21
ATOM     21  CG  PHE A   1       2.791   4.681  19.329  0.00  0.00    +0.000 A 
ATOM     22  CD1 PHE A   1       4.191   4.668  19.331  0.00  0.00    +0.000 A 
ATOM     23  CE1 PHE A   1       4.892   3.898  18.397  0.00  0.00    +0.000 A 
ATOM     24  CZ  PHE A   1       4.203   3.140  17.453  0.00  0.00    +0.000 A 
ATOM     25  CE2 PHE A   1       2.811   3.154  17.436  0.00  0.00    +0.000 A 
ATOM     26  CD2 PHE A   1       2.109   3.918  18.369  0.00  0.00    +0.000 A 
ENDBRANCH  20  21
ENDBRANCH   6  20
TORSDOF 4
ENDMDL
