MODEL 1
REMARK VINA RESULT:      -8.8      0.000      0.000
REMARK  Name = 
REMARK  6 active torsions:
REMARK  status: ('A' for Active; 'I' for Inactive)
REMARK    1  A    between atoms: C_1  and  C_2
REMARK    2  A    between atoms: C_5  and  C_6
REMARK    3  A    between atoms: C_9  and  C_10
REMARK    4  A    between atoms: N_11  and  C_12
REMARK    5  A    between atoms: N_21  and  C_22
REMARK    6  A    between atoms: C_30  and  N_31
REMARK                            x       y       z     vdW  Elec       q    Type
REMARK                         _______ _______ _______ _____ _____    ______ ____
ROOT
ATOM      1  C   UNL     1       3.688   5.967  18.766  0.00  0.00    +0.000 C 
ATOM      2  N   UNL     1       4.386   6.654  17.658  0.00  0.00    +0.000 N 
ATOM      3  C   UNL     1       3.733   7.667  16.833  0.00  0.00    +0.000 C 
ATOM      4  C   UNL     1       5.205   5.829  16.876  0.00  0.00    +0.000 A 
ATOM      5  C   UNL     1       6.337   6.351  16.231  0.00  0.00    +0.000 A 
ATOM      6  C   UNL     1       7.101   5.564  15.365  0.00  0.00    +0.000 A 
ATOM      7  C   UNL     1       6.742   4.241  15.133  0.00  0.00    +0.000 A 
ATOM      8  C   UNL     1       5.627   3.706  15.777  0.00  0.00    +0.000 A 
ATOM      9  C   UNL     1       4.862   4.502  16.645  0.00  0.00    +0.000 A 
ATOM     10  C   UNL     1       3.652   3.955  17.287  0.00  0.00    +0.000 C 
ATOM     11  O   UNL     1       3.257   2.859  16.874  0.00  0.00    +0.000 OA
ATOM     12  N   UNL     1       3.093   4.671  18.372  0.00  0.00    +0.000 N 
ENDROOT
BRANCH  12  13
ATOM     13  C   UNL     1       2.492   3.823  19.394  0.00  0.00    +0.000 A 
ATOM     14  C   UNL     1       1.102   3.646  19.480  0.00  0.00    +0.000 A 
ATOM     15  C   UNL     1       0.518   3.017  20.591  0.00  0.00    +0.000 A 
ATOM     16  C   UNL     1       1.314   2.527  21.621  0.00  0.00    +0.000 A 
ATOM     17  C   UNL     1       2.696   2.637  21.527  0.00  0.00    +0.000 A 
ATOM     18  C   UNL     1       3.277   3.274  20.423  0.00  0.00    +0.000 A 
ENDBRANCH  12  13
BRANCH   1  22
ATOM     19  C   UNL     1       1.144   8.740  20.109  0.00  0.00    +0.000 A 
ATOM     20  C   UNL     1       1.249   7.794  21.115  0.00  0.00    +0.000 A 
ATOM     21  C   UNL     1       2.169   6.748  20.795  0.00  0.00    +0.000 A 
ATOM     22  C   UNL     1       2.684   6.858  19.513  0.00  0.00    +0.000 A 
ATOM     23  S   UNL     1       1.966   8.196  18.701  0.00  0.00    +0.000 S 
BRANCH  19  28
ATOM     24  C   UNL     1      -2.127  13.543  20.298  0.00  0.00    +0.000 C 
ATOM     25  C   UNL     1      -1.145  12.404  20.279  0.00  0.00    +0.000 A 
ATOM     26  C   UNL     1      -0.699  11.892  19.053  0.00  0.00    +0.000 A 
ATOM     27  C   UNL     1       0.114  10.747  19.001  0.00  0.00    +0.000 A 
ATOM     28  C   UNL     1       0.506  10.073  20.171  0.00  0.00    +0.000 A 
ATOM     29  C   UNL     1       0.125  10.626  21.400  0.00  0.00    +0.000 A 
ATOM     30  C   UNL     1      -0.692  11.767  21.443  0.00  0.00    +0.000 A 
BRANCH  30  31
ATOM     31  N   UNL     1      -1.117  12.223  22.759  0.00  0.00    +0.000 N 
ATOM     32  O   UNL     1      -0.450  13.114  23.299  0.00  0.00    +0.000 OA
ATOM     33  O   UNL     1      -2.101  11.663  23.260  0.00  0.00    +0.000 OA
ENDBRANCH  30  31
ENDBRANCH  19  28
ENDBRANCH   1  22
TORSDOF 4
ENDMDL
MODEL 2
REMARK VINA RESULT:      -8.7      2.565      9.353
REMARK  Name = 
REMARK  6 active torsions:
REMARK  status: ('A' for Active; 'I' for Inactive)
REMARK    1  A    between atoms: C_1  and  C_2
REMARK    2  A    between atoms: C_5  and  C_6
REMARK    3  A    between atoms: C_9  and  C_10
REMARK    4  A    between atoms: N_11  and  C_12
REMARK    5  A    between atoms: N_21  and  C_22
REMARK    6  A    between atoms: C_30  and  N_31
REMARK                            x       y       z     vdW  Elec       q    Type
REMARK                         _______ _______ _______ _____ _____    ______ ____
ROOT
ATOM      1  C   UNL     1       0.442  11.871  18.909  0.00  0.00    +0.000 C 
ATOM      2  N   UNL     1       1.066  12.675  19.982  0.00  0.00    +0.000 N 
ATOM      3  C   UNL     1       1.651  12.064  21.174  0.00  0.00    +0.000 C 
ATOM      4  C   UNL     1       0.382  13.851  20.311  0.00  0.00    +0.000 A 
ATOM      5  C   UNL     1       1.076  14.965  20.811  0.00  0.00    +0.000 A 
ATOM      6  C   UNL     1       0.393  16.105  21.242  0.00  0.00    +0.000 A 
ATOM      7  C   UNL     1      -0.995  16.149  21.176  0.00  0.00    +0.000 A 
ATOM      8  C   UNL     1      -1.696  15.054  20.670  0.00  0.00    +0.000 A 
ATOM      9  C   UNL     1      -1.004  13.910  20.241  0.00  0.00    +0.000 A 
ATOM     10  C   UNL     1      -1.745  12.730  19.754  0.00  0.00    +0.000 C 
ATOM     11  O   UNL     1      -2.968  12.737  19.928  0.00  0.00    +0.000 OA
ATOM     12  N   UNL     1      -1.023  11.734  19.055  0.00  0.00    +0.000 N 
ENDROOT
BRANCH  12  13
ATOM     13  C   UNL     1      -1.787  11.083  17.997  0.00  0.00    +0.000 A 
ATOM     14  C   UNL     1      -1.927  11.663  16.726  0.00  0.00    +0.000 A 
ATOM     15  C   UNL     1      -2.839  11.150  15.790  0.00  0.00    +0.000 A 
ATOM     16  C   UNL     1      -3.606  10.031  16.096  0.00  0.00    +0.000 A 
ATOM     17  C   UNL     1      -3.440   9.405  17.326  0.00  0.00    +0.000 A 
ATOM     18  C   UNL     1      -2.536   9.924  18.263  0.00  0.00    +0.000 A 
ENDBRANCH  12  13
BRANCH   1  22
ATOM     19  C   UNL     1       1.932   8.164  18.962  0.00  0.00    +0.000 A 
ATOM     20  C   UNL     1       2.409   8.754  17.804  0.00  0.00    +0.000 A 
ATOM     21  C   UNL     1       1.991  10.114  17.665  0.00  0.00    +0.000 A 
ATOM     22  C   UNL     1       1.126  10.516  18.670  0.00  0.00    +0.000 A 
ATOM     23  S   UNL     1       0.781   9.193  19.718  0.00  0.00    +0.000 S 
BRANCH  19  28
ATOM     24  C   UNL     1       3.005   2.751  20.795  0.00  0.00    +0.000 C 
ATOM     25  C   UNL     1       2.854   4.202  20.427  0.00  0.00    +0.000 A 
ATOM     26  C   UNL     1       1.837   4.966  21.015  0.00  0.00    +0.000 A 
ATOM     27  C   UNL     1       1.589   6.284  20.595  0.00  0.00    +0.000 A 
ATOM     28  C   UNL     1       2.347   6.883  19.574  0.00  0.00    +0.000 A 
ATOM     29  C   UNL     1       3.413   6.148  19.038  0.00  0.00    +0.000 A 
ATOM     30  C   UNL     1       3.650   4.830  19.458  0.00  0.00    +0.000 A 
BRANCH  30  31
ATOM     31  N   UNL     1       4.721   4.107  18.786  0.00  0.00    +0.000 N 
ATOM     32  O   UNL     1       5.836   4.107  19.322  0.00  0.00    +0.000 OA
ATOM     33  O   UNL     1       4.445   3.568  17.706  0.00  0.00    +0.000 OA
ENDBRANCH  30  31
ENDBRANCH  19  28
ENDBRANCH   1  22
TORSDOF 4
ENDMDL
MODEL 3
REMARK VINA RESULT:      -8.5      1.614      1.804
REMARK  Name = 
REMARK  6 active torsions:
REMARK  status: ('A' for Active; 'I' for Inactive)
REMARK    1  A    between atoms: C_1  and  C_2
REMARK    2  A    between atoms: C_5  and  C_6
REMARK    3  A    between atoms: C_9  and  C_10
REMARK    4  A    between atoms: N_11  and  C_12
REMARK    5  A    between atoms: N_21  and  C_22
REMARK    6  A    between atoms: C_30  and  N_31
REMARK                            x       y       z     vdW  Elec       q    Type
REMARK                         _______ _______ _______ _____ _____    ______ ____
ROOT
ATOM      1  C   UNL     1       3.674   5.955  18.776  0.00  0.00    +0.000 C 
ATOM      2  N   UNL     1       4.374   6.638  17.667  0.00  0.00    +0.000 N 
ATOM      3  C   UNL     1       3.723   7.649  16.838  0.00  0.00    +0.000 C 
ATOM      4  C   UNL     1       5.192   5.810  16.888  0.00  0.00    +0.000 A 
ATOM      5  C   UNL     1       6.327   6.329  16.242  0.00  0.00    +0.000 A 
ATOM      6  C   UNL     1       7.090   5.539  15.380  0.00  0.00    +0.000 A 
ATOM      7  C   UNL     1       6.730   4.215  15.152  0.00  0.00    +0.000 A 
ATOM      8  C   UNL     1       5.613   3.683  15.796  0.00  0.00    +0.000 A 
ATOM      9  C   UNL     1       4.849   4.483  16.660  0.00  0.00    +0.000 A 
ATOM     10  C   UNL     1       3.638   3.939  17.303  0.00  0.00    +0.000 C 
ATOM     11  O   UNL     1       3.241   2.843  16.894  0.00  0.00    +0.000 OA
ATOM     12  N   UNL     1       3.078   4.659  18.385  0.00  0.00    +0.000 N 
ENDROOT
BRANCH  12  13
ATOM     13  C   UNL     1       2.475   3.815  19.409  0.00  0.00    +0.000 A 
ATOM     14  C   UNL     1       1.085   3.639  19.494  0.00  0.00    +0.000 A 
ATOM     15  C   UNL     1       0.499   3.013  20.606  0.00  0.00    +0.000 A 
ATOM     16  C   UNL     1       1.293   2.527  21.639  0.00  0.00    +0.000 A 
ATOM     17  C   UNL     1       2.675   2.637  21.547  0.00  0.00    +0.000 A 
ATOM     18  C   UNL     1       3.258   3.270  20.442  0.00  0.00    +0.000 A 
ENDBRANCH  12  13
BRANCH   1  22
ATOM     19  C   UNL     1       1.124   8.730  20.104  0.00  0.00    +0.000 A 
ATOM     20  C   UNL     1       1.242   7.797  21.120  0.00  0.00    +0.000 A 
ATOM     21  C   UNL     1       2.166   6.753  20.806  0.00  0.00    +0.000 A 
ATOM     22  C   UNL     1       2.670   6.850  19.520  0.00  0.00    +0.000 A 
ATOM     23  S   UNL     1       1.939   8.174  18.696  0.00  0.00    +0.000 S 
BRANCH  19  28
ATOM     24  C   UNL     1      -0.918  14.150  19.592  0.00  0.00    +0.000 C 
ATOM     25  C   UNL     1      -0.507  12.726  19.849  0.00  0.00    +0.000 A 
ATOM     26  C   UNL     1       0.620  12.460  20.638  0.00  0.00    +0.000 A 
ATOM     27  C   UNL     1       1.104  11.148  20.788  0.00  0.00    +0.000 A 
ATOM     28  C   UNL     1       0.479  10.060  20.154  0.00  0.00    +0.000 A 
ATOM     29  C   UNL     1      -0.691  10.314  19.427  0.00  0.00    +0.000 A 
ATOM     30  C   UNL     1      -1.165  11.627  19.277  0.00  0.00    +0.000 A 
BRANCH  30  31
ATOM     31  N   UNL     1      -2.335  11.812  18.431  0.00  0.00    +0.000 N 
ATOM     32  O   UNL     1      -3.430  11.954  18.992  0.00  0.00    +0.000 OA
ATOM     33  O   UNL     1      -2.156  11.785  17.207  0.00  0.00    +0.000 OA
ENDBRANCH  30  31
ENDBRANCH  19  28
ENDBRANCH   1  22
TORSDOF 4
ENDMDL
MODEL 4
REMARK VINA RESULT:      -8.4      2.451      9.425
REMARK  Name = 
REMARK  6 active torsions:
REMARK  status: ('A' for Active; 'I' for Inactive)
REMARK    1  A    between atoms: C_1  and  C_2
REMARK    2  A    between atoms: C_5  and  C_6
REMARK    3  A    between atoms: C_9  and  C_10
REMARK    4  A    between atoms: N_11  and  C_12
REMARK    5  A    between atoms: N_21  and  C_22
REMARK    6  A    between atoms: C_30  and  N_31
REMARK                            x       y       z     vdW  Elec       q    Type
REMARK                         _______ _______ _______ _____ _____    ______ ____
ROOT
ATOM      1  C   UNL     1       0.193  11.667  19.299  0.00  0.00    +0.000 C 
ATOM      2  N   UNL     1       0.791  12.321  20.483  0.00  0.00    +0.000 N 
ATOM      3  C   UNL     1       1.325  11.560  21.609  0.00  0.00    +0.000 C 
ATOM      4  C   UNL     1       0.113  13.461  20.930  0.00  0.00    +0.000 A 
ATOM      5  C   UNL     1       0.805  14.493  21.586  0.00  0.00    +0.000 A 
ATOM      6  C   UNL     1       0.124  15.585  22.130  0.00  0.00    +0.000 A 
ATOM      7  C   UNL     1      -1.260  15.662  22.025  0.00  0.00    +0.000 A 
ATOM      8  C   UNL     1      -1.959  14.650  21.366  0.00  0.00    +0.000 A 
ATOM      9  C   UNL     1      -1.269  13.554  20.823  0.00  0.00    +0.000 A 
ATOM     10  C   UNL     1      -2.010  12.457  20.171  0.00  0.00    +0.000 C 
ATOM     11  O   UNL     1      -3.238  12.465  20.304  0.00  0.00    +0.000 OA
ATOM     12  N   UNL     1      -1.279  11.540  19.379  0.00  0.00    +0.000 N 
ENDROOT
BRANCH  12  13
ATOM     13  C   UNL     1      -2.014  11.037  18.225  0.00  0.00    +0.000 A 
ATOM     14  C   UNL     1      -2.644   9.783  18.242  0.00  0.00    +0.000 A 
ATOM     15  C   UNL     1      -3.154   9.210  17.067  0.00  0.00    +0.000 A 
ATOM     16  C   UNL     1      -3.071   9.894  15.858  0.00  0.00    +0.000 A 
ATOM     17  C   UNL     1      -2.506  11.163  15.829  0.00  0.00    +0.000 A 
ATOM     18  C   UNL     1      -1.988  11.729  17.002  0.00  0.00    +0.000 A 
ENDBRANCH  12  13
BRANCH   1  22
ATOM     19  C   UNL     1       1.778   8.009  19.021  0.00  0.00    +0.000 A 
ATOM     20  C   UNL     1       2.031   8.632  17.811  0.00  0.00    +0.000 A 
ATOM     21  C   UNL     1       1.556   9.979  17.773  0.00  0.00    +0.000 A 
ATOM     22  C   UNL     1       0.865  10.338  18.919  0.00  0.00    +0.000 A 
ATOM     23  S   UNL     1       0.744   8.989  19.983  0.00  0.00    +0.000 S 
BRANCH  19  28
ATOM     24  C   UNL     1       3.397   2.606  20.432  0.00  0.00    +0.000 C 
ATOM     25  C   UNL     1       3.105   4.058  20.171  0.00  0.00    +0.000 A 
ATOM     26  C   UNL     1       2.052   4.688  20.849  0.00  0.00    +0.000 A 
ATOM     27  C   UNL     1       1.673   6.003  20.532  0.00  0.00    +0.000 A 
ATOM     28  C   UNL     1       2.330   6.733  19.526  0.00  0.00    +0.000 A 
ATOM     29  C   UNL     1       3.430   6.134  18.900  0.00  0.00    +0.000 A 
ATOM     30  C   UNL     1       3.799   4.817  19.218  0.00  0.00    +0.000 A 
BRANCH  30  31
ATOM     31  N   UNL     1       4.897   4.239  18.457  0.00  0.00    +0.000 N 
ATOM     32  O   UNL     1       4.629   3.732  17.360  0.00  0.00    +0.000 OA
ATOM     33  O   UNL     1       6.021   4.268  18.976  0.00  0.00    +0.000 OA
ENDBRANCH  30  31
ENDBRANCH  19  28
ENDBRANCH   1  22
TORSDOF 4
ENDMDL
MODEL 5
REMARK VINA RESULT:      -8.4      2.349      9.702
REMARK  Name = 
REMARK  6 active torsions:
REMARK  status: ('A' for Active; 'I' for Inactive)
REMARK    1  A    between atoms: C_1  and  C_2
REMARK    2  A    between atoms: C_5  and  C_6
REMARK    3  A    between atoms: C_9  and  C_10
REMARK    4  A    between atoms: N_11  and  C_12
REMARK    5  A    between atoms: N_21  and  C_22
REMARK    6  A    between atoms: C_30  and  N_31
REMARK                            x       y       z     vdW  Elec       q    Type
REMARK                         _______ _______ _______ _____ _____    ______ ____
ROOT
ATOM      1  C   UNL     1      -0.862  11.787  20.190  0.00  0.00    +0.000 C 
ATOM      2  N   UNL     1      -0.827  12.528  21.469  0.00  0.00    +0.000 N 
ATOM      3  C   UNL     1      -0.804  11.850  22.763  0.00  0.00    +0.000 C 
ATOM      4  C   UNL     1      -1.649  13.660  21.516  0.00  0.00    +0.000 A 
ATOM      5  C   UNL     1      -1.314  14.753  22.331  0.00  0.00    +0.000 A 
ATOM      6  C   UNL     1      -2.177  15.843  22.467  0.00  0.00    +0.000 A 
ATOM      7  C   UNL     1      -3.390  15.856  21.787  0.00  0.00    +0.000 A 
ATOM      8  C   UNL     1      -3.730  14.782  20.964  0.00  0.00    +0.000 A 
ATOM      9  C   UNL     1      -2.859  13.689  20.834  0.00  0.00    +0.000 A 
ATOM     10  C   UNL     1      -3.239  12.528  20.005  0.00  0.00    +0.000 C 
ATOM     11  O   UNL     1      -4.409  12.492  19.611  0.00  0.00    +0.000 OA
ATOM     12  N   UNL     1      -2.228  11.602  19.654  0.00  0.00    +0.000 N 
ENDROOT
BRANCH  12  13
ATOM     13  C   UNL     1      -2.401  11.008  18.334  0.00  0.00    +0.000 A 
ATOM     14  C   UNL     1      -2.134  11.731  17.161  0.00  0.00    +0.000 A 
ATOM     15  C   UNL     1      -2.513  11.238  15.902  0.00  0.00    +0.000 A 
ATOM     16  C   UNL     1      -3.139  10.001  15.791  0.00  0.00    +0.000 A 
ATOM     17  C   UNL     1      -3.358   9.242  16.934  0.00  0.00    +0.000 A 
ATOM     18  C   UNL     1      -2.989   9.739  18.190  0.00  0.00    +0.000 A 
ENDBRANCH  12  13
BRANCH   1  22
ATOM     19  C   UNL     1       1.433   8.575  19.568  0.00  0.00    +0.000 A 
ATOM     20  C   UNL     1       0.808   8.372  20.786  0.00  0.00    +0.000 A 
ATOM     21  C   UNL     1      -0.090   9.429  21.130  0.00  0.00    +0.000 A 
ATOM     22  C   UNL     1      -0.070  10.469  20.215  0.00  0.00    +0.000 A 
ATOM     23  S   UNL     1       1.109  10.163  18.997  0.00  0.00    +0.000 S 
BRANCH  19  28
ATOM     24  C   UNL     1       5.149   4.899  17.021  0.00  0.00    +0.000 C 
ATOM     25  C   UNL     1       4.071   5.796  17.564  0.00  0.00    +0.000 A 
ATOM     26  C   UNL     1       4.048   7.151  17.205  0.00  0.00    +0.000 A 
ATOM     27  C   UNL     1       3.135   8.040  17.797  0.00  0.00    +0.000 A 
ATOM     28  C   UNL     1       2.215   7.607  18.768  0.00  0.00    +0.000 A 
ATOM     29  C   UNL     1       2.185   6.240  19.072  0.00  0.00    +0.000 A 
ATOM     30  C   UNL     1       3.104   5.359  18.481  0.00  0.00    +0.000 A 
BRANCH  30  31
ATOM     31  N   UNL     1       3.063   3.972  18.921  0.00  0.00    +0.000 N 
ATOM     32  O   UNL     1       3.737   3.664  19.912  0.00  0.00    +0.000 OA
ATOM     33  O   UNL     1       2.377   3.188  18.251  0.00  0.00    +0.000 OA
ENDBRANCH  30  31
ENDBRANCH  19  28
ENDBRANCH   1  22
TORSDOF 4
ENDMDL
MODEL 6
REMARK VINA RESULT:      -8.4      3.180      9.247
REMARK  Name = 
REMARK  6 active torsions:
REMARK  status: ('A' for Active; 'I' for Inactive)
REMARK    1  A    between atoms: C_1  and  C_2
REMARK    2  A    between atoms: C_5  and  C_6
REMARK    3  A    between atoms: C_9  and  C_10
REMARK    4  A    between atoms: N_11  and  C_12
REMARK    5  A    between atoms: N_21  and  C_22
REMARK    6  A    between atoms: C_30  and  N_31
REMARK                            x       y       z     vdW  Elec       q    Type
REMARK                         _______ _______ _______ _____ _____    ______ ____
ROOT
ATOM      1  C   UNL     1       0.850  12.615  18.788  0.00  0.00    +0.000 C 
ATOM      2  N   UNL     1       2.016  13.505  18.978  0.00  0.00    +0.000 N 
ATOM      3  C   UNL     1       2.883  13.416  20.150  0.00  0.00    +0.000 C 
ATOM      4  C   UNL     1       1.800  14.842  18.620  0.00  0.00    +0.000 A 
ATOM      5  C   UNL     1       2.863  15.641  18.169  0.00  0.00    +0.000 A 
ATOM      6  C   UNL     1       2.683  17.002  17.910  0.00  0.00    +0.000 A 
ATOM      7  C   UNL     1       1.434  17.583  18.097  0.00  0.00    +0.000 A 
ATOM      8  C   UNL     1       0.366  16.799  18.533  0.00  0.00    +0.000 A 
ATOM      9  C   UNL     1       0.555  15.432  18.794  0.00  0.00    +0.000 A 
ATOM     10  C   UNL     1      -0.559  14.610  19.305  0.00  0.00    +0.000 C 
ATOM     11  O   UNL     1      -1.573  15.218  19.664  0.00  0.00    +0.000 OA
ATOM     12  N   UNL     1      -0.421  13.202  19.263  0.00  0.00    +0.000 N 
ENDROOT
BRANCH  12  13
ATOM     13  C   UNL     1      -1.670  12.492  19.015  0.00  0.00    +0.000 A 
ATOM     14  C   UNL     1      -1.928  11.863  17.788  0.00  0.00    +0.000 A 
ATOM     15  C   UNL     1      -3.209  11.378  17.476  0.00  0.00    +0.000 A 
ATOM     16  C   UNL     1      -4.246  11.488  18.396  0.00  0.00    +0.000 A 
ATOM     17  C   UNL     1      -3.997  12.053  19.641  0.00  0.00    +0.000 A 
ATOM     18  C   UNL     1      -2.722  12.545  19.947  0.00  0.00    +0.000 A 
ENDBRANCH  12  13
BRANCH   1  22
ATOM     19  C   UNL     1       1.705   8.778  19.506  0.00  0.00    +0.000 A 
ATOM     20  C   UNL     1       1.051   9.245  20.634  0.00  0.00    +0.000 A 
ATOM     21  C   UNL     1       0.638  10.607  20.509  0.00  0.00    +0.000 A 
ATOM     22  C   UNL     1       1.063  11.191  19.326  0.00  0.00    +0.000 A 
ATOM     23  S   UNL     1       2.028  10.080  18.432  0.00  0.00    +0.000 S 
BRANCH  19  28
ATOM     24  C   UNL     1       3.771   3.414  18.631  0.00  0.00    +0.000 C 
ATOM     25  C   UNL     1       3.094   4.750  18.774  0.00  0.00    +0.000 A 
ATOM     26  C   UNL     1       3.428   5.795  17.900  0.00  0.00    +0.000 A 
ATOM     27  C   UNL     1       2.911   7.088  18.090  0.00  0.00    +0.000 A 
ATOM     28  C   UNL     1       2.046   7.381  19.159  0.00  0.00    +0.000 A 
ATOM     29  C   UNL     1       1.651   6.323  19.987  0.00  0.00    +0.000 A 
ATOM     30  C   UNL     1       2.177   5.035  19.795  0.00  0.00    +0.000 A 
BRANCH  30  31
ATOM     31  N   UNL     1       1.785   4.014  20.756  0.00  0.00    +0.000 N 
ATOM     32  O   UNL     1       0.827   3.288  20.461  0.00  0.00    +0.000 OA
ATOM     33  O   UNL     1       2.421   3.964  21.817  0.00  0.00    +0.000 OA
ENDBRANCH  30  31
ENDBRANCH  19  28
ENDBRANCH   1  22
TORSDOF 4
ENDMDL
MODEL 7
REMARK VINA RESULT:      -8.4      1.170      1.335
REMARK  Name = 
REMARK  6 active torsions:
REMARK  status: ('A' for Active; 'I' for Inactive)
REMARK    1  A    between atoms: C_1  and  C_2
REMARK    2  A    between atoms: C_5  and  C_6
REMARK    3  A    between atoms: C_9  and  C_10
REMARK    4  A    between atoms: N_11  and  C_12
REMARK    5  A    between atoms: N_21  and  C_22
REMARK    6  A    between atoms: C_30  and  N_31
REMARK                            x       y       z     vdW  Elec       q    Type
REMARK                         _______ _______ _______ _____ _____    ______ ____
ROOT
ATOM      1  C   UNL     1       3.747   6.004  18.656  0.00  0.00    +0.000 C 
ATOM      2  N   UNL     1       4.487   6.631  17.540  0.00  0.00    +0.000 N 
ATOM      3  C   UNL     1       3.876   7.621  16.656  0.00  0.00    +0.000 C 
ATOM      4  C   UNL     1       5.310   5.760  16.817  0.00  0.00    +0.000 A 
ATOM      5  C   UNL     1       6.469   6.234  16.181  0.00  0.00    +0.000 A 
ATOM      6  C   UNL     1       7.240   5.398  15.370  0.00  0.00    +0.000 A 
ATOM      7  C   UNL     1       6.863   4.072  15.184  0.00  0.00    +0.000 A 
ATOM      8  C   UNL     1       5.720   3.585  15.819  0.00  0.00    +0.000 A 
ATOM      9  C   UNL     1       4.949   4.431  16.631  0.00  0.00    +0.000 A 
ATOM     10  C   UNL     1       3.712   3.933  17.262  0.00  0.00    +0.000 C 
ATOM     11  O   UNL     1       3.306   2.828  16.885  0.00  0.00    +0.000 OA
ATOM     12  N   UNL     1       3.137   4.705  18.301  0.00  0.00    +0.000 N 
ENDROOT
BRANCH  12  13
ATOM     13  C   UNL     1       2.493   3.911  19.340  0.00  0.00    +0.000 A 
ATOM     14  C   UNL     1       1.098   3.769  19.400  0.00  0.00    +0.000 A 
ATOM     15  C   UNL     1       0.474   3.198  20.520  0.00  0.00    +0.000 A 
ATOM     16  C   UNL     1       1.234   2.731  21.587  0.00  0.00    +0.000 A 
ATOM     17  C   UNL     1       2.620   2.806  21.522  0.00  0.00    +0.000 A 
ATOM     18  C   UNL     1       3.241   3.386  20.408  0.00  0.00    +0.000 A 
ENDBRANCH  12  13
BRANCH   1  22
ATOM     19  C   UNL     1       1.172   8.844  19.786  0.00  0.00    +0.000 A 
ATOM     20  C   UNL     1       1.323   8.005  20.876  0.00  0.00    +0.000 A 
ATOM     21  C   UNL     1       2.259   6.951  20.637  0.00  0.00    +0.000 A 
ATOM     22  C   UNL     1       2.740   6.945  19.338  0.00  0.00    +0.000 A 
ATOM     23  S   UNL     1       1.973   8.181  18.417  0.00  0.00    +0.000 S 
BRANCH  19  28
ATOM     24  C   UNL     1      -1.672  13.877  20.415  0.00  0.00    +0.000 C 
ATOM     25  C   UNL     1      -0.888  12.633  20.097  0.00  0.00    +0.000 A 
ATOM     26  C   UNL     1      -1.556  11.487  19.644  0.00  0.00    +0.000 A 
ATOM     27  C   UNL     1      -0.870  10.274  19.464  0.00  0.00    +0.000 A 
ATOM     28  C   UNL     1       0.506  10.163  19.732  0.00  0.00    +0.000 A 
ATOM     29  C   UNL     1       1.191  11.325  20.111  0.00  0.00    +0.000 A 
ATOM     30  C   UNL     1       0.497  12.532  20.295  0.00  0.00    +0.000 A 
BRANCH  30  31
ATOM     31  N   UNL     1       1.269  13.668  20.777  0.00  0.00    +0.000 N 
ATOM     32  O   UNL     1       1.760  14.427  19.932  0.00  0.00    +0.000 OA
ATOM     33  O   UNL     1       1.406  13.778  22.003  0.00  0.00    +0.000 OA
ENDBRANCH  30  31
ENDBRANCH  19  28
ENDBRANCH   1  22
TORSDOF 4
ENDMDL
MODEL 8
REMARK VINA RESULT:      -8.4      2.902      9.471
REMARK  Name = 
REMARK  6 active torsions:
REMARK  status: ('A' for Active; 'I' for Inactive)
REMARK    1  A    between atoms: C_1  and  C_2
REMARK    2  A    between atoms: C_5  and  C_6
REMARK    3  A    between atoms: C_9  and  C_10
REMARK    4  A    between atoms: N_11  and  C_12
REMARK    5  A    between atoms: N_21  and  C_22
REMARK    6  A    between atoms: C_30  and  N_31
REMARK                            x       y       z     vdW  Elec       q    Type
REMARK                         _______ _______ _______ _____ _____    ______ ____
ROOT
ATOM      1  C   UNL     1       0.716  12.646  18.767  0.00  0.00    +0.000 C 
ATOM      2  N   UNL     1       1.791  13.571  19.186  0.00  0.00    +0.000 N 
ATOM      3  C   UNL     1       2.619  13.322  20.363  0.00  0.00    +0.000 C 
ATOM      4  C   UNL     1       1.472  14.930  19.081  0.00  0.00    +0.000 A 
ATOM      5  C   UNL     1       2.476  15.884  18.850  0.00  0.00    +0.000 A 
ATOM      6  C   UNL     1       2.187  17.251  18.849  0.00  0.00    +0.000 A 
ATOM      7  C   UNL     1       0.885  17.684  19.078  0.00  0.00    +0.000 A 
ATOM      8  C   UNL     1      -0.125  16.747  19.297  0.00  0.00    +0.000 A 
ATOM      9  C   UNL     1       0.174  15.374  19.299  0.00  0.00    +0.000 A 
ATOM     10  C   UNL     1      -0.882  14.383  19.582  0.00  0.00    +0.000 C 
ATOM     11  O   UNL     1      -1.958  14.827  19.998  0.00  0.00    +0.000 OA
ATOM     12  N   UNL     1      -0.619  13.026  19.277  0.00  0.00    +0.000 N 
ENDROOT
BRANCH  12  13
ATOM     13  C   UNL     1      -1.791  12.282  18.832  0.00  0.00    +0.000 A 
ATOM     14  C   UNL     1      -1.874  11.746  17.537  0.00  0.00    +0.000 A 
ATOM     15  C   UNL     1      -3.082  11.231  17.041  0.00  0.00    +0.000 A 
ATOM     16  C   UNL     1      -4.221  11.215  17.840  0.00  0.00    +0.000 A 
ATOM     17  C   UNL     1      -4.146  11.685  19.145  0.00  0.00    +0.000 A 
ATOM     18  C   UNL     1      -2.942  12.208  19.636  0.00  0.00    +0.000 A 
ENDBRANCH  12  13
BRANCH   1  22
ATOM     19  C   UNL     1       1.917   8.835  18.798  0.00  0.00    +0.000 A 
ATOM     20  C   UNL     1       1.113   8.995  19.913  0.00  0.00    +0.000 A 
ATOM     21  C   UNL     1       0.566  10.311  20.016  0.00  0.00    +0.000 A 
ATOM     22  C   UNL     1       1.033  11.166  19.031  0.00  0.00    +0.000 A 
ATOM     23  S   UNL     1       2.195  10.357  18.049  0.00  0.00    +0.000 S 
BRANCH  19  28
ATOM     24  C   UNL     1       4.479   3.848  17.256  0.00  0.00    +0.000 C 
ATOM     25  C   UNL     1       3.716   5.118  17.516  0.00  0.00    +0.000 A 
ATOM     26  C   UNL     1       4.269   6.351  17.141  0.00  0.00    +0.000 A 
ATOM     27  C   UNL     1       3.641   7.559  17.488  0.00  0.00    +0.000 A 
ATOM     28  C   UNL     1       2.442   7.579  18.221  0.00  0.00    +0.000 A 
ATOM     29  C   UNL     1       1.848   6.348  18.530  0.00  0.00    +0.000 A 
ATOM     30  C   UNL     1       2.484   5.145  18.186  0.00  0.00    +0.000 A 
BRANCH  30  31
ATOM     31  N   UNL     1       1.844   3.913  18.625  0.00  0.00    +0.000 N 
ATOM     32  O   UNL     1       1.086   3.346  17.827  0.00  0.00    +0.000 OA
ATOM     33  O   UNL     1       2.081   3.535  19.780  0.00  0.00    +0.000 OA
ENDBRANCH  30  31
ENDBRANCH  19  28
ENDBRANCH   1  22
TORSDOF 4
ENDMDL
MODEL 9
REMARK VINA RESULT:      -8.4      2.742     10.105
REMARK  Name = 
REMARK  6 active torsions:
REMARK  status: ('A' for Active; 'I' for Inactive)
REMARK    1  A    between atoms: C_1  and  C_2
REMARK    2  A    between atoms: C_5  and  C_6
REMARK    3  A    between atoms: C_9  and  C_10
REMARK    4  A    between atoms: N_11  and  C_12
REMARK    5  A    between atoms: N_21  and  C_22
REMARK    6  A    between atoms: C_30  and  N_31
REMARK                            x       y       z     vdW  Elec       q    Type
REMARK                         _______ _______ _______ _____ _____    ______ ____
ROOT
ATOM      1  C   UNL     1       0.013  11.987  20.047  0.00  0.00    +0.000 C 
ATOM      2  N   UNL     1      -1.459  11.848  20.073  0.00  0.00    +0.000 N 
ATOM      3  C   UNL     1      -2.200  11.189  19.000  0.00  0.00    +0.000 C 
ATOM      4  C   UNL     1      -2.149  12.976  20.533  0.00  0.00    +0.000 A 
ATOM      5  C   UNL     1      -3.392  12.843  21.173  0.00  0.00    +0.000 A 
ATOM      6  C   UNL     1      -4.137  13.965  21.542  0.00  0.00    +0.000 A 
ATOM      7  C   UNL     1      -3.649  15.240  21.276  0.00  0.00    +0.000 A 
ATOM      8  C   UNL     1      -2.411  15.387  20.651  0.00  0.00    +0.000 A 
ATOM      9  C   UNL     1      -1.667  14.255  20.282  0.00  0.00    +0.000 A 
ATOM     10  C   UNL     1      -0.381  14.407  19.575  0.00  0.00    +0.000 C 
ATOM     11  O   UNL     1      -0.107  15.541  19.166  0.00  0.00    +0.000 OA
ATOM     12  N   UNL     1       0.472  13.280  19.495  0.00  0.00    +0.000 N 
ENDROOT
BRANCH  12  13
ATOM     13  C   UNL     1       1.891  13.608  19.534  0.00  0.00    +0.000 A 
ATOM     14  C   UNL     1       2.569  13.803  20.747  0.00  0.00    +0.000 A 
ATOM     15  C   UNL     1       3.868  14.334  20.776  0.00  0.00    +0.000 A 
ATOM     16  C   UNL     1       4.525  14.653  19.592  0.00  0.00    +0.000 A 
ATOM     17  C   UNL     1       3.895  14.412  18.377  0.00  0.00    +0.000 A 
ATOM     18  C   UNL     1       2.595  13.891  18.350  0.00  0.00    +0.000 A 
ENDBRANCH  12  13
BRANCH   1  22
ATOM     19  C   UNL     1       1.795   8.556  19.037  0.00  0.00    +0.000 A 
ATOM     20  C   UNL     1       1.924   9.393  17.943  0.00  0.00    +0.000 A 
ATOM     21  C   UNL     1       1.366  10.690  18.170  0.00  0.00    +0.000 A 
ATOM     22  C   UNL     1       0.737  10.796  19.400  0.00  0.00    +0.000 A 
ATOM     23  S   UNL     1       0.773   9.279  20.216  0.00  0.00    +0.000 S 
BRANCH  19  28
ATOM     24  C   UNL     1       3.777   3.105  19.450  0.00  0.00    +0.000 C 
ATOM     25  C   UNL     1       3.404   4.562  19.433  0.00  0.00    +0.000 A 
ATOM     26  C   UNL     1       2.455   5.048  20.343  0.00  0.00    +0.000 A 
ATOM     27  C   UNL     1       1.991   6.372  20.266  0.00  0.00    +0.000 A 
ATOM     28  C   UNL     1       2.457   7.255  19.277  0.00  0.00    +0.000 A 
ATOM     29  C   UNL     1       3.462   6.796  18.415  0.00  0.00    +0.000 A 
ATOM     30  C   UNL     1       3.915   5.470  18.494  0.00  0.00    +0.000 A 
BRANCH  30  31
ATOM     31  N   UNL     1       4.895   5.049  17.503  0.00  0.00    +0.000 N 
ATOM     32  O   UNL     1       6.091   5.149  17.801  0.00  0.00    +0.000 OA
ATOM     33  O   UNL     1       4.459   4.646  16.416  0.00  0.00    +0.000 OA
ENDBRANCH  30  31
ENDBRANCH  19  28
ENDBRANCH   1  22
TORSDOF 4
ENDMDL
