MODEL 1
REMARK VINA RESULT:      -8.2      0.000      0.000
REMARK  Name = 
REMARK  4 active torsions:
REMARK  status: ('A' for Active; 'I' for Inactive)
REMARK    1  A    between atoms: C_1  and  C_2
REMARK    2  A    between atoms: C_9  and  C_10
REMARK    3  A    between atoms: C_14  and  C_15
REMARK    4  A    between atoms: C_17  and  O_18
REMARK                            x       y       z     vdW  Elec       q    Type
REMARK                         _______ _______ _______ _____ _____    ______ ____
ROOT
ATOM      1  C   UNL     1       1.676   9.837  18.248  0.00  0.00    +0.000 C 
ATOM      2  C   UNL     1       2.242   8.463  18.402  0.00  0.00    +0.000 A 
ATOM      3  C   UNL     1       3.225   7.977  17.548  0.00  0.00    +0.000 A 
ATOM      4  N   UNL     1       3.773   6.746  17.650  0.00  0.00    +0.000 NA
ATOM      5  C   UNL     1       3.314   5.947  18.640  0.00  0.00    +0.000 A 
ATOM      6  C   UNL     1       2.329   6.340  19.568  0.00  0.00    +0.000 A 
ATOM      7  C   UNL     1       1.801   7.620  19.425  0.00  0.00    +0.000 A 
ATOM      8  N   UNL     1       1.847   5.524  20.617  0.00  0.00    +0.000 NA
ATOM      9  C   UNL     1       2.327   4.319  20.731  0.00  0.00    +0.000 A 
ATOM     10  C   UNL     1       1.858   3.420  21.836  0.00  0.00    +0.000 C 
ATOM     11  C   UNL     1       3.307   3.838  19.803  0.00  0.00    +0.000 A 
ATOM     12  N   UNL     1       3.855   2.652  19.773  0.00  0.00    +0.000 NA
ATOM     13  N   UNL     1       4.711   2.641  18.704  0.00  0.00    +0.000 NA
ATOM     14  C   UNL     1       4.692   3.824  18.097  0.00  0.00    +0.000 A 
ATOM     15  N   UNL     1       3.785   4.621  18.785  0.00  0.00    +0.000 N 
ENDROOT
BRANCH  14  16
ATOM     16  C   UNL     1       5.513   4.156  16.916  0.00  0.00    +0.000 A 
ATOM     17  C   UNL     1       5.089   3.791  15.627  0.00  0.00    +0.000 A 
ATOM     18  C   UNL     1       5.804   4.174  14.495  0.00  0.00    +0.000 A 
ATOM     19  C   UNL     1       7.013   4.839  14.610  0.00  0.00    +0.000 A 
ATOM     20  C   UNL     1       7.505   5.130  15.878  0.00  0.00    +0.000 A 
ATOM     21  C   UNL     1       6.763   4.803  17.023  0.00  0.00    +0.000 A 
ATOM     22 CL   UNL     1       7.473   5.257  18.537  0.00  0.00    +0.000 Cl
BRANCH  18  23
ATOM     23  O   UNL     1       5.333   3.914  13.243  0.00  0.00    +0.000 OA
ATOM     24  H   UNL     1       4.873   4.707  12.917  0.00  0.00    +0.000 HD
ENDBRANCH  18  23
ENDBRANCH  14  16
TORSDOF 2
ENDMDL
MODEL 2
REMARK VINA RESULT:      -7.0      1.219      3.732
REMARK  Name = 
REMARK  4 active torsions:
REMARK  status: ('A' for Active; 'I' for Inactive)
REMARK    1  A    between atoms: C_1  and  C_2
REMARK    2  A    between atoms: C_9  and  C_10
REMARK    3  A    between atoms: C_14  and  C_15
REMARK    4  A    between atoms: C_17  and  O_18
REMARK                            x       y       z     vdW  Elec       q    Type
REMARK                         _______ _______ _______ _____ _____    ______ ____
ROOT
ATOM      1  C   UNL     1       2.186   2.081  21.940  0.00  0.00    +0.000 C 
ATOM      2  C   UNL     1       2.480   3.228  21.028  0.00  0.00    +0.000 A 
ATOM      3  C   UNL     1       3.389   3.118  19.983  0.00  0.00    +0.000 A 
ATOM      4  N   UNL     1       3.684   4.122  19.128  0.00  0.00    +0.000 NA
ATOM      5  C   UNL     1       3.058   5.304  19.327  0.00  0.00    +0.000 A 
ATOM      6  C   UNL     1       2.111   5.525  20.347  0.00  0.00    +0.000 A 
ATOM      7  C   UNL     1       1.836   4.457  21.196  0.00  0.00    +0.000 A 
ATOM      8  N   UNL     1       1.436   6.749  20.560  0.00  0.00    +0.000 NA
ATOM      9  C   UNL     1       1.715   7.751  19.778  0.00  0.00    +0.000 A 
ATOM     10  C   UNL     1       1.015   9.066  19.955  0.00  0.00    +0.000 C 
ATOM     11  C   UNL     1       2.692   7.610  18.740  0.00  0.00    +0.000 A 
ATOM     12  N   UNL     1       3.094   8.528  17.901  0.00  0.00    +0.000 NA
ATOM     13  N   UNL     1       4.051   7.948  17.111  0.00  0.00    +0.000 NA
ATOM     14  C   UNL     1       4.214   6.675  17.461  0.00  0.00    +0.000 A 
ATOM     15  N   UNL     1       3.349   6.428  18.519  0.00  0.00    +0.000 N 
ENDROOT
BRANCH  14  16
ATOM     16  C   UNL     1       5.159   5.755  16.798  0.00  0.00    +0.000 A 
ATOM     17  C   UNL     1       4.860   5.213  15.536  0.00  0.00    +0.000 A 
ATOM     18  C   UNL     1       5.778   4.416  14.855  0.00  0.00    +0.000 A 
ATOM     19  C   UNL     1       6.974   4.047  15.447  0.00  0.00    +0.000 A 
ATOM     20  C   UNL     1       7.255   4.491  16.735  0.00  0.00    +0.000 A 
ATOM     21  C   UNL     1       6.366   5.344  17.405  0.00  0.00    +0.000 A 
ATOM     22 CL   UNL     1       6.857   5.853  18.986  0.00  0.00    +0.000 Cl
BRANCH  18  23
ATOM     23  O   UNL     1       5.530   3.984  13.587  0.00  0.00    +0.000 OA
ATOM     24  H   UNL     1       6.263   3.408  13.309  0.00  0.00    +0.000 HD
ENDBRANCH  18  23
ENDBRANCH  14  16
TORSDOF 2
ENDMDL
MODEL 3
REMARK VINA RESULT:      -6.8      5.153      7.586
REMARK  Name = 
REMARK  4 active torsions:
REMARK  status: ('A' for Active; 'I' for Inactive)
REMARK    1  A    between atoms: C_1  and  C_2
REMARK    2  A    between atoms: C_9  and  C_10
REMARK    3  A    between atoms: C_14  and  C_15
REMARK    4  A    between atoms: C_17  and  O_18
REMARK                            x       y       z     vdW  Elec       q    Type
REMARK                         _______ _______ _______ _____ _____    ______ ____
ROOT
ATOM      1  C   UNL     1      -3.902  10.575  15.555  0.00  0.00    +0.000 C 
ATOM      2  C   UNL     1      -2.993  10.644  16.739  0.00  0.00    +0.000 A 
ATOM      3  C   UNL     1      -1.876   9.824  16.853  0.00  0.00    +0.000 A 
ATOM      4  N   UNL     1      -1.022   9.852  17.899  0.00  0.00    +0.000 NA
ATOM      5  C   UNL     1      -1.293  10.728  18.893  0.00  0.00    +0.000 A 
ATOM      6  C   UNL     1      -2.390  11.613  18.877  0.00  0.00    +0.000 A 
ATOM      7  C   UNL     1      -3.237  11.549  17.774  0.00  0.00    +0.000 A 
ATOM      8  N   UNL     1      -2.682  12.544  19.901  0.00  0.00    +0.000 NA
ATOM      9  C   UNL     1      -1.900  12.581  20.941  0.00  0.00    +0.000 A 
ATOM     10  C   UNL     1      -2.160  13.561  22.046  0.00  0.00    +0.000 C 
ATOM     11  C   UNL     1      -0.784  11.688  21.042  0.00  0.00    +0.000 A 
ATOM     12  N   UNL     1       0.065  11.591  22.030  0.00  0.00    +0.000 NA
ATOM     13  N   UNL     1       0.941  10.591  21.699  0.00  0.00    +0.000 NA
ATOM     14  C   UNL     1       0.631  10.096  20.504  0.00  0.00    +0.000 A 
ATOM     15  N   UNL     1      -0.488  10.785  20.055  0.00  0.00    +0.000 N 
ENDROOT
BRANCH  14  16
ATOM     16  C   UNL     1       1.386   9.015  19.841  0.00  0.00    +0.000 A 
ATOM     17  C   UNL     1       1.470   7.740  20.427  0.00  0.00    +0.000 A 
ATOM     18  C   UNL     1       2.101   6.684  19.774  0.00  0.00    +0.000 A 
ATOM     19  C   UNL     1       2.756   6.883  18.571  0.00  0.00    +0.000 A 
ATOM     20  C   UNL     1       2.772   8.157  18.013  0.00  0.00    +0.000 A 
ATOM     21  C   UNL     1       2.087   9.215  18.632  0.00  0.00    +0.000 A 
ATOM     22 CL   UNL     1       2.154  10.739  17.811  0.00  0.00    +0.000 Cl
BRANCH  18  23
ATOM     23  O   UNL     1       2.084   5.424  20.293  0.00  0.00    +0.000 OA
ATOM     24  H   UNL     1       2.941   5.004  20.109  0.00  0.00    +0.000 HD
ENDBRANCH  18  23
ENDBRANCH  14  16
TORSDOF 2
ENDMDL
MODEL 4
REMARK VINA RESULT:      -6.5      3.773      7.231
REMARK  Name = 
REMARK  4 active torsions:
REMARK  status: ('A' for Active; 'I' for Inactive)
REMARK    1  A    between atoms: C_1  and  C_2
REMARK    2  A    between atoms: C_9  and  C_10
REMARK    3  A    between atoms: C_14  and  C_15
REMARK    4  A    between atoms: C_17  and  O_18
REMARK                            x       y       z     vdW  Elec       q    Type
REMARK                         _______ _______ _______ _____ _____    ______ ____
ROOT
ATOM      1  C   UNL     1       2.000   2.455  21.545  0.00  0.00    +0.000 C 
ATOM      2  C   UNL     1       2.172   3.743  20.806  0.00  0.00    +0.000 A 
ATOM      3  C   UNL     1       1.521   4.906  21.201  0.00  0.00    +0.000 A 
ATOM      4  N   UNL     1       1.649   6.094  20.571  0.00  0.00    +0.000 NA
ATOM      5  C   UNL     1       2.451   6.132  19.483  0.00  0.00    +0.000 A 
ATOM      6  C   UNL     1       3.167   5.018  19.001  0.00  0.00    +0.000 A 
ATOM      7  C   UNL     1       3.007   3.818  19.688  0.00  0.00    +0.000 A 
ATOM      8  N   UNL     1       4.020   5.042  17.873  0.00  0.00    +0.000 NA
ATOM      9  C   UNL     1       4.146   6.161  17.221  0.00  0.00    +0.000 A 
ATOM     10  C   UNL     1       5.051   6.241  16.027  0.00  0.00    +0.000 C 
ATOM     11  C   UNL     1       3.424   7.327  17.633  0.00  0.00    +0.000 A 
ATOM     12  N   UNL     1       3.427   8.504  17.064  0.00  0.00    +0.000 NA
ATOM     13  N   UNL     1       2.574   9.294  17.788  0.00  0.00    +0.000 NA
ATOM     14  C   UNL     1       2.068   8.600  18.804  0.00  0.00    +0.000 A 
ATOM     15  N   UNL     1       2.597   7.318  18.726  0.00  0.00    +0.000 N 
ENDROOT
BRANCH  14  16
ATOM     16  C   UNL     1       1.125   9.158  19.792  0.00  0.00    +0.000 A 
ATOM     17  C   UNL     1       1.388   9.052  21.168  0.00  0.00    +0.000 A 
ATOM     18  C   UNL     1       0.557   9.651  22.112  0.00  0.00    +0.000 A 
ATOM     19  C   UNL     1      -0.613  10.284  21.728  0.00  0.00    +0.000 A 
ATOM     20  C   UNL     1      -0.949  10.322  20.379  0.00  0.00    +0.000 A 
ATOM     21  C   UNL     1      -0.088   9.776  19.414  0.00  0.00    +0.000 A 
ATOM     22 CL   UNL     1      -0.607   9.927  17.769  0.00  0.00    +0.000 Cl
BRANCH  18  23
ATOM     23  O   UNL     1       0.874   9.641  23.437  0.00  0.00    +0.000 OA
ATOM     24  H   UNL     1       1.593   9.001  23.576  0.00  0.00    +0.000 HD
ENDBRANCH  18  23
ENDBRANCH  14  16
TORSDOF 2
ENDMDL
MODEL 5
REMARK VINA RESULT:      -6.5      6.962      9.449
REMARK  Name = 
REMARK  4 active torsions:
REMARK  status: ('A' for Active; 'I' for Inactive)
REMARK    1  A    between atoms: C_1  and  C_2
REMARK    2  A    between atoms: C_9  and  C_10
REMARK    3  A    between atoms: C_14  and  C_15
REMARK    4  A    between atoms: C_17  and  O_18
REMARK                            x       y       z     vdW  Elec       q    Type
REMARK                         _______ _______ _______ _____ _____    ______ ____
ROOT
ATOM      1  C   UNL     1      -5.961  12.136  17.293  0.00  0.00    +0.000 C 
ATOM      2  C   UNL     1      -4.875  12.156  18.318  0.00  0.00    +0.000 A 
ATOM      3  C   UNL     1      -3.599  11.678  18.042  0.00  0.00    +0.000 A 
ATOM      4  N   UNL     1      -2.582  11.680  18.931  0.00  0.00    +0.000 NA
ATOM      5  C   UNL     1      -2.844  12.168  20.166  0.00  0.00    +0.000 A 
ATOM      6  C   UNL     1      -4.096  12.687  20.551  0.00  0.00    +0.000 A 
ATOM      7  C   UNL     1      -5.109  12.668  19.597  0.00  0.00    +0.000 A 
ATOM      8  N   UNL     1      -4.384  13.212  21.832  0.00  0.00    +0.000 NA
ATOM      9  C   UNL     1      -3.440  13.204  22.728  0.00  0.00    +0.000 A 
ATOM     10  C   UNL     1      -3.692  13.764  24.096  0.00  0.00    +0.000 C 
ATOM     11  C   UNL     1      -2.151  12.662  22.418  0.00  0.00    +0.000 A 
ATOM     12  N   UNL     1      -1.121  12.560  23.217  0.00  0.00    +0.000 NA
ATOM     13  N   UNL     1      -0.122  11.959  22.497  0.00  0.00    +0.000 NA
ATOM     14  C   UNL     1      -0.542  11.713  21.259  0.00  0.00    +0.000 A 
ATOM     15  N   UNL     1      -1.858  12.154  21.179  0.00  0.00    +0.000 N 
ENDROOT
BRANCH  14  16
ATOM     16  C   UNL     1       0.294  11.087  20.216  0.00  0.00    +0.000 A 
ATOM     17  C   UNL     1       0.901  11.873  19.222  0.00  0.00    +0.000 A 
ATOM     18  C   UNL     1       1.766  11.312  18.285  0.00  0.00    +0.000 A 
ATOM     19  C   UNL     1       1.973   9.944  18.239  0.00  0.00    +0.000 A 
ATOM     20  C   UNL     1       1.309   9.130  19.151  0.00  0.00    +0.000 A 
ATOM     21  C   UNL     1       0.484   9.690  20.139  0.00  0.00    +0.000 A 
ATOM     22 CL   UNL     1      -0.249   8.567  21.235  0.00  0.00    +0.000 Cl
BRANCH  18  23
ATOM     23  O   UNL     1       2.439  12.091  17.393  0.00  0.00    +0.000 OA
ATOM     24  H   UNL     1       3.365  12.160  17.682  0.00  0.00    +0.000 HD
ENDBRANCH  18  23
ENDBRANCH  14  16
TORSDOF 2
ENDMDL
MODEL 6
REMARK VINA RESULT:      -6.4      2.184      2.597
REMARK  Name = 
REMARK  4 active torsions:
REMARK  status: ('A' for Active; 'I' for Inactive)
REMARK    1  A    between atoms: C_1  and  C_2
REMARK    2  A    between atoms: C_9  and  C_10
REMARK    3  A    between atoms: C_14  and  C_15
REMARK    4  A    between atoms: C_17  and  O_18
REMARK                            x       y       z     vdW  Elec       q    Type
REMARK                         _______ _______ _______ _____ _____    ______ ____
ROOT
ATOM      1  C   UNL     1       0.519   9.187  20.151  0.00  0.00    +0.000 C 
ATOM      2  C   UNL     1       1.355   7.951  20.067  0.00  0.00    +0.000 A 
ATOM      3  C   UNL     1       2.569   7.934  19.392  0.00  0.00    +0.000 A 
ATOM      4  N   UNL     1       3.364   6.845  19.294  0.00  0.00    +0.000 NA
ATOM      5  C   UNL     1       2.927   5.708  19.883  0.00  0.00    +0.000 A 
ATOM      6  C   UNL     1       1.718   5.616  20.602  0.00  0.00    +0.000 A 
ATOM      7  C   UNL     1       0.939   6.766  20.680  0.00  0.00    +0.000 A 
ATOM      8  N   UNL     1       1.253   4.440  21.235  0.00  0.00    +0.000 NA
ATOM      9  C   UNL     1       1.974   3.361  21.138  0.00  0.00    +0.000 A 
ATOM     10  C   UNL     1       1.530   2.093  21.805  0.00  0.00    +0.000 C 
ATOM     11  C   UNL     1       3.199   3.371  20.395  0.00  0.00    +0.000 A 
ATOM     12  N   UNL     1       4.008   2.366  20.188  0.00  0.00    +0.000 NA
ATOM     13  N   UNL     1       5.030   2.839  19.407  0.00  0.00    +0.000 NA
ATOM     14  C   UNL     1       4.847   4.132  19.156  0.00  0.00    +0.000 A 
ATOM     15  N   UNL     1       3.663   4.505  19.781  0.00  0.00    +0.000 N 
ENDROOT
BRANCH  14  16
ATOM     16  C   UNL     1       5.775   4.954  18.356  0.00  0.00    +0.000 A 
ATOM     17  C   UNL     1       6.675   5.830  18.986  0.00  0.00    +0.000 A 
ATOM     18  C   UNL     1       7.620   6.546  18.254  0.00  0.00    +0.000 A 
ATOM     19  C   UNL     1       7.633   6.495  16.870  0.00  0.00    +0.000 A 
ATOM     20  C   UNL     1       6.692   5.709  16.214  0.00  0.00    +0.000 A 
ATOM     21  C   UNL     1       5.776   4.936  16.945  0.00  0.00    +0.000 A 
ATOM     22 CL   UNL     1       4.685   3.973  16.005  0.00  0.00    +0.000 Cl
BRANCH  18  23
ATOM     23  O   UNL     1       8.562   7.309  18.875  0.00  0.00    +0.000 OA
ATOM     24  H   UNL     1       8.192   7.632  19.715  0.00  0.00    +0.000 HD
ENDBRANCH  18  23
ENDBRANCH  14  16
TORSDOF 2
ENDMDL
MODEL 7
REMARK VINA RESULT:      -6.4      7.638     11.077
REMARK  Name = 
REMARK  4 active torsions:
REMARK  status: ('A' for Active; 'I' for Inactive)
REMARK    1  A    between atoms: C_1  and  C_2
REMARK    2  A    between atoms: C_9  and  C_10
REMARK    3  A    between atoms: C_14  and  C_15
REMARK    4  A    between atoms: C_17  and  O_18
REMARK                            x       y       z     vdW  Elec       q    Type
REMARK                         _______ _______ _______ _____ _____    ______ ____
ROOT
ATOM      1  C   UNL     1      -5.560  11.892  16.886  0.00  0.00    +0.000 C 
ATOM      2  C   UNL     1      -4.411  11.779  17.834  0.00  0.00    +0.000 A 
ATOM      3  C   UNL     1      -4.484  12.266  19.134  0.00  0.00    +0.000 A 
ATOM      4  N   UNL     1      -3.475  12.183  20.030  0.00  0.00    +0.000 NA
ATOM      5  C   UNL     1      -2.328  11.600  19.614  0.00  0.00    +0.000 A 
ATOM      6  C   UNL     1      -2.148  11.062  18.324  0.00  0.00    +0.000 A 
ATOM      7  C   UNL     1      -3.218  11.167  17.440  0.00  0.00    +0.000 A 
ATOM      8  N   UNL     1      -0.961  10.437  17.876  0.00  0.00    +0.000 NA
ATOM      9  C   UNL     1       0.045  10.364  18.699  0.00  0.00    +0.000 A 
ATOM     10  C   UNL     1       1.320   9.698  18.276  0.00  0.00    +0.000 C 
ATOM     11  C   UNL     1      -0.054  10.919  20.016  0.00  0.00    +0.000 A 
ATOM     12  N   UNL     1       0.874  10.946  20.936  0.00  0.00    +0.000 NA
ATOM     13  N   UNL     1       0.338  11.594  22.018  0.00  0.00    +0.000 NA
ATOM     14  C   UNL     1      -0.919  11.943  21.757  0.00  0.00    +0.000 A 
ATOM     15  N   UNL     1      -1.200  11.522  20.463  0.00  0.00    +0.000 N 
ENDROOT
BRANCH  14  16
ATOM     16  C   UNL     1      -1.792  12.644  22.718  0.00  0.00    +0.000 A 
ATOM     17  C   UNL     1      -2.874  11.977  23.317  0.00  0.00    +0.000 A 
ATOM     18  C   UNL     1      -3.655  12.593  24.292  0.00  0.00    +0.000 A 
ATOM     19  C   UNL     1      -3.452  13.921  24.629  0.00  0.00    +0.000 A 
ATOM     20  C   UNL     1      -2.449  14.636  23.983  0.00  0.00    +0.000 A 
ATOM     21  C   UNL     1      -1.617  14.007  23.044  0.00  0.00    +0.000 A 
ATOM     22 CL   UNL     1      -0.383  15.001  22.344  0.00  0.00    +0.000 Cl
BRANCH  18  23
ATOM     23  O   UNL     1      -4.631  11.908  24.950  0.00  0.00    +0.000 OA
ATOM     24  H   UNL     1      -4.457  11.963  25.905  0.00  0.00    +0.000 HD
ENDBRANCH  18  23
ENDBRANCH  14  16
TORSDOF 2
ENDMDL
MODEL 8
REMARK VINA RESULT:      -6.3      3.236      5.904
REMARK  Name = 
REMARK  4 active torsions:
REMARK  status: ('A' for Active; 'I' for Inactive)
REMARK    1  A    between atoms: C_1  and  C_2
REMARK    2  A    between atoms: C_9  and  C_10
REMARK    3  A    between atoms: C_14  and  C_15
REMARK    4  A    between atoms: C_17  and  O_18
REMARK                            x       y       z     vdW  Elec       q    Type
REMARK                         _______ _______ _______ _____ _____    ______ ____
ROOT
ATOM      1  C   UNL     1       6.698   3.806  12.233  0.00  0.00    +0.000 C 
ATOM      2  C   UNL     1       6.444   4.152  13.664  0.00  0.00    +0.000 A 
ATOM      3  C   UNL     1       5.461   3.509  14.408  0.00  0.00    +0.000 A 
ATOM      4  N   UNL     1       5.197   3.780  15.706  0.00  0.00    +0.000 NA
ATOM      5  C   UNL     1       5.934   4.749  16.295  0.00  0.00    +0.000 A 
ATOM      6  C   UNL     1       6.962   5.457  15.640  0.00  0.00    +0.000 A 
ATOM      7  C   UNL     1       7.199   5.136  14.306  0.00  0.00    +0.000 A 
ATOM      8  N   UNL     1       7.751   6.463  16.244  0.00  0.00    +0.000 NA
ATOM      9  C   UNL     1       7.508   6.775  17.484  0.00  0.00    +0.000 A 
ATOM     10  C   UNL     1       8.328   7.825  18.173  0.00  0.00    +0.000 C 
ATOM     11  C   UNL     1       6.456   6.121  18.204  0.00  0.00    +0.000 A 
ATOM     12  N   UNL     1       6.079   6.347  19.435  0.00  0.00    +0.000 NA
ATOM     13  N   UNL     1       5.026   5.507  19.684  0.00  0.00    +0.000 NA
ATOM     14  C   UNL     1       4.778   4.762  18.611  0.00  0.00    +0.000 A 
ATOM     15  N   UNL     1       5.687   5.142  17.631  0.00  0.00    +0.000 N 
ENDROOT
BRANCH  14  16
ATOM     16  C   UNL     1       3.717   3.738  18.548  0.00  0.00    +0.000 A 
ATOM     17  C   UNL     1       4.030   2.376  18.693  0.00  0.00    +0.000 A 
ATOM     18  C   UNL     1       3.033   1.404  18.727  0.00  0.00    +0.000 A 
ATOM     19  C   UNL     1       1.707   1.740  18.515  0.00  0.00    +0.000 A 
ATOM     20  C   UNL     1       1.377   3.069  18.274  0.00  0.00    +0.000 A 
ATOM     21  C   UNL     1       2.366   4.065  18.298  0.00  0.00    +0.000 A 
ATOM     22 CL   UNL     1       1.813   5.683  18.022  0.00  0.00    +0.000 Cl
BRANCH  18  23
ATOM     23  O   UNL     1       3.331   0.099  18.979  0.00  0.00    +0.000 OA
ATOM     24  H   UNL     1       2.622  -0.456  18.610  0.00  0.00    +0.000 HD
ENDBRANCH  18  23
ENDBRANCH  14  16
TORSDOF 2
ENDMDL
MODEL 9
REMARK VINA RESULT:      -6.1      7.529     10.988
REMARK  Name = 
REMARK  4 active torsions:
REMARK  status: ('A' for Active; 'I' for Inactive)
REMARK    1  A    between atoms: C_1  and  C_2
REMARK    2  A    between atoms: C_9  and  C_10
REMARK    3  A    between atoms: C_14  and  C_15
REMARK    4  A    between atoms: C_17  and  O_18
REMARK                            x       y       z     vdW  Elec       q    Type
REMARK                         _______ _______ _______ _____ _____    ______ ____
ROOT
ATOM      1  C   UNL     1      -3.023  10.951  15.739  0.00  0.00    +0.000 C 
ATOM      2  C   UNL     1      -2.551  11.015  17.155  0.00  0.00    +0.000 A 
ATOM      3  C   UNL     1      -3.142  11.861  18.086  0.00  0.00    +0.000 A 
ATOM      4  N   UNL     1      -2.756  11.951  19.378  0.00  0.00    +0.000 NA
ATOM      5  C   UNL     1      -1.721  11.172  19.767  0.00  0.00    +0.000 A 
ATOM      6  C   UNL     1      -1.056  10.271  18.912  0.00  0.00    +0.000 A 
ATOM      7  C   UNL     1      -1.495  10.211  17.592  0.00  0.00    +0.000 A 
ATOM      8  N   UNL     1       0.019   9.439  19.305  0.00  0.00    +0.000 NA
ATOM      9  C   UNL     1       0.440   9.518  20.533  0.00  0.00    +0.000 A 
ATOM     10  C   UNL     1       1.568   8.646  21.002  0.00  0.00    +0.000 C 
ATOM     11  C   UNL     1      -0.165  10.436  21.451  0.00  0.00    +0.000 A 
ATOM     12  N   UNL     1       0.167  10.645  22.698  0.00  0.00    +0.000 NA
ATOM     13  N   UNL     1      -0.668  11.623  23.169  0.00  0.00    +0.000 NA
ATOM     14  C   UNL     1      -1.515  11.993  22.213  0.00  0.00    +0.000 A 
ATOM     15  N   UNL     1      -1.210  11.243  21.084  0.00  0.00    +0.000 N 
ENDROOT
BRANCH  14  16
ATOM     16  C   UNL     1      -2.563  13.017  22.394  0.00  0.00    +0.000 A 
ATOM     17  C   UNL     1      -3.717  12.732  23.142  0.00  0.00    +0.000 A 
ATOM     18  C   UNL     1      -4.673  13.713  23.399  0.00  0.00    +0.000 A 
ATOM     19  C   UNL     1      -4.565  14.974  22.838  0.00  0.00    +0.000 A 
ATOM     20  C   UNL     1      -3.481  15.256  22.015  0.00  0.00    +0.000 A 
ATOM     21  C   UNL     1      -2.481  14.295  21.799  0.00  0.00    +0.000 A 
ATOM     22 CL   UNL     1      -1.166  14.790  20.785  0.00  0.00    +0.000 Cl
BRANCH  18  23
ATOM     23  O   UNL     1      -5.735  13.464  24.216  0.00  0.00    +0.000 OA
ATOM     24  H   UNL     1      -5.398  13.143  25.070  0.00  0.00    +0.000 HD
ENDBRANCH  18  23
ENDBRANCH  14  16
TORSDOF 2
ENDMDL
