MODEL 1
REMARK VINA RESULT:      -8.2      0.000      0.000
REMARK  Name = 
REMARK  6 active torsions:
REMARK  status: ('A' for Active; 'I' for Inactive)
REMARK    1  A    between atoms: C_2  and  C_3
REMARK    2  A    between atoms: C_3  and  C_4
REMARK    3  A    between atoms: C_7  and  C_8
REMARK    4  A    between atoms: N_17  and  C_18
REMARK    5  A    between atoms: N_17  and  C_23
REMARK    6  A    between atoms: C_18  and  C_19
REMARK                            x       y       z     vdW  Elec       q    Type
REMARK                         _______ _______ _______ _____ _____    ______ ____
ROOT
ATOM      1  C   UNL     1       6.452   4.907  18.086  0.00  0.00    +0.000 A 
ATOM      2  N   UNL     1       7.715   4.492  18.251  0.00  0.00    +0.000 NA
ATOM      3  O   UNL     1       8.199   4.431  16.944  0.00  0.00    +0.000 OA
ATOM      4  C   UNL     1       7.166   4.784  16.114  0.00  0.00    +0.000 A 
ATOM      5  N   UNL     1       6.054   5.044  16.779  0.00  0.00    +0.000 NA
ENDROOT
BRANCH   4   6
ATOM      6  C   UNL     1       7.299   4.849  14.690  0.00  0.00    +0.000 A 
ATOM      7  O   UNL     1       8.251   5.633  14.056  0.00  0.00    +0.000 OA
ATOM      8  C   UNL     1       8.111   5.477  12.704  0.00  0.00    +0.000 A 
ATOM      9  C   UNL     1       7.093   4.604  12.462  0.00  0.00    +0.000 A 
ATOM     10  C   UNL     1       6.579   4.212  13.706  0.00  0.00    +0.000 A 
ATOM     11  C   UNL     1       5.452   3.271  13.583  0.00  0.00    +0.000 C 
ATOM     12  C   UNL     1       5.292   3.119  12.032  0.00  0.00    +0.000 C 
ATOM     13  C   UNL     1       6.396   3.976  11.329  0.00  0.00    +0.000 C 
ENDBRANCH   4   6
BRANCH   1  14
ATOM     14  C   UNL     1       5.542   5.131  19.231  0.00  0.00    +0.000 C 
BRANCH  14  16
ATOM     15  O   UNL     1       5.236   2.832  19.942  0.00  0.00    +0.000 OA
ATOM     16  C   UNL     1       4.729   3.888  19.557  0.00  0.00    +0.000 C 
ATOM     17  N   UNL     1       3.337   3.997  19.444  0.00  0.00    +0.000 N 
BRANCH  17  18
ATOM     18  C   UNL     1       2.640   5.221  19.143  0.00  0.00    +0.000 C 
ATOM     19  C   UNL     1       2.943   6.008  17.893  0.00  0.00    +0.000 C 
ATOM     20  C   UNL     1       1.629   5.306  18.023  0.00  0.00    +0.000 C 
ENDBRANCH  17  18
BRANCH  17  21
ATOM     21  C   UNL     1       2.542   2.843  19.899  0.00  0.00    +0.000 C 
BRANCH  21  22
ATOM     22  C   UNL     1       1.723   3.054  21.180  0.00  0.00    +0.000 C 
ATOM     23  F   UNL     1       2.283   3.923  22.046  0.00  0.00    +0.000 F 
ATOM     24  F   UNL     1       0.471   3.484  20.898  0.00  0.00    +0.000 F 
ATOM     25  F   UNL     1       1.591   1.874  21.841  0.00  0.00    +0.000 F 
ENDBRANCH  21  22
ENDBRANCH  17  21
ENDBRANCH  14  16
ENDBRANCH   1  14
TORSDOF 6
ENDMDL
MODEL 2
REMARK VINA RESULT:      -8.1      1.505      1.914
REMARK  Name = 
REMARK  6 active torsions:
REMARK  status: ('A' for Active; 'I' for Inactive)
REMARK    1  A    between atoms: C_2  and  C_3
REMARK    2  A    between atoms: C_3  and  C_4
REMARK    3  A    between atoms: C_7  and  C_8
REMARK    4  A    between atoms: N_17  and  C_18
REMARK    5  A    between atoms: N_17  and  C_23
REMARK    6  A    between atoms: C_18  and  C_19
REMARK                            x       y       z     vdW  Elec       q    Type
REMARK                         _______ _______ _______ _____ _____    ______ ____
ROOT
ATOM      1  C   UNL     1       6.547   5.030  18.140  0.00  0.00    +0.000 A 
ATOM      2  N   UNL     1       7.724   4.403  18.270  0.00  0.00    +0.000 NA
ATOM      3  O   UNL     1       8.162   4.279  16.952  0.00  0.00    +0.000 OA
ATOM      4  C   UNL     1       7.186   4.815  16.151  0.00  0.00    +0.000 A 
ATOM      5  N   UNL     1       6.150   5.250  16.845  0.00  0.00    +0.000 NA
ENDROOT
BRANCH   4   6
ATOM      6  C   UNL     1       7.298   4.876  14.724  0.00  0.00    +0.000 A 
ATOM      7  O   UNL     1       8.245   5.652  14.074  0.00  0.00    +0.000 OA
ATOM      8  C   UNL     1       8.083   5.494  12.725  0.00  0.00    +0.000 A 
ATOM      9  C   UNL     1       7.055   4.628  12.500  0.00  0.00    +0.000 A 
ATOM     10  C   UNL     1       6.557   4.243  13.753  0.00  0.00    +0.000 A 
ATOM     11  C   UNL     1       5.422   3.310  13.649  0.00  0.00    +0.000 C 
ATOM     12  C   UNL     1       5.236   3.157  12.102  0.00  0.00    +0.000 C 
ATOM     13  C   UNL     1       6.336   4.004  11.380  0.00  0.00    +0.000 C 
ENDBRANCH   4   6
BRANCH   1  14
ATOM     14  C   UNL     1       5.713   5.390  19.308  0.00  0.00    +0.000 C 
BRANCH  14  16
ATOM     15  O   UNL     1       4.384   3.401  19.713  0.00  0.00    +0.000 OA
ATOM     16  C   UNL     1       4.427   4.580  19.354  0.00  0.00    +0.000 C 
ATOM     17  N   UNL     1       3.247   5.250  19.005  0.00  0.00    +0.000 N 
BRANCH  17  18
ATOM     18  C   UNL     1       3.169   6.658  18.712  0.00  0.00    +0.000 C 
ATOM     19  C   UNL     1       1.945   7.257  18.066  0.00  0.00    +0.000 C 
ATOM     20  C   UNL     1       2.262   7.583  19.490  0.00  0.00    +0.000 C 
ENDBRANCH  17  18
BRANCH  17  21
ATOM     21  C   UNL     1       1.985   4.512  19.190  0.00  0.00    +0.000 C 
BRANCH  21  22
ATOM     22  C   UNL     1       1.486   3.718  17.974  0.00  0.00    +0.000 C 
ATOM     23  F   UNL     1       2.473   3.133  17.265  0.00  0.00    +0.000 F 
ATOM     24  F   UNL     1       0.604   2.760  18.342  0.00  0.00    +0.000 F 
ATOM     25  F   UNL     1       0.830   4.548  17.122  0.00  0.00    +0.000 F 
ENDBRANCH  21  22
ENDBRANCH  17  21
ENDBRANCH  14  16
ENDBRANCH   1  14
TORSDOF 6
ENDMDL
MODEL 3
REMARK VINA RESULT:      -8.1      1.391      1.882
REMARK  Name = 
REMARK  6 active torsions:
REMARK  status: ('A' for Active; 'I' for Inactive)
REMARK    1  A    between atoms: C_2  and  C_3
REMARK    2  A    between atoms: C_3  and  C_4
REMARK    3  A    between atoms: C_7  and  C_8
REMARK    4  A    between atoms: N_17  and  C_18
REMARK    5  A    between atoms: N_17  and  C_23
REMARK    6  A    between atoms: C_18  and  C_19
REMARK                            x       y       z     vdW  Elec       q    Type
REMARK                         _______ _______ _______ _____ _____    ______ ____
ROOT
ATOM      1  C   UNL     1       6.473   5.370  18.025  0.00  0.00    +0.000 A 
ATOM      2  N   UNL     1       7.137   6.532  17.966  0.00  0.00    +0.000 NA
ATOM      3  O   UNL     1       7.523   6.607  16.628  0.00  0.00    +0.000 OA
ATOM      4  C   UNL     1       7.081   5.462  16.016  0.00  0.00    +0.000 A 
ATOM      5  N   UNL     1       6.465   4.649  16.857  0.00  0.00    +0.000 NA
ENDROOT
BRANCH   4   6
ATOM      6  C   UNL     1       7.284   5.195  14.624  0.00  0.00    +0.000 A 
ATOM      7  O   UNL     1       8.333   5.738  13.898  0.00  0.00    +0.000 OA
ATOM      8  C   UNL     1       8.240   5.296  12.606  0.00  0.00    +0.000 A 
ATOM      9  C   UNL     1       7.156   4.478  12.495  0.00  0.00    +0.000 A 
ATOM     10  C   UNL     1       6.551   4.418  13.758  0.00  0.00    +0.000 A 
ATOM     11  C   UNL     1       5.347   3.569  13.770  0.00  0.00    +0.000 C 
ATOM     12  C   UNL     1       5.243   3.089  12.283  0.00  0.00    +0.000 C 
ATOM     13  C   UNL     1       6.455   3.673  11.483  0.00  0.00    +0.000 C 
ENDBRANCH   4   6
BRANCH   1  14
ATOM     14  C   UNL     1       5.860   4.878  19.278  0.00  0.00    +0.000 C 
BRANCH  14  16
ATOM     15  O   UNL     1       3.945   6.361  19.417  0.00  0.00    +0.000 OA
ATOM     16  C   UNL     1       4.377   5.209  19.347  0.00  0.00    +0.000 C 
ATOM     17  N   UNL     1       3.486   4.129  19.284  0.00  0.00    +0.000 N 
BRANCH  17  18
ATOM     18  C   UNL     1       3.881   2.763  19.058  0.00  0.00    +0.000 C 
ATOM     19  C   UNL     1       2.864   1.697  18.735  0.00  0.00    +0.000 C 
ATOM     20  C   UNL     1       3.831   2.137  17.684  0.00  0.00    +0.000 C 
ENDBRANCH  17  18
BRANCH  17  21
ATOM     21  C   UNL     1       2.051   4.456  19.202  0.00  0.00    +0.000 C 
BRANCH  21  22
ATOM     22  C   UNL     1       1.287   4.466  20.534  0.00  0.00    +0.000 C 
ATOM     23  F   UNL     1       0.733   5.658  20.833  0.00  0.00    +0.000 F 
ATOM     24  F   UNL     1       0.311   3.529  20.546  0.00  0.00    +0.000 F 
ATOM     25  F   UNL     1       2.134   4.160  21.552  0.00  0.00    +0.000 F 
ENDBRANCH  21  22
ENDBRANCH  17  21
ENDBRANCH  14  16
ENDBRANCH   1  14
TORSDOF 6
ENDMDL
MODEL 4
REMARK VINA RESULT:      -7.9      4.014      7.456
REMARK  Name = 
REMARK  6 active torsions:
REMARK  status: ('A' for Active; 'I' for Inactive)
REMARK    1  A    between atoms: C_2  and  C_3
REMARK    2  A    between atoms: C_3  and  C_4
REMARK    3  A    between atoms: C_7  and  C_8
REMARK    4  A    between atoms: N_17  and  C_18
REMARK    5  A    between atoms: N_17  and  C_23
REMARK    6  A    between atoms: C_18  and  C_19
REMARK                            x       y       z     vdW  Elec       q    Type
REMARK                         _______ _______ _______ _____ _____    ______ ____
ROOT
ATOM      1  C   UNL     1       3.448   4.538  19.623  0.00  0.00    +0.000 A 
ATOM      2  N   UNL     1       2.539   3.993  20.443  0.00  0.00    +0.000 NA
ATOM      3  O   UNL     1       1.737   5.081  20.791  0.00  0.00    +0.000 OA
ATOM      4  C   UNL     1       2.265   6.185  20.172  0.00  0.00    +0.000 A 
ATOM      5  N   UNL     1       3.350   5.899  19.475  0.00  0.00    +0.000 NA
ENDROOT
BRANCH   4   6
ATOM      6  C   UNL     1       1.690   7.491  20.290  0.00  0.00    +0.000 A 
ATOM      7  O   UNL     1       1.004   7.914  21.418  0.00  0.00    +0.000 OA
ATOM      8  C   UNL     1       0.579   9.198  21.211  0.00  0.00    +0.000 A 
ATOM      9  C   UNL     1       0.986   9.606  19.976  0.00  0.00    +0.000 A 
ATOM     10  C   UNL     1       1.679   8.534  19.394  0.00  0.00    +0.000 A 
ATOM     11  C   UNL     1       2.163   8.843  18.037  0.00  0.00    +0.000 C 
ATOM     12  C   UNL     1       1.652  10.306  17.808  0.00  0.00    +0.000 C 
ATOM     13  C   UNL     1       0.915  10.787  19.102  0.00  0.00    +0.000 C 
ENDBRANCH   4   6
BRANCH   1  14
ATOM     14  C   UNL     1       4.515   3.735  18.987  0.00  0.00    +0.000 C 
BRANCH  14  16
ATOM     15  O   UNL     1       6.578   4.754  19.752  0.00  0.00    +0.000 OA
ATOM     16  C   UNL     1       5.800   4.532  18.823  0.00  0.00    +0.000 C 
ATOM     17  N   UNL     1       6.101   4.984  17.532  0.00  0.00    +0.000 N 
BRANCH  17  18
ATOM     18  C   UNL     1       5.335   4.656  16.357  0.00  0.00    +0.000 C 
ATOM     19  C   UNL     1       5.746   5.148  14.992  0.00  0.00    +0.000 C 
ATOM     20  C   UNL     1       5.851   3.692  15.315  0.00  0.00    +0.000 C 
ENDBRANCH  17  18
BRANCH  17  21
ATOM     21  C   UNL     1       7.413   5.627  17.343  0.00  0.00    +0.000 C 
BRANCH  21  22
ATOM     22  C   UNL     1       7.464   7.139  17.604  0.00  0.00    +0.000 C 
ATOM     23  F   UNL     1       6.251   7.728  17.630  0.00  0.00    +0.000 F 
ATOM     24  F   UNL     1       8.095   7.416  18.769  0.00  0.00    +0.000 F 
ATOM     25  F   UNL     1       8.175   7.751  16.621  0.00  0.00    +0.000 F 
ENDBRANCH  21  22
ENDBRANCH  17  21
ENDBRANCH  14  16
ENDBRANCH   1  14
TORSDOF 6
ENDMDL
MODEL 5
REMARK VINA RESULT:      -7.8      1.227      1.578
REMARK  Name = 
REMARK  6 active torsions:
REMARK  status: ('A' for Active; 'I' for Inactive)
REMARK    1  A    between atoms: C_2  and  C_3
REMARK    2  A    between atoms: C_3  and  C_4
REMARK    3  A    between atoms: C_7  and  C_8
REMARK    4  A    between atoms: N_17  and  C_18
REMARK    5  A    between atoms: N_17  and  C_23
REMARK    6  A    between atoms: C_18  and  C_19
REMARK                            x       y       z     vdW  Elec       q    Type
REMARK                         _______ _______ _______ _____ _____    ______ ____
ROOT
ATOM      1  C   UNL     1       6.199   4.989  18.063  0.00  0.00    +0.000 A 
ATOM      2  N   UNL     1       7.453   4.581  18.302  0.00  0.00    +0.000 NA
ATOM      3  O   UNL     1       8.008   4.505  17.025  0.00  0.00    +0.000 OA
ATOM      4  C   UNL     1       7.020   4.845  16.135  0.00  0.00    +0.000 A 
ATOM      5  N   UNL     1       5.873   5.108  16.735  0.00  0.00    +0.000 NA
ENDROOT
BRANCH   4   6
ATOM      6  C   UNL     1       7.232   4.892  14.719  0.00  0.00    +0.000 A 
ATOM      7  O   UNL     1       8.208   5.679  14.129  0.00  0.00    +0.000 OA
ATOM      8  C   UNL     1       8.144   5.504  12.773  0.00  0.00    +0.000 A 
ATOM      9  C   UNL     1       7.151   4.615  12.487  0.00  0.00    +0.000 A 
ATOM     10  C   UNL     1       6.573   4.234  13.707  0.00  0.00    +0.000 A 
ATOM     11  C   UNL     1       5.465   3.278  13.535  0.00  0.00    +0.000 C 
ATOM     12  C   UNL     1       5.392   3.104  11.980  0.00  0.00    +0.000 C 
ATOM     13  C   UNL     1       6.525   3.965  11.327  0.00  0.00    +0.000 C 
ENDBRANCH   4   6
BRANCH   1  14
ATOM     14  C   UNL     1       5.228   5.224  19.154  0.00  0.00    +0.000 C 
BRANCH  14  16
ATOM     15  O   UNL     1       4.960   2.875  19.695  0.00  0.00    +0.000 OA
ATOM     16  C   UNL     1       4.434   3.969  19.482  0.00  0.00    +0.000 C 
ATOM     17  N   UNL     1       3.043   4.109  19.580  0.00  0.00    +0.000 N 
BRANCH  17  18
ATOM     18  C   UNL     1       2.346   5.366  19.491  0.00  0.00    +0.000 C 
ATOM     19  C   UNL     1       1.104   5.632  20.305  0.00  0.00    +0.000 C 
ATOM     20  C   UNL     1       2.366   6.368  20.622  0.00  0.00    +0.000 C 
ENDBRANCH  17  18
BRANCH  17  21
ATOM     21  C   UNL     1       2.288   2.931  20.040  0.00  0.00    +0.000 C 
BRANCH  21  22
ATOM     22  C   UNL     1       1.479   2.189  18.968  0.00  0.00    +0.000 C 
ATOM     23  F   UNL     1       0.182   2.554  18.915  0.00  0.00    +0.000 F 
ATOM     24  F   UNL     1       2.018   2.363  17.738  0.00  0.00    +0.000 F 
ATOM     25  F   UNL     1       1.501   0.854  19.218  0.00  0.00    +0.000 F 
ENDBRANCH  21  22
ENDBRANCH  17  21
ENDBRANCH  14  16
ENDBRANCH   1  14
TORSDOF 6
ENDMDL
MODEL 6
REMARK VINA RESULT:      -7.8      5.298      6.958
REMARK  Name = 
REMARK  6 active torsions:
REMARK  status: ('A' for Active; 'I' for Inactive)
REMARK    1  A    between atoms: C_2  and  C_3
REMARK    2  A    between atoms: C_3  and  C_4
REMARK    3  A    between atoms: C_7  and  C_8
REMARK    4  A    between atoms: N_17  and  C_18
REMARK    5  A    between atoms: N_17  and  C_23
REMARK    6  A    between atoms: C_18  and  C_19
REMARK                            x       y       z     vdW  Elec       q    Type
REMARK                         _______ _______ _______ _____ _____    ______ ____
ROOT
ATOM      1  C   UNL     1       7.857   7.456  17.998  0.00  0.00    +0.000 A 
ATOM      2  N   UNL     1       7.263   8.331  17.176  0.00  0.00    +0.000 NA
ATOM      3  O   UNL     1       7.781   9.557  17.593  0.00  0.00    +0.000 OA
ATOM      4  C   UNL     1       8.614   9.303  18.653  0.00  0.00    +0.000 A 
ATOM      5  N   UNL     1       8.653   8.019  18.964  0.00  0.00    +0.000 NA
ENDROOT
BRANCH   4   6
ATOM      6  C   UNL     1       9.340  10.332  19.335  0.00  0.00    +0.000 A 
ATOM      7  O   UNL     1       9.175  10.602  20.685  0.00  0.00    +0.000 OA
ATOM      8  C   UNL     1      10.003  11.638  21.023  0.00  0.00    +0.000 A 
ATOM      9  C   UNL     1      10.697  12.030  19.918  0.00  0.00    +0.000 A 
ATOM     10  C   UNL     1      10.279  11.215  18.856  0.00  0.00    +0.000 A 
ATOM     11  C   UNL     1      10.949  11.549  17.587  0.00  0.00    +0.000 C 
ATOM     12  C   UNL     1      11.875  12.747  17.986  0.00  0.00    +0.000 C 
ATOM     13  C   UNL     1      11.712  13.017  19.519  0.00  0.00    +0.000 C 
ENDBRANCH   4   6
BRANCH   1  14
ATOM     14  C   UNL     1       7.610   6.000  17.908  0.00  0.00    +0.000 C 
BRANCH  14  16
ATOM     15  O   UNL     1       5.688   5.654  19.346  0.00  0.00    +0.000 OA
ATOM     16  C   UNL     1       6.160   5.654  18.208  0.00  0.00    +0.000 C 
ATOM     17  N   UNL     1       5.339   5.369  17.108  0.00  0.00    +0.000 N 
BRANCH  17  18
ATOM     18  C   UNL     1       5.754   5.482  15.734  0.00  0.00    +0.000 C 
ATOM     19  C   UNL     1       6.854   4.615  15.174  0.00  0.00    +0.000 C 
ATOM     20  C   UNL     1       5.446   4.407  14.719  0.00  0.00    +0.000 C 
ENDBRANCH  17  18
BRANCH  17  21
ATOM     21  C   UNL     1       3.904   5.179  17.383  0.00  0.00    +0.000 C 
BRANCH  21  22
ATOM     22  C   UNL     1       3.449   3.731  17.610  0.00  0.00    +0.000 C 
ATOM     23  F   UNL     1       2.892   3.520  18.820  0.00  0.00    +0.000 F 
ATOM     24  F   UNL     1       2.564   3.340  16.663  0.00  0.00    +0.000 F 
ATOM     25  F   UNL     1       4.515   2.894  17.517  0.00  0.00    +0.000 F 
ENDBRANCH  21  22
ENDBRANCH  17  21
ENDBRANCH  14  16
ENDBRANCH   1  14
TORSDOF 6
ENDMDL
MODEL 7
REMARK VINA RESULT:      -7.8      5.051      6.834
REMARK  Name = 
REMARK  6 active torsions:
REMARK  status: ('A' for Active; 'I' for Inactive)
REMARK    1  A    between atoms: C_2  and  C_3
REMARK    2  A    between atoms: C_3  and  C_4
REMARK    3  A    between atoms: C_7  and  C_8
REMARK    4  A    between atoms: N_17  and  C_18
REMARK    5  A    between atoms: N_17  and  C_23
REMARK    6  A    between atoms: C_18  and  C_19
REMARK                            x       y       z     vdW  Elec       q    Type
REMARK                         _______ _______ _______ _____ _____    ______ ____
ROOT
ATOM      1  C   UNL     1       7.896   7.228  18.273  0.00  0.00    +0.000 A 
ATOM      2  N   UNL     1       7.167   7.796  17.304  0.00  0.00    +0.000 NA
ATOM      3  O   UNL     1       7.634   9.111  17.289  0.00  0.00    +0.000 OA
ATOM      4  C   UNL     1       8.579   9.214  18.277  0.00  0.00    +0.000 A 
ATOM      5  N   UNL     1       8.739   8.082  18.940  0.00  0.00    +0.000 NA
ENDROOT
BRANCH   4   6
ATOM      6  C   UNL     1       9.292  10.427  18.548  0.00  0.00    +0.000 A 
ATOM      7  O   UNL     1      10.017  11.106  17.582  0.00  0.00    +0.000 OA
ATOM      8  C   UNL     1      10.579  12.212  18.160  0.00  0.00    +0.000 A 
ATOM      9  C   UNL     1      10.222  12.255  19.474  0.00  0.00    +0.000 A 
ATOM     10  C   UNL     1       9.419  11.132  19.721  0.00  0.00    +0.000 A 
ATOM     11  C   UNL     1       8.975  11.052  21.124  0.00  0.00    +0.000 C 
ATOM     12  C   UNL     1       9.642  12.310  21.775  0.00  0.00    +0.000 C 
ATOM     13  C   UNL     1      10.423  13.091  20.667  0.00  0.00    +0.000 C 
ENDBRANCH   4   6
BRANCH   1  14
ATOM     14  C   UNL     1       7.746   5.801  18.637  0.00  0.00    +0.000 C 
BRANCH  14  16
ATOM     15  O   UNL     1       5.513   5.742  19.583  0.00  0.00    +0.000 OA
ATOM     16  C   UNL     1       6.284   5.385  18.690  0.00  0.00    +0.000 C 
ATOM     17  N   UNL     1       5.815   4.592  17.634  0.00  0.00    +0.000 N 
BRANCH  17  18
ATOM     18  C   UNL     1       6.593   4.241  16.474  0.00  0.00    +0.000 C 
ATOM     19  C   UNL     1       5.940   3.695  15.229  0.00  0.00    +0.000 C 
ATOM     20  C   UNL     1       6.543   5.062  15.207  0.00  0.00    +0.000 C 
ENDBRANCH  17  18
BRANCH  17  21
ATOM     21  C   UNL     1       4.369   4.311  17.607  0.00  0.00    +0.000 C 
BRANCH  21  22
ATOM     22  C   UNL     1       3.911   3.068  18.384  0.00  0.00    +0.000 C 
ATOM     23  F   UNL     1       4.780   2.669  19.334  0.00  0.00    +0.000 F 
ATOM     24  F   UNL     1       2.707   3.270  18.968  0.00  0.00    +0.000 F 
ATOM     25  F   UNL     1       3.759   2.023  17.529  0.00  0.00    +0.000 F 
ENDBRANCH  21  22
ENDBRANCH  17  21
ENDBRANCH  14  16
ENDBRANCH   1  14
TORSDOF 6
ENDMDL
MODEL 8
REMARK VINA RESULT:      -7.7      1.418      1.775
REMARK  Name = 
REMARK  6 active torsions:
REMARK  status: ('A' for Active; 'I' for Inactive)
REMARK    1  A    between atoms: C_2  and  C_3
REMARK    2  A    between atoms: C_3  and  C_4
REMARK    3  A    between atoms: C_7  and  C_8
REMARK    4  A    between atoms: N_17  and  C_18
REMARK    5  A    between atoms: N_17  and  C_23
REMARK    6  A    between atoms: C_18  and  C_19
REMARK                            x       y       z     vdW  Elec       q    Type
REMARK                         _______ _______ _______ _____ _____    ______ ____
ROOT
ATOM      1  C   UNL     1       5.851   5.525  17.903  0.00  0.00    +0.000 A 
ATOM      2  N   UNL     1       5.263   6.635  17.438  0.00  0.00    +0.000 NA
ATOM      3  O   UNL     1       5.595   6.623  16.083  0.00  0.00    +0.000 OA
ATOM      4  C   UNL     1       6.382   5.520  15.871  0.00  0.00    +0.000 A 
ATOM      5  N   UNL     1       6.601   4.838  16.981  0.00  0.00    +0.000 NA
ENDROOT
BRANCH   4   6
ATOM      6  C   UNL     1       6.903   5.173  14.582  0.00  0.00    +0.000 A 
ATOM      7  O   UNL     1       8.104   5.667  14.097  0.00  0.00    +0.000 OA
ATOM      8  C   UNL     1       8.309   5.152  12.846  0.00  0.00    +0.000 A 
ATOM      9  C   UNL     1       7.267   4.335  12.526  0.00  0.00    +0.000 A 
ATOM     10  C   UNL     1       6.381   4.351  13.612  0.00  0.00    +0.000 A 
ATOM     11  C   UNL     1       5.192   3.510  13.385  0.00  0.00    +0.000 C 
ATOM     12  C   UNL     1       5.433   2.946  11.944  0.00  0.00    +0.000 C 
ATOM     13  C   UNL     1       6.809   3.477  11.422  0.00  0.00    +0.000 C 
ENDBRANCH   4   6
BRANCH   1  14
ATOM     14  C   UNL     1       5.751   5.117  19.322  0.00  0.00    +0.000 C 
BRANCH  14  16
ATOM     15  O   UNL     1       5.067   2.790  19.371  0.00  0.00    +0.000 OA
ATOM     16  C   UNL     1       4.763   3.976  19.512  0.00  0.00    +0.000 C 
ATOM     17  N   UNL     1       3.465   4.325  19.908  0.00  0.00    +0.000 N 
BRANCH  17  18
ATOM     18  C   UNL     1       3.049   5.663  20.238  0.00  0.00    +0.000 C 
ATOM     19  C   UNL     1       2.259   6.501  19.264  0.00  0.00    +0.000 C 
ATOM     20  C   UNL     1       1.602   6.001  20.510  0.00  0.00    +0.000 C 
ENDBRANCH  17  18
BRANCH  17  21
ATOM     21  C   UNL     1       2.551   3.216  20.235  0.00  0.00    +0.000 C 
BRANCH  21  22
ATOM     22  C   UNL     1       1.579   2.796  19.123  0.00  0.00    +0.000 C 
ATOM     23  F   UNL     1       1.800   3.415  17.945  0.00  0.00    +0.000 F 
ATOM     24  F   UNL     1       1.621   1.460  18.913  0.00  0.00    +0.000 F 
ATOM     25  F   UNL     1       0.305   3.094  19.489  0.00  0.00    +0.000 F 
ENDBRANCH  21  22
ENDBRANCH  17  21
ENDBRANCH  14  16
ENDBRANCH   1  14
TORSDOF 6
ENDMDL
MODEL 9
REMARK VINA RESULT:      -7.7      4.778      8.216
REMARK  Name = 
REMARK  6 active torsions:
REMARK  status: ('A' for Active; 'I' for Inactive)
REMARK    1  A    between atoms: C_2  and  C_3
REMARK    2  A    between atoms: C_3  and  C_4
REMARK    3  A    between atoms: C_7  and  C_8
REMARK    4  A    between atoms: N_17  and  C_18
REMARK    5  A    between atoms: N_17  and  C_23
REMARK    6  A    between atoms: C_18  and  C_19
REMARK                            x       y       z     vdW  Elec       q    Type
REMARK                         _______ _______ _______ _____ _____    ______ ____
ROOT
ATOM      1  C   UNL     1       3.098   5.374  19.806  0.00  0.00    +0.000 A 
ATOM      2  N   UNL     1       2.252   4.974  20.765  0.00  0.00    +0.000 NA
ATOM      3  O   UNL     1       1.474   6.109  20.992  0.00  0.00    +0.000 OA
ATOM      4  C   UNL     1       1.951   7.096  20.168  0.00  0.00    +0.000 A 
ATOM      5  N   UNL     1       2.985   6.695  19.450  0.00  0.00    +0.000 NA
ENDROOT
BRANCH   4   6
ATOM      6  C   UNL     1       1.382   8.409  20.117  0.00  0.00    +0.000 A 
ATOM      7  O   UNL     1       1.464   9.224  18.999  0.00  0.00    +0.000 OA
ATOM      8  C   UNL     1       0.831  10.405  19.275  0.00  0.00    +0.000 A 
ATOM      9  C   UNL     1       0.340  10.358  20.546  0.00  0.00    +0.000 A 
ATOM     10  C   UNL     1       0.689   9.109  21.078  0.00  0.00    +0.000 A 
ATOM     11  C   UNL     1       0.226   8.935  22.466  0.00  0.00    +0.000 C 
ATOM     12  C   UNL     1      -0.477  10.300  22.773  0.00  0.00    +0.000 C 
ATOM     13  C   UNL     1      -0.413  11.195  21.491  0.00  0.00    +0.000 C 
ENDBRANCH   4   6
BRANCH   1  14
ATOM     14  C   UNL     1       4.119   4.471  19.232  0.00  0.00    +0.000 C 
BRANCH  14  16
ATOM     15  O   UNL     1       3.380   4.139  16.945  0.00  0.00    +0.000 OA
ATOM     16  C   UNL     1       4.212   4.614  17.720  0.00  0.00    +0.000 C 
ATOM     17  N   UNL     1       5.286   5.364  17.223  0.00  0.00    +0.000 N 
BRANCH  17  18
ATOM     18  C   UNL     1       6.228   6.078  18.046  0.00  0.00    +0.000 C 
ATOM     19  C   UNL     1       7.627   5.560  18.266  0.00  0.00    +0.000 C 
ATOM     20  C   UNL     1       7.417   6.796  17.452  0.00  0.00    +0.000 C 
ENDBRANCH  17  18
BRANCH  17  21
ATOM     21  C   UNL     1       5.296   5.628  15.773  0.00  0.00    +0.000 C 
BRANCH  21  22
ATOM     22  C   UNL     1       6.033   4.596  14.908  0.00  0.00    +0.000 C 
ATOM     23  F   UNL     1       7.136   5.082  14.304  0.00  0.00    +0.000 F 
ATOM     24  F   UNL     1       6.391   3.512  15.634  0.00  0.00    +0.000 F 
ATOM     25  F   UNL     1       5.210   4.152  13.922  0.00  0.00    +0.000 F 
ENDBRANCH  21  22
ENDBRANCH  17  21
ENDBRANCH  14  16
ENDBRANCH   1  14
TORSDOF 6
ENDMDL
