MODEL 1
REMARK VINA RESULT:      -8.0      0.000      0.000
REMARK  Name = 
REMARK  8 active torsions:
REMARK  status: ('A' for Active; 'I' for Inactive)
REMARK    1  A    between atoms: C_1  and  C_2
REMARK    2  A    between atoms: C_2  and  C_3
REMARK    3  A    between atoms: C_2  and  C_4
REMARK    4  A    between atoms: C_4  and  N_5
REMARK    5  A    between atoms: C_4  and  C_14
REMARK    6  A    between atoms: C_6  and  C_8
REMARK    7  A    between atoms: N_16  and  C_17
REMARK    8  A    between atoms: C_17  and  C_18
REMARK                            x       y       z     vdW  Elec       q    Type
REMARK                         _______ _______ _______ _____ _____    ______ ____
ROOT
ATOM      1  C   UNL     1       3.304   3.967  17.868  0.00  0.00    +0.000 C 
ENDROOT
BRANCH   1   2
ATOM      2  N   UNL     1       2.651   5.262  18.097  0.00  0.00    +0.000 N 
ATOM      3  C   UNL     1       2.716   5.959  19.284  0.00  0.00    +0.000 C 
ATOM      4  O   UNL     1       3.280   5.545  20.287  0.00  0.00    +0.000 OA
ATOM      5  H   UNL     1       2.360   5.766  17.267  0.00  0.00    +0.000 HD
BRANCH   3   6
ATOM      6  C   UNL     1       2.147   7.326  19.259  0.00  0.00    +0.000 A 
ATOM      7  C   UNL     1       1.572   7.890  20.403  0.00  0.00    +0.000 A 
ATOM      8  C   UNL     1       1.016   9.167  20.335  0.00  0.00    +0.000 A 
ATOM      9  C   UNL     1       1.043   9.880  19.134  0.00  0.00    +0.000 A 
ATOM     10  C   UNL     1       1.631   9.323  17.998  0.00  0.00    +0.000 A 
ATOM     11  C   UNL     1       2.190   8.046  18.062  0.00  0.00    +0.000 A 
ENDBRANCH   3   6
ENDBRANCH   1   2
BRANCH   1  12
ATOM     12  C   UNL     1       4.835   4.164  17.729  0.00  0.00    +0.000 C 
ATOM     13  O   UNL     1       5.604   3.978  18.669  0.00  0.00    +0.000 OA
ATOM     14  N   UNL     1       5.245   4.606  16.497  0.00  0.00    +0.000 N 
ATOM     15  H   UNL     1       4.588   4.507  15.719  0.00  0.00    +0.000 HD
BRANCH  14  16
ATOM     16  C   UNL     1       6.626   4.863  16.158  0.00  0.00    +0.000 C 
BRANCH  16  17
ATOM     17  C   UNL     1       6.853   4.712  14.670  0.00  0.00    +0.000 A 
ATOM     18  C   UNL     1       6.124   3.765  13.949  0.00  0.00    +0.000 A 
ATOM     19  C   UNL     1       6.374   3.609  12.590  0.00  0.00    +0.000 A 
ATOM     20  C   UNL     1       7.340   4.402  11.983  0.00  0.00    +0.000 A 
ATOM     21  C   UNL     1       8.019   5.321  12.768  0.00  0.00    +0.000 A 
ATOM     22  N   UNL     1       7.799   5.493  14.091  0.00  0.00    +0.000 NA
ENDBRANCH  16  17
ENDBRANCH  14  16
ENDBRANCH   1  12
BRANCH   1  24
ATOM     23  C   UNL     1       1.420   2.778  19.107  0.00  0.00    +0.000 C 
ATOM     24  C   UNL     1       2.936   2.868  18.895  0.00  0.00    +0.000 C 
ATOM     25  C   UNL     1       3.456   1.495  18.449  0.00  0.00    +0.000 C 
ENDBRANCH   1  24
TORSDOF 6
ENDMDL
MODEL 2
REMARK VINA RESULT:      -7.9      3.148      7.209
REMARK  Name = 
REMARK  8 active torsions:
REMARK  status: ('A' for Active; 'I' for Inactive)
REMARK    1  A    between atoms: C_1  and  C_2
REMARK    2  A    between atoms: C_2  and  C_3
REMARK    3  A    between atoms: C_2  and  C_4
REMARK    4  A    between atoms: C_4  and  N_5
REMARK    5  A    between atoms: C_4  and  C_14
REMARK    6  A    between atoms: C_6  and  C_8
REMARK    7  A    between atoms: N_16  and  C_17
REMARK    8  A    between atoms: C_17  and  C_18
REMARK                            x       y       z     vdW  Elec       q    Type
REMARK                         _______ _______ _______ _____ _____    ______ ____
ROOT
ATOM      1  C   UNL     1       6.236   5.695  17.824  0.00  0.00    +0.000 C 
ENDROOT
BRANCH   1   2
ATOM      2  N   UNL     1       6.199   4.986  16.538  0.00  0.00    +0.000 N 
ATOM      3  C   UNL     1       5.760   5.550  15.360  0.00  0.00    +0.000 C 
ATOM      4  O   UNL     1       5.304   6.681  15.274  0.00  0.00    +0.000 OA
ATOM      5  H   UNL     1       6.756   4.142  16.481  0.00  0.00    +0.000 HD
BRANCH   3   6
ATOM      6  C   UNL     1       5.971   4.736  14.140  0.00  0.00    +0.000 A 
ATOM      7  C   UNL     1       7.179   4.787  13.437  0.00  0.00    +0.000 A 
ATOM      8  C   UNL     1       7.331   4.032  12.275  0.00  0.00    +0.000 A 
ATOM      9  C   UNL     1       6.285   3.223  11.822  0.00  0.00    +0.000 A 
ATOM     10  C   UNL     1       5.086   3.162  12.533  0.00  0.00    +0.000 A 
ATOM     11  C   UNL     1       4.931   3.913  13.698  0.00  0.00    +0.000 A 
ENDBRANCH   3   6
ENDBRANCH   1   2
BRANCH   1  12
ATOM     12  C   UNL     1       5.449   4.894  18.892  0.00  0.00    +0.000 C 
ATOM     13  O   UNL     1       4.855   5.446  19.814  0.00  0.00    +0.000 OA
ATOM     14  N   UNL     1       5.516   3.531  18.748  0.00  0.00    +0.000 N 
ATOM     15  H   UNL     1       5.822   3.168  17.843  0.00  0.00    +0.000 HD
BRANCH  14  16
ATOM     16  C   UNL     1       4.864   2.599  19.640  0.00  0.00    +0.000 C 
BRANCH  16  17
ATOM     17  C   UNL     1       3.360   2.736  19.557  0.00  0.00    +0.000 A 
ATOM     18  C   UNL     1       2.619   2.957  20.719  0.00  0.00    +0.000 A 
ATOM     19  C   UNL     1       1.233   3.039  20.632  0.00  0.00    +0.000 A 
ATOM     20  C   UNL     1       0.622   2.902  19.392  0.00  0.00    +0.000 A 
ATOM     21  C   UNL     1       1.429   2.688  18.286  0.00  0.00    +0.000 A 
ATOM     22  N   UNL     1       2.778   2.602  18.340  0.00  0.00    +0.000 NA
ENDBRANCH  16  17
ENDBRANCH  14  16
ENDBRANCH   1  12
BRANCH   1  24
ATOM     23  C   UNL     1       7.909   7.594  18.127  0.00  0.00    +0.000 C 
ATOM     24  C   UNL     1       7.654   6.093  18.302  0.00  0.00    +0.000 C 
ATOM     25  C   UNL     1       7.867   5.722  19.776  0.00  0.00    +0.000 C 
ENDBRANCH   1  24
TORSDOF 6
ENDMDL
MODEL 3
REMARK VINA RESULT:      -7.9      0.239      1.038
REMARK  Name = 
REMARK  8 active torsions:
REMARK  status: ('A' for Active; 'I' for Inactive)
REMARK    1  A    between atoms: C_1  and  C_2
REMARK    2  A    between atoms: C_2  and  C_3
REMARK    3  A    between atoms: C_2  and  C_4
REMARK    4  A    between atoms: C_4  and  N_5
REMARK    5  A    between atoms: C_4  and  C_14
REMARK    6  A    between atoms: C_6  and  C_8
REMARK    7  A    between atoms: N_16  and  C_17
REMARK    8  A    between atoms: C_17  and  C_18
REMARK                            x       y       z     vdW  Elec       q    Type
REMARK                         _______ _______ _______ _____ _____    ______ ____
ROOT
ATOM      1  C   UNL     1       3.217   4.048  17.819  0.00  0.00    +0.000 C 
ENDROOT
BRANCH   1   2
ATOM      2  N   UNL     1       2.566   5.346  18.043  0.00  0.00    +0.000 N 
ATOM      3  C   UNL     1       2.836   6.169  19.115  0.00  0.00    +0.000 C 
ATOM      4  O   UNL     1       3.607   5.878  20.019  0.00  0.00    +0.000 OA
ATOM      5  H   UNL     1       2.093   5.750  17.243  0.00  0.00    +0.000 HD
BRANCH   3   6
ATOM      6  C   UNL     1       2.213   7.511  19.068  0.00  0.00    +0.000 A 
ATOM      7  C   UNL     1       2.239   8.280  17.900  0.00  0.00    +0.000 A 
ATOM      8  C   UNL     1       1.671   9.553  17.902  0.00  0.00    +0.000 A 
ATOM      9  C   UNL     1       1.071  10.052  19.061  0.00  0.00    +0.000 A 
ATOM     10  C   UNL     1       1.031   9.277  20.221  0.00  0.00    +0.000 A 
ATOM     11  C   UNL     1       1.596   8.002  20.223  0.00  0.00    +0.000 A 
ENDBRANCH   3   6
ENDBRANCH   1   2
BRANCH   1  12
ATOM     12  C   UNL     1       4.742   4.247  17.635  0.00  0.00    +0.000 C 
ATOM     13  O   UNL     1       5.552   3.911  18.496  0.00  0.00    +0.000 OA
ATOM     14  N   UNL     1       5.101   4.869  16.466  0.00  0.00    +0.000 N 
ATOM     15  H   UNL     1       4.407   4.898  15.717  0.00  0.00    +0.000 HD
BRANCH  14  16
ATOM     16  C   UNL     1       6.469   5.160  16.102  0.00  0.00    +0.000 C 
BRANCH  16  17
ATOM     17  C   UNL     1       6.715   4.853  14.641  0.00  0.00    +0.000 A 
ATOM     18  C   UNL     1       5.932   3.898  13.991  0.00  0.00    +0.000 A 
ATOM     19  C   UNL     1       6.198   3.597  12.659  0.00  0.00    +0.000 A 
ATOM     20  C   UNL     1       7.233   4.257  12.009  0.00  0.00    +0.000 A 
ATOM     21  C   UNL     1       7.962   5.194  12.724  0.00  0.00    +0.000 A 
ATOM     22  N   UNL     1       7.728   5.506  14.019  0.00  0.00    +0.000 NA
ENDBRANCH  16  17
ENDBRANCH  14  16
ENDBRANCH   1  12
BRANCH   1  24
ATOM     23  C   UNL     1       1.390   2.972  19.233  0.00  0.00    +0.000 C 
ATOM     24  C   UNL     1       2.880   2.966  18.874  0.00  0.00    +0.000 C 
ATOM     25  C   UNL     1       3.264   1.567  18.376  0.00  0.00    +0.000 C 
ENDBRANCH   1  24
TORSDOF 6
ENDMDL
MODEL 4
REMARK VINA RESULT:      -7.9      1.307      1.511
REMARK  Name = 
REMARK  8 active torsions:
REMARK  status: ('A' for Active; 'I' for Inactive)
REMARK    1  A    between atoms: C_1  and  C_2
REMARK    2  A    between atoms: C_2  and  C_3
REMARK    3  A    between atoms: C_2  and  C_4
REMARK    4  A    between atoms: C_4  and  N_5
REMARK    5  A    between atoms: C_4  and  C_14
REMARK    6  A    between atoms: C_6  and  C_8
REMARK    7  A    between atoms: N_16  and  C_17
REMARK    8  A    between atoms: C_17  and  C_18
REMARK                            x       y       z     vdW  Elec       q    Type
REMARK                         _______ _______ _______ _____ _____    ______ ____
ROOT
ATOM      1  C   UNL     1       3.531   4.664  19.237  0.00  0.00    +0.000 C 
ENDROOT
BRANCH   1   2
ATOM      2  N   UNL     1       2.944   5.887  19.802  0.00  0.00    +0.000 N 
ATOM      3  C   UNL     1       2.556   6.974  19.049  0.00  0.00    +0.000 C 
ATOM      4  O   UNL     1       2.711   7.055  17.838  0.00  0.00    +0.000 OA
ATOM      5  H   UNL     1       2.585   5.812  20.746  0.00  0.00    +0.000 HD
BRANCH   3   6
ATOM      6  C   UNL     1       1.821   8.032  19.779  0.00  0.00    +0.000 A 
ATOM      7  C   UNL     1       1.552   7.913  21.146  0.00  0.00    +0.000 A 
ATOM      8  C   UNL     1       0.830   8.914  21.795  0.00  0.00    +0.000 A 
ATOM      9  C   UNL     1       0.387  10.033  21.083  0.00  0.00    +0.000 A 
ATOM     10  C   UNL     1       0.671  10.158  19.723  0.00  0.00    +0.000 A 
ATOM     11  C   UNL     1       1.395   9.160  19.071  0.00  0.00    +0.000 A 
ENDBRANCH   3   6
ENDBRANCH   1   2
BRANCH   1  12
ATOM     12  C   UNL     1       5.013   4.914  18.862  0.00  0.00    +0.000 C 
ATOM     13  O   UNL     1       5.906   4.922  19.707  0.00  0.00    +0.000 OA
ATOM     14  N   UNL     1       5.232   5.170  17.533  0.00  0.00    +0.000 N 
ATOM     15  H   UNL     1       4.492   4.914  16.877  0.00  0.00    +0.000 HD
BRANCH  14  16
ATOM     16  C   UNL     1       6.537   5.439  16.974  0.00  0.00    +0.000 C 
BRANCH  16  17
ATOM     17  C   UNL     1       6.598   5.021  15.521  0.00  0.00    +0.000 A 
ATOM     18  C   UNL     1       5.616   4.177  15.000  0.00  0.00    +0.000 A 
ATOM     19  C   UNL     1       5.709   3.769  13.674  0.00  0.00    +0.000 A 
ATOM     20  C   UNL     1       6.774   4.214  12.901  0.00  0.00    +0.000 A 
ATOM     21  C   UNL     1       7.706   5.052  13.492  0.00  0.00    +0.000 A 
ATOM     22  N   UNL     1       7.643   5.465  14.778  0.00  0.00    +0.000 NA
ENDBRANCH  16  17
ENDBRANCH  14  16
ENDBRANCH   1  12
BRANCH   1  24
ATOM     23  C   UNL     1       2.250   3.596  21.165  0.00  0.00    +0.000 C 
ATOM     24  C   UNL     1       3.341   3.396  20.106  0.00  0.00    +0.000 C 
ATOM     25  C   UNL     1       2.976   2.181  19.242  0.00  0.00    +0.000 C 
ENDBRANCH   1  24
TORSDOF 6
ENDMDL
MODEL 5
REMARK VINA RESULT:      -7.8      1.016      1.380
REMARK  Name = 
REMARK  8 active torsions:
REMARK  status: ('A' for Active; 'I' for Inactive)
REMARK    1  A    between atoms: C_1  and  C_2
REMARK    2  A    between atoms: C_2  and  C_3
REMARK    3  A    between atoms: C_2  and  C_4
REMARK    4  A    between atoms: C_4  and  N_5
REMARK    5  A    between atoms: C_4  and  C_14
REMARK    6  A    between atoms: C_6  and  C_8
REMARK    7  A    between atoms: N_16  and  C_17
REMARK    8  A    between atoms: C_17  and  C_18
REMARK                            x       y       z     vdW  Elec       q    Type
REMARK                         _______ _______ _______ _____ _____    ______ ____
ROOT
ATOM      1  C   UNL     1       2.829   4.749  17.759  0.00  0.00    +0.000 C 
ENDROOT
BRANCH   1   2
ATOM      2  N   UNL     1       2.366   5.842  18.625  0.00  0.00    +0.000 N 
ATOM      3  C   UNL     1       2.601   7.176  18.372  0.00  0.00    +0.000 C 
ATOM      4  O   UNL     1       3.265   7.585  17.431  0.00  0.00    +0.000 OA
ATOM      5  H   UNL     1       1.636   5.606  19.286  0.00  0.00    +0.000 HD
BRANCH   3   6
ATOM      6  C   UNL     1       1.900   8.131  19.261  0.00  0.00    +0.000 A 
ATOM      7  C   UNL     1       1.677   7.833  20.610  0.00  0.00    +0.000 A 
ATOM      8  C   UNL     1       0.986   8.742  21.409  0.00  0.00    +0.000 A 
ATOM      9  C   UNL     1       0.528   9.946  20.868  0.00  0.00    +0.000 A 
ATOM     10  C   UNL     1       0.765  10.249  19.527  0.00  0.00    +0.000 A 
ATOM     11  C   UNL     1       1.459   9.344  18.723  0.00  0.00    +0.000 A 
ENDBRANCH   3   6
ENDBRANCH   1   2
BRANCH   1  12
ATOM     12  C   UNL     1       4.377   4.715  17.731  0.00  0.00    +0.000 C 
ATOM     13  O   UNL     1       5.044   4.573  18.754  0.00  0.00    +0.000 OA
ATOM     14  N   UNL     1       4.932   4.906  16.492  0.00  0.00    +0.000 N 
ATOM     15  H   UNL     1       4.323   4.781  15.680  0.00  0.00    +0.000 HD
BRANCH  14  16
ATOM     16  C   UNL     1       6.356   4.922  16.245  0.00  0.00    +0.000 C 
BRANCH  16  17
ATOM     17  C   UNL     1       6.650   4.741  14.773  0.00  0.00    +0.000 A 
ATOM     18  C   UNL     1       5.897   3.839  14.020  0.00  0.00    +0.000 A 
ATOM     19  C   UNL     1       6.207   3.654  12.677  0.00  0.00    +0.000 A 
ATOM     20  C   UNL     1       7.256   4.373  12.118  0.00  0.00    +0.000 A 
ATOM     21  C   UNL     1       7.953   5.251  12.932  0.00  0.00    +0.000 A 
ATOM     22  N   UNL     1       7.676   5.451  14.240  0.00  0.00    +0.000 NA
ENDBRANCH  16  17
ENDBRANCH  14  16
ENDBRANCH   1  12
BRANCH   1  24
ATOM     23  C   UNL     1       3.201   2.228  17.818  0.00  0.00    +0.000 C 
ATOM     24  C   UNL     1       2.208   3.366  18.079  0.00  0.00    +0.000 C 
ATOM     25  C   UNL     1       1.740   3.292  19.538  0.00  0.00    +0.000 C 
ENDBRANCH   1  24
TORSDOF 6
ENDMDL
MODEL 6
REMARK VINA RESULT:      -7.7      3.080      7.205
REMARK  Name = 
REMARK  8 active torsions:
REMARK  status: ('A' for Active; 'I' for Inactive)
REMARK    1  A    between atoms: C_1  and  C_2
REMARK    2  A    between atoms: C_2  and  C_3
REMARK    3  A    between atoms: C_2  and  C_4
REMARK    4  A    between atoms: C_4  and  N_5
REMARK    5  A    between atoms: C_4  and  C_14
REMARK    6  A    between atoms: C_6  and  C_8
REMARK    7  A    between atoms: N_16  and  C_17
REMARK    8  A    between atoms: C_17  and  C_18
REMARK                            x       y       z     vdW  Elec       q    Type
REMARK                         _______ _______ _______ _____ _____    ______ ____
ROOT
ATOM      1  C   UNL     1       5.882   5.674  18.095  0.00  0.00    +0.000 C 
ENDROOT
BRANCH   1   2
ATOM      2  N   UNL     1       5.968   5.019  16.783  0.00  0.00    +0.000 N 
ATOM      3  C   UNL     1       5.676   5.644  15.589  0.00  0.00    +0.000 C 
ATOM      4  O   UNL     1       5.263   6.791  15.504  0.00  0.00    +0.000 OA
ATOM      5  H   UNL     1       6.504   4.160  16.750  0.00  0.00    +0.000 HD
BRANCH   3   6
ATOM      6  C   UNL     1       5.997   4.874  14.366  0.00  0.00    +0.000 A 
ATOM      7  C   UNL     1       7.219   5.041  13.706  0.00  0.00    +0.000 A 
ATOM      8  C   UNL     1       7.474   4.323  12.539  0.00  0.00    +0.000 A 
ATOM      9  C   UNL     1       6.518   3.436  12.037  0.00  0.00    +0.000 A 
ATOM     10  C   UNL     1       5.306   3.258  12.705  0.00  0.00    +0.000 A 
ATOM     11  C   UNL     1       5.047   3.972  13.875  0.00  0.00    +0.000 A 
ENDBRANCH   3   6
ENDBRANCH   1   2
BRANCH   1  12
ATOM     12  C   UNL     1       5.059   4.796  19.071  0.00  0.00    +0.000 C 
ATOM     13  O   UNL     1       4.274   5.284  19.882  0.00  0.00    +0.000 OA
ATOM     14  N   UNL     1       5.315   3.452  18.986  0.00  0.00    +0.000 N 
ATOM     15  H   UNL     1       5.789   3.115  18.145  0.00  0.00    +0.000 HD
BRANCH  14  16
ATOM     16  C   UNL     1       4.664   2.459  19.811  0.00  0.00    +0.000 C 
BRANCH  16  17
ATOM     17  C   UNL     1       3.161   2.614  19.757  0.00  0.00    +0.000 A 
ATOM     18  C   UNL     1       2.492   2.480  18.539  0.00  0.00    +0.000 A 
ATOM     19  C   UNL     1       1.115   2.666  18.499  0.00  0.00    +0.000 A 
ATOM     20  C   UNL     1       0.438   2.978  19.672  0.00  0.00    +0.000 A 
ATOM     21  C   UNL     1       1.174   3.090  20.840  0.00  0.00    +0.000 A 
ATOM     22  N   UNL     1       2.513   2.916  20.910  0.00  0.00    +0.000 NA
ENDBRANCH  16  17
ENDBRANCH  14  16
ENDBRANCH   1  12
BRANCH   1  24
ATOM     23  C   UNL     1       8.290   4.994  18.580  0.00  0.00    +0.000 C 
ATOM     24  C   UNL     1       7.244   6.109  18.689  0.00  0.00    +0.000 C 
ATOM     25  C   UNL     1       7.782   7.363  17.985  0.00  0.00    +0.000 C 
ENDBRANCH   1  24
TORSDOF 6
ENDMDL
MODEL 7
REMARK VINA RESULT:      -7.7      1.639      2.329
REMARK  Name = 
REMARK  8 active torsions:
REMARK  status: ('A' for Active; 'I' for Inactive)
REMARK    1  A    between atoms: C_1  and  C_2
REMARK    2  A    between atoms: C_2  and  C_3
REMARK    3  A    between atoms: C_2  and  C_4
REMARK    4  A    between atoms: C_4  and  N_5
REMARK    5  A    between atoms: C_4  and  C_14
REMARK    6  A    between atoms: C_6  and  C_8
REMARK    7  A    between atoms: N_16  and  C_17
REMARK    8  A    between atoms: C_17  and  C_18
REMARK                            x       y       z     vdW  Elec       q    Type
REMARK                         _______ _______ _______ _____ _____    ______ ____
ROOT
ATOM      1  C   UNL     1       2.789   5.310  19.341  0.00  0.00    +0.000 C 
ENDROOT
BRANCH   1   2
ATOM      2  N   UNL     1       2.261   6.470  20.071  0.00  0.00    +0.000 N 
ATOM      3  C   UNL     1       1.981   7.686  19.487  0.00  0.00    +0.000 C 
ATOM      4  O   UNL     1       2.195   7.942  18.310  0.00  0.00    +0.000 OA
ATOM      5  H   UNL     1       1.856   6.276  20.979  0.00  0.00    +0.000 HD
BRANCH   3   6
ATOM      6  C   UNL     1       1.287   8.669  20.350  0.00  0.00    +0.000 A 
ATOM      7  C   UNL     1       0.727   9.834  19.813  0.00  0.00    +0.000 A 
ATOM      8  C   UNL     1       0.109  10.753  20.660  0.00  0.00    +0.000 A 
ATOM      9  C   UNL     1       0.042  10.506  22.034  0.00  0.00    +0.000 A 
ATOM     10  C   UNL     1       0.586   9.337  22.565  0.00  0.00    +0.000 A 
ATOM     11  C   UNL     1       1.203   8.413  21.722  0.00  0.00    +0.000 A 
ENDBRANCH   3   6
ENDBRANCH   1   2
BRANCH   1  12
ATOM     12  C   UNL     1       4.276   5.547  18.977  0.00  0.00    +0.000 C 
ATOM     13  O   UNL     1       5.184   5.338  19.779  0.00  0.00    +0.000 OA
ATOM     14  N   UNL     1       4.485   6.050  17.719  0.00  0.00    +0.000 N 
ATOM     15  H   UNL     1       3.718   5.970  17.048  0.00  0.00    +0.000 HD
BRANCH  14  16
ATOM     16  C   UNL     1       5.793   6.352  17.184  0.00  0.00    +0.000 C 
BRANCH  16  17
ATOM     17  C   UNL     1       6.051   5.570  15.915  0.00  0.00    +0.000 A 
ATOM     18  C   UNL     1       5.079   4.692  15.432  0.00  0.00    +0.000 A 
ATOM     19  C   UNL     1       5.348   3.948  14.287  0.00  0.00    +0.000 A 
ATOM     20  C   UNL     1       6.575   4.101  13.653  0.00  0.00    +0.000 A 
ATOM     21  C   UNL     1       7.484   4.995  14.194  0.00  0.00    +0.000 A 
ATOM     22  N   UNL     1       7.252   5.730  15.306  0.00  0.00    +0.000 NA
ENDBRANCH  16  17
ENDBRANCH  14  16
ENDBRANCH   1  12
BRANCH   1  24
ATOM     23  C   UNL     1       1.120   3.818  20.559  0.00  0.00    +0.000 C 
ATOM     24  C   UNL     1       2.555   3.947  20.039  0.00  0.00    +0.000 C 
ATOM     25  C   UNL     1       2.844   2.779  19.086  0.00  0.00    +0.000 C 
ENDBRANCH   1  24
TORSDOF 6
ENDMDL
MODEL 8
REMARK VINA RESULT:      -7.7      2.143      5.343
REMARK  Name = 
REMARK  8 active torsions:
REMARK  status: ('A' for Active; 'I' for Inactive)
REMARK    1  A    between atoms: C_1  and  C_2
REMARK    2  A    between atoms: C_2  and  C_3
REMARK    3  A    between atoms: C_2  and  C_4
REMARK    4  A    between atoms: C_4  and  N_5
REMARK    5  A    between atoms: C_4  and  C_14
REMARK    6  A    between atoms: C_6  and  C_8
REMARK    7  A    between atoms: N_16  and  C_17
REMARK    8  A    between atoms: C_17  and  C_18
REMARK                            x       y       z     vdW  Elec       q    Type
REMARK                         _______ _______ _______ _____ _____    ______ ____
ROOT
ATOM      1  C   UNL     1       5.638   5.854  17.652  0.00  0.00    +0.000 C 
ENDROOT
BRANCH   1   2
ATOM      2  N   UNL     1       4.632   6.876  17.971  0.00  0.00    +0.000 N 
ATOM      3  C   UNL     1       3.277   6.634  18.022  0.00  0.00    +0.000 C 
ATOM      4  O   UNL     1       2.767   5.555  17.755  0.00  0.00    +0.000 OA
ATOM      5  H   UNL     1       4.980   7.719  18.413  0.00  0.00    +0.000 HD
BRANCH   3   6
ATOM      6  C   UNL     1       2.444   7.745  18.537  0.00  0.00    +0.000 A 
ATOM      7  C   UNL     1       1.943   7.728  19.843  0.00  0.00    +0.000 A 
ATOM      8  C   UNL     1       1.136   8.775  20.284  0.00  0.00    +0.000 A 
ATOM      9  C   UNL     1       0.838   9.839  19.428  0.00  0.00    +0.000 A 
ATOM     10  C   UNL     1       1.351   9.863  18.131  0.00  0.00    +0.000 A 
ATOM     11  C   UNL     1       2.162   8.818  17.686  0.00  0.00    +0.000 A 
ENDBRANCH   3   6
ENDBRANCH   1   2
BRANCH   1  12
ATOM     12  C   UNL     1       5.563   4.699  18.682  0.00  0.00    +0.000 C 
ATOM     13  O   UNL     1       6.176   4.735  19.747  0.00  0.00    +0.000 OA
ATOM     14  N   UNL     1       4.804   3.628  18.287  0.00  0.00    +0.000 N 
ATOM     15  H   UNL     1       4.150   3.774  17.514  0.00  0.00    +0.000 HD
BRANCH  14  16
ATOM     16  C   UNL     1       4.609   2.443  19.091  0.00  0.00    +0.000 C 
BRANCH  16  17
ATOM     17  C   UNL     1       3.334   2.543  19.899  0.00  0.00    +0.000 A 
ATOM     18  C   UNL     1       2.103   2.622  19.246  0.00  0.00    +0.000 A 
ATOM     19  C   UNL     1       0.944   2.755  20.002  0.00  0.00    +0.000 A 
ATOM     20  C   UNL     1       1.039   2.802  21.387  0.00  0.00    +0.000 A 
ATOM     21  C   UNL     1       2.298   2.714  21.959  0.00  0.00    +0.000 A 
ATOM     22  N   UNL     1       3.443   2.586  21.251  0.00  0.00    +0.000 NA
ENDBRANCH  16  17
ENDBRANCH  14  16
ENDBRANCH   1  12
BRANCH   1  24
ATOM     23  C   UNL     1       5.280   6.483  15.208  0.00  0.00    +0.000 C 
ATOM     24  C   UNL     1       5.604   5.350  16.188  0.00  0.00    +0.000 C 
ATOM     25  C   UNL     1       6.943   4.716  15.788  0.00  0.00    +0.000 C 
ENDBRANCH   1  24
TORSDOF 6
ENDMDL
MODEL 9
REMARK VINA RESULT:      -7.7      1.070      1.139
REMARK  Name = 
REMARK  8 active torsions:
REMARK  status: ('A' for Active; 'I' for Inactive)
REMARK    1  A    between atoms: C_1  and  C_2
REMARK    2  A    between atoms: C_2  and  C_3
REMARK    3  A    between atoms: C_2  and  C_4
REMARK    4  A    between atoms: C_4  and  N_5
REMARK    5  A    between atoms: C_4  and  C_14
REMARK    6  A    between atoms: C_6  and  C_8
REMARK    7  A    between atoms: N_16  and  C_17
REMARK    8  A    between atoms: C_17  and  C_18
REMARK                            x       y       z     vdW  Elec       q    Type
REMARK                         _______ _______ _______ _____ _____    ______ ____
ROOT
ATOM      1  C   UNL     1       4.213   4.268  18.552  0.00  0.00    +0.000 C 
ENDROOT
BRANCH   1   2
ATOM      2  N   UNL     1       3.656   5.553  18.996  0.00  0.00    +0.000 N 
ATOM      3  C   UNL     1       2.463   6.073  18.543  0.00  0.00    +0.000 C 
ATOM      4  O   UNL     1       1.773   5.545  17.684  0.00  0.00    +0.000 OA
ATOM      5  H   UNL     1       4.046   5.934  19.850  0.00  0.00    +0.000 HD
BRANCH   3   6
ATOM      6  C   UNL     1       1.985   7.287  19.243  0.00  0.00    +0.000 A 
ATOM      7  C   UNL     1       1.696   7.267  20.612  0.00  0.00    +0.000 A 
ATOM      8  C   UNL     1       1.217   8.420  21.231  0.00  0.00    +0.000 A 
ATOM      9  C   UNL     1       1.036   9.591  20.490  0.00  0.00    +0.000 A 
ATOM     10  C   UNL     1       1.340   9.615  19.128  0.00  0.00    +0.000 A 
ATOM     11  C   UNL     1       1.822   8.463  18.505  0.00  0.00    +0.000 A 
ENDBRANCH   3   6
ENDBRANCH   1   2
BRANCH   1  12
ATOM     12  C   UNL     1       5.674   4.462  18.073  0.00  0.00    +0.000 C 
ATOM     13  O   UNL     1       6.636   4.189  18.788  0.00  0.00    +0.000 OA
ATOM     14  N   UNL     1       5.798   5.005  16.820  0.00  0.00    +0.000 N 
ATOM     15  H   UNL     1       4.975   4.980  16.213  0.00  0.00    +0.000 HD
BRANCH  14  16
ATOM     16  C   UNL     1       7.068   5.278  16.187  0.00  0.00    +0.000 C 
BRANCH  16  17
ATOM     17  C   UNL     1       7.031   4.908  14.721  0.00  0.00    +0.000 A 
ATOM     18  C   UNL     1       6.149   3.923  14.276  0.00  0.00    +0.000 A 
ATOM     19  C   UNL     1       6.157   3.565  12.932  0.00  0.00    +0.000 A 
ATOM     20  C   UNL     1       7.039   4.199  12.067  0.00  0.00    +0.000 A 
ATOM     21  C   UNL     1       7.880   5.169  12.586  0.00  0.00    +0.000 A 
ATOM     22  N   UNL     1       7.897   5.537  13.888  0.00  0.00    +0.000 NA
ENDBRANCH  16  17
ENDBRANCH  14  16
ENDBRANCH   1  12
BRANCH   1  24
ATOM     23  C   UNL     1       3.025   3.438  20.649  0.00  0.00    +0.000 C 
ATOM     24  C   UNL     1       4.070   3.114  19.575  0.00  0.00    +0.000 C 
ATOM     25  C   UNL     1       3.677   1.803  18.881  0.00  0.00    +0.000 C 
ENDBRANCH   1  24
TORSDOF 6
ENDMDL
