MODEL 1
REMARK VINA RESULT:      -8.6      0.000      0.000
REMARK  Name = 
REMARK  10 active torsions:
REMARK  status: ('A' for Active; 'I' for Inactive)
REMARK    1  A    between atoms: C_1  and  O_2
REMARK    2  A    between atoms: O_2  and  C_3
REMARK    3  A    between atoms: C_3  and  C_4
REMARK    4  A    between atoms: C_4  and  N_5
REMARK    5  A    between atoms: C_8  and  C_9
REMARK    6  A    between atoms: N_11  and  C_12
REMARK    7  A    between atoms: C_23  and  O_24
REMARK    8  A    between atoms: O_24  and  C_25
REMARK    9  A    between atoms: C_28  and  O_29
REMARK   10  A    between atoms: O_29  and  C_30
REMARK                            x       y       z     vdW  Elec       q    Type
REMARK                         _______ _______ _______ _____ _____    ______ ____
ROOT
ATOM      1  N   UNL     1       0.472  10.038  19.477  0.00  0.00    +0.000 N 
ATOM      2  C   UNL     1       1.205   8.978  18.979  0.00  0.00    +0.000 A 
ATOM      3  O   UNL     1       1.386   8.803  17.738  0.00  0.00    +0.000 OA
ATOM      4  C   UNL     1       1.738   7.882  19.833  0.00  0.00    +0.000 A 
ATOM      5  N   UNL     1       1.359   7.953  21.157  0.00  0.00    +0.000 NA
ATOM      6  C   UNL     1       0.545   9.214  21.688  0.00  0.00    +0.000 A 
ATOM      7  C   UNL     1       0.049   9.559  22.988  0.00  0.00    +0.000 A 
ATOM      8  N   UNL     1      -0.615  10.755  23.404  0.00  0.00    +0.000 NA
ATOM      9  C   UNL     1      -0.847  11.676  22.468  0.00  0.00    +0.000 A 
ATOM     10  N   UNL     1      -0.521  11.429  21.185  0.00  0.00    +0.000 NA
ATOM     11  C   UNL     1       0.151  10.235  20.840  0.00  0.00    +0.000 A 
ENDROOT
BRANCH   4  12
ATOM     12  C   UNL     1       2.326   6.488  18.930  0.00  0.00    +0.000 A 
ATOM     13  C   UNL     1       3.534   6.188  19.537  0.00  0.00    +0.000 A 
ATOM     14  N   UNL     1       4.067   5.801  18.362  0.00  0.00    +0.000 N 
ATOM     15  C   UNL     1       4.742   6.478  17.292  0.00  0.00    +0.000 C 
ATOM     16  C   UNL     1       3.508   4.596  18.125  0.00  0.00    +0.000 A 
ATOM     17  C   UNL     1       4.388   3.506  17.684  0.00  0.00    +0.000 A 
ATOM     18  C   UNL     1       4.016   2.228  17.435  0.00  0.00    +0.000 A 
ATOM     19  C   UNL     1       2.679   2.115  17.580  0.00  0.00    +0.000 A 
ATOM     20  C   UNL     1       1.818   3.330  17.981  0.00  0.00    +0.000 A 
ATOM     21  C   UNL     1       2.039   4.810  18.422  0.00  0.00    +0.000 A 
ENDBRANCH   4  12
BRANCH   1  22
ATOM     22  C   UNL     1      -0.089  10.918  18.484  0.00  0.00    +0.000 C 
BRANCH  22  23
ATOM     23  C   UNL     1      -1.451  10.432  17.981  0.00  0.00    +0.000 C 
BRANCH  23  25
ATOM     24  C   UNL     1      -2.742  10.973  16.097  0.00  0.00    +0.000 C 
ATOM     25  O   UNL     1      -2.052  11.484  17.227  0.00  0.00    +0.000 OA
ENDBRANCH  23  25
ENDBRANCH  22  23
ENDBRANCH   1  22
BRANCH   9  26
ATOM     26  O   UNL     1      -1.443  12.954  22.740  0.00  0.00    +0.000 OA
BRANCH  26  27
ATOM     27  C   UNL     1      -2.818  13.101  22.881  0.00  0.00    +0.000 A 
ATOM     28  C   UNL     1      -3.564  13.699  21.848  0.00  0.00    +0.000 A 
ATOM     29  C   UNL     1      -4.971  13.788  21.927  0.00  0.00    +0.000 A 
ATOM     30  C   UNL     1      -5.650  13.339  23.062  0.00  0.00    +0.000 A 
ATOM     31  C   UNL     1      -4.899  12.880  24.143  0.00  0.00    +0.000 A 
ATOM     32  C   UNL     1      -3.492  12.790  24.063  0.00  0.00    +0.000 A 
BRANCH  30  33
ATOM     33  O   UNL     1      -7.019  13.396  22.999  0.00  0.00    +0.000 OA
ATOM     34  C   UNL     1      -7.722  12.168  23.179  0.00  0.00    +0.000 C 
ENDBRANCH  30  33
ENDBRANCH  26  27
ENDBRANCH   9  26
TORSDOF 7
ENDMDL
MODEL 2
REMARK VINA RESULT:      -8.5      0.889      1.127
REMARK  Name = 
REMARK  10 active torsions:
REMARK  status: ('A' for Active; 'I' for Inactive)
REMARK    1  A    between atoms: C_1  and  O_2
REMARK    2  A    between atoms: O_2  and  C_3
REMARK    3  A    between atoms: C_3  and  C_4
REMARK    4  A    between atoms: C_4  and  N_5
REMARK    5  A    between atoms: C_8  and  C_9
REMARK    6  A    between atoms: N_11  and  C_12
REMARK    7  A    between atoms: C_23  and  O_24
REMARK    8  A    between atoms: O_24  and  C_25
REMARK    9  A    between atoms: C_28  and  O_29
REMARK   10  A    between atoms: O_29  and  C_30
REMARK                            x       y       z     vdW  Elec       q    Type
REMARK                         _______ _______ _______ _____ _____    ______ ____
ROOT
ATOM      1  N   UNL     1       0.771  10.117  19.543  0.00  0.00    +0.000 N 
ATOM      2  C   UNL     1       1.423   8.995  19.066  0.00  0.00    +0.000 A 
ATOM      3  O   UNL     1       1.684   8.835  17.837  0.00  0.00    +0.000 OA
ATOM      4  C   UNL     1       1.760   7.824  19.919  0.00  0.00    +0.000 A 
ATOM      5  N   UNL     1       1.284   7.900  21.210  0.00  0.00    +0.000 NA
ATOM      6  C   UNL     1       0.571   9.229  21.721  0.00  0.00    +0.000 A 
ATOM      7  C   UNL     1       0.011   9.592  22.990  0.00  0.00    +0.000 A 
ATOM      8  N   UNL     1      -0.551  10.843  23.395  0.00  0.00    +0.000 NA
ATOM      9  C   UNL     1      -0.603  11.809  22.478  0.00  0.00    +0.000 A 
ATOM     10  N   UNL     1      -0.201  11.562  21.216  0.00  0.00    +0.000 NA
ATOM     11  C   UNL     1       0.362  10.310  20.882  0.00  0.00    +0.000 A 
ENDROOT
BRANCH   4  12
ATOM     12  C   UNL     1       2.265   6.398  19.015  0.00  0.00    +0.000 A 
ATOM     13  C   UNL     1       3.515   6.103  19.536  0.00  0.00    +0.000 A 
ATOM     14  N   UNL     1       3.951   5.677  18.335  0.00  0.00    +0.000 N 
ATOM     15  C   UNL     1       4.547   6.316  17.196  0.00  0.00    +0.000 C 
ATOM     16  C   UNL     1       3.367   4.472  18.178  0.00  0.00    +0.000 A 
ATOM     17  C   UNL     1       4.201   3.360  17.703  0.00  0.00    +0.000 A 
ATOM     18  C   UNL     1       3.800   2.079  17.522  0.00  0.00    +0.000 A 
ATOM     19  C   UNL     1       2.477   1.984  17.773  0.00  0.00    +0.000 A 
ATOM     20  C   UNL     1       1.660   3.219  18.203  0.00  0.00    +0.000 A 
ATOM     21  C   UNL     1       1.926   4.709  18.581  0.00  0.00    +0.000 A 
ENDBRANCH   4  12
BRANCH   1  22
ATOM     22  C   UNL     1       0.392  11.081  18.541  0.00  0.00    +0.000 C 
BRANCH  22  23
ATOM     23  C   UNL     1      -1.108  11.044  18.239  0.00  0.00    +0.000 C 
BRANCH  23  25
ATOM     24  C   UNL     1      -2.740   9.864  17.034  0.00  0.00    +0.000 C 
ATOM     25  O   UNL     1      -1.357   9.968  17.336  0.00  0.00    +0.000 OA
ENDBRANCH  23  25
ENDBRANCH  22  23
ENDBRANCH   1  22
BRANCH   9  26
ATOM     26  O   UNL     1      -1.077  13.137  22.748  0.00  0.00    +0.000 OA
BRANCH  26  27
ATOM     27  C   UNL     1      -2.418  13.393  23.011  0.00  0.00    +0.000 A 
ATOM     28  C   UNL     1      -2.766  14.350  23.983  0.00  0.00    +0.000 A 
ATOM     29  C   UNL     1      -4.117  14.689  24.215  0.00  0.00    +0.000 A 
ATOM     30  C   UNL     1      -5.144  14.037  23.526  0.00  0.00    +0.000 A 
ATOM     31  C   UNL     1      -4.803  12.990  22.671  0.00  0.00    +0.000 A 
ATOM     32  C   UNL     1      -3.452  12.652  22.439  0.00  0.00    +0.000 A 
BRANCH  30  33
ATOM     33  O   UNL     1      -6.411  14.501  23.767  0.00  0.00    +0.000 OA
ATOM     34  C   UNL     1      -6.599  15.914  23.714  0.00  0.00    +0.000 C 
ENDBRANCH  30  33
ENDBRANCH  26  27
ENDBRANCH   9  26
TORSDOF 7
ENDMDL
MODEL 3
REMARK VINA RESULT:      -8.5      1.278      1.482
REMARK  Name = 
REMARK  10 active torsions:
REMARK  status: ('A' for Active; 'I' for Inactive)
REMARK    1  A    between atoms: C_1  and  O_2
REMARK    2  A    between atoms: O_2  and  C_3
REMARK    3  A    between atoms: C_3  and  C_4
REMARK    4  A    between atoms: C_4  and  N_5
REMARK    5  A    between atoms: C_8  and  C_9
REMARK    6  A    between atoms: N_11  and  C_12
REMARK    7  A    between atoms: C_23  and  O_24
REMARK    8  A    between atoms: O_24  and  C_25
REMARK    9  A    between atoms: C_28  and  O_29
REMARK   10  A    between atoms: O_29  and  C_30
REMARK                            x       y       z     vdW  Elec       q    Type
REMARK                         _______ _______ _______ _____ _____    ______ ____
ROOT
ATOM      1  N   UNL     1       0.862  10.189  19.646  0.00  0.00    +0.000 N 
ATOM      2  C   UNL     1       1.505   9.064  19.166  0.00  0.00    +0.000 A 
ATOM      3  O   UNL     1       1.844   8.945  17.951  0.00  0.00    +0.000 OA
ATOM      4  C   UNL     1       1.743   7.847  19.987  0.00  0.00    +0.000 A 
ATOM      5  N   UNL     1       1.183   7.888  21.246  0.00  0.00    +0.000 NA
ATOM      6  C   UNL     1       0.484   9.220  21.766  0.00  0.00    +0.000 A 
ATOM      7  C   UNL     1      -0.148   9.551  23.010  0.00  0.00    +0.000 A 
ATOM      8  N   UNL     1      -0.693  10.804  23.431  0.00  0.00    +0.000 NA
ATOM      9  C   UNL     1      -0.649  11.808  22.555  0.00  0.00    +0.000 A 
ATOM     10  N   UNL     1      -0.171  11.599  21.314  0.00  0.00    +0.000 NA
ATOM     11  C   UNL     1       0.370  10.342  20.963  0.00  0.00    +0.000 A 
ENDROOT
BRANCH   4  12
ATOM     12  C   UNL     1       2.259   6.442  19.057  0.00  0.00    +0.000 A 
ATOM     13  C   UNL     1       3.504   6.137  19.583  0.00  0.00    +0.000 A 
ATOM     14  N   UNL     1       3.952   5.737  18.377  0.00  0.00    +0.000 N 
ATOM     15  C   UNL     1       4.557   6.402  17.258  0.00  0.00    +0.000 C 
ATOM     16  C   UNL     1       3.371   4.535  18.189  0.00  0.00    +0.000 A 
ATOM     17  C   UNL     1       4.211   3.435  17.698  0.00  0.00    +0.000 A 
ATOM     18  C   UNL     1       3.814   2.158  17.485  0.00  0.00    +0.000 A 
ATOM     19  C   UNL     1       2.489   2.056  17.722  0.00  0.00    +0.000 A 
ATOM     20  C   UNL     1       1.666   3.280  18.171  0.00  0.00    +0.000 A 
ATOM     21  C   UNL     1       1.926   4.761  18.584  0.00  0.00    +0.000 A 
ENDBRANCH   4  12
BRANCH   1  22
ATOM     22  C   UNL     1       0.585  11.207  18.665  0.00  0.00    +0.000 C 
BRANCH  22  23
ATOM     23  C   UNL     1       1.704  12.248  18.577  0.00  0.00    +0.000 C 
BRANCH  23  25
ATOM     24  C   UNL     1      -0.248  13.532  18.356  0.00  0.00    +0.000 C 
ATOM     25  O   UNL     1       1.123  13.543  18.721  0.00  0.00    +0.000 OA
ENDBRANCH  23  25
ENDBRANCH  22  23
ENDBRANCH   1  22
BRANCH   9  26
ATOM     26  O   UNL     1      -1.093  13.142  22.851  0.00  0.00    +0.000 OA
BRANCH  26  27
ATOM     27  C   UNL     1      -2.430  13.423  23.109  0.00  0.00    +0.000 A 
ATOM     28  C   UNL     1      -2.764  14.416  24.048  0.00  0.00    +0.000 A 
ATOM     29  C   UNL     1      -4.110  14.781  24.271  0.00  0.00    +0.000 A 
ATOM     30  C   UNL     1      -5.146  14.120  23.607  0.00  0.00    +0.000 A 
ATOM     31  C   UNL     1      -4.822  13.040  22.786  0.00  0.00    +0.000 A 
ATOM     32  C   UNL     1      -3.475  12.677  22.563  0.00  0.00    +0.000 A 
BRANCH  30  33
ATOM     33  O   UNL     1      -6.407  14.608  23.834  0.00  0.00    +0.000 OA
ATOM     34  C   UNL     1      -7.422  13.651  24.131  0.00  0.00    +0.000 C 
ENDBRANCH  30  33
ENDBRANCH  26  27
ENDBRANCH   9  26
TORSDOF 7
ENDMDL
MODEL 4
REMARK VINA RESULT:      -8.3      0.946      1.105
REMARK  Name = 
REMARK  10 active torsions:
REMARK  status: ('A' for Active; 'I' for Inactive)
REMARK    1  A    between atoms: C_1  and  O_2
REMARK    2  A    between atoms: O_2  and  C_3
REMARK    3  A    between atoms: C_3  and  C_4
REMARK    4  A    between atoms: C_4  and  N_5
REMARK    5  A    between atoms: C_8  and  C_9
REMARK    6  A    between atoms: N_11  and  C_12
REMARK    7  A    between atoms: C_23  and  O_24
REMARK    8  A    between atoms: O_24  and  C_25
REMARK    9  A    between atoms: C_28  and  O_29
REMARK   10  A    between atoms: O_29  and  C_30
REMARK                            x       y       z     vdW  Elec       q    Type
REMARK                         _______ _______ _______ _____ _____    ______ ____
ROOT
ATOM      1  N   UNL     1       0.831  10.141  19.619  0.00  0.00    +0.000 N 
ATOM      2  C   UNL     1       1.475   9.016  19.139  0.00  0.00    +0.000 A 
ATOM      3  O   UNL     1       1.783   8.883  17.918  0.00  0.00    +0.000 OA
ATOM      4  C   UNL     1       1.749   7.814  19.973  0.00  0.00    +0.000 A 
ATOM      5  N   UNL     1       1.222   7.868  21.245  0.00  0.00    +0.000 NA
ATOM      6  C   UNL     1       0.520   9.201  21.763  0.00  0.00    +0.000 A 
ATOM      7  C   UNL     1      -0.083   9.544  23.018  0.00  0.00    +0.000 A 
ATOM      8  N   UNL     1      -0.632  10.796  23.434  0.00  0.00    +0.000 NA
ATOM      9  C   UNL     1      -0.623  11.787  22.542  0.00  0.00    +0.000 A 
ATOM     10  N   UNL     1      -0.175  11.564  21.292  0.00  0.00    +0.000 NA
ATOM     11  C   UNL     1       0.372  10.309  20.946  0.00  0.00    +0.000 A 
ENDROOT
BRANCH   4  12
ATOM     12  C   UNL     1       2.257   6.402  19.051  0.00  0.00    +0.000 A 
ATOM     13  C   UNL     1       3.508   6.103  19.567  0.00  0.00    +0.000 A 
ATOM     14  N   UNL     1       3.945   5.692  18.361  0.00  0.00    +0.000 N 
ATOM     15  C   UNL     1       4.539   6.347  17.230  0.00  0.00    +0.000 C 
ATOM     16  C   UNL     1       3.363   4.488  18.190  0.00  0.00    +0.000 A 
ATOM     17  C   UNL     1       4.199   3.384  17.701  0.00  0.00    +0.000 A 
ATOM     18  C   UNL     1       3.802   2.105  17.504  0.00  0.00    +0.000 A 
ATOM     19  C   UNL     1       2.479   2.004  17.754  0.00  0.00    +0.000 A 
ATOM     20  C   UNL     1       1.659   3.231  18.199  0.00  0.00    +0.000 A 
ATOM     21  C   UNL     1       1.922   4.717  18.596  0.00  0.00    +0.000 A 
ENDBRANCH   4  12
BRANCH   1  22
ATOM     22  C   UNL     1       0.517  11.140  18.630  0.00  0.00    +0.000 C 
BRANCH  22  23
ATOM     23  C   UNL     1      -0.918  11.013  18.112  0.00  0.00    +0.000 C 
BRANCH  23  25
ATOM     24  C   UNL     1      -0.504  13.320  18.230  0.00  0.00    +0.000 C 
ATOM     25  O   UNL     1      -1.494  12.317  18.063  0.00  0.00    +0.000 OA
ENDBRANCH  23  25
ENDBRANCH  22  23
ENDBRANCH   1  22
BRANCH   9  26
ATOM     26  O   UNL     1      -1.075  13.120  22.829  0.00  0.00    +0.000 OA
BRANCH  26  27
ATOM     27  C   UNL     1      -2.424  13.455  22.789  0.00  0.00    +0.000 A 
ATOM     28  C   UNL     1      -3.333  12.607  22.130  0.00  0.00    +0.000 A 
ATOM     29  C   UNL     1      -4.719  12.879  22.143  0.00  0.00    +0.000 A 
ATOM     30  C   UNL     1      -5.213  14.031  22.759  0.00  0.00    +0.000 A 
ATOM     31  C   UNL     1      -4.298  14.942  23.285  0.00  0.00    +0.000 A 
ATOM     32  C   UNL     1      -2.913  14.669  23.274  0.00  0.00    +0.000 A 
BRANCH  30  33
ATOM     33  O   UNL     1      -6.578  14.154  22.785  0.00  0.00    +0.000 OA
ATOM     34  C   UNL     1      -7.136  14.890  23.872  0.00  0.00    +0.000 C 
ENDBRANCH  30  33
ENDBRANCH  26  27
ENDBRANCH   9  26
TORSDOF 7
ENDMDL
MODEL 5
REMARK VINA RESULT:      -8.1      0.983      1.725
REMARK  Name = 
REMARK  10 active torsions:
REMARK  status: ('A' for Active; 'I' for Inactive)
REMARK    1  A    between atoms: C_1  and  O_2
REMARK    2  A    between atoms: O_2  and  C_3
REMARK    3  A    between atoms: C_3  and  C_4
REMARK    4  A    between atoms: C_4  and  N_5
REMARK    5  A    between atoms: C_8  and  C_9
REMARK    6  A    between atoms: N_11  and  C_12
REMARK    7  A    between atoms: C_23  and  O_24
REMARK    8  A    between atoms: O_24  and  C_25
REMARK    9  A    between atoms: C_28  and  O_29
REMARK   10  A    between atoms: O_29  and  C_30
REMARK                            x       y       z     vdW  Elec       q    Type
REMARK                         _______ _______ _______ _____ _____    ______ ____
ROOT
ATOM      1  N   UNL     1       0.473  10.064  19.596  0.00  0.00    +0.000 N 
ATOM      2  C   UNL     1       1.372   9.098  19.187  0.00  0.00    +0.000 A 
ATOM      3  O   UNL     1       1.660   8.914  17.967  0.00  0.00    +0.000 OA
ATOM      4  C   UNL     1       1.984   8.107  20.113  0.00  0.00    +0.000 A 
ATOM      5  N   UNL     1       1.508   8.163  21.405  0.00  0.00    +0.000 NA
ATOM      6  C   UNL     1       0.500   9.318  21.836  0.00  0.00    +0.000 A 
ATOM      7  C   UNL     1      -0.125   9.630  23.088  0.00  0.00    +0.000 A 
ATOM      8  N   UNL     1      -0.969  10.737  23.415  0.00  0.00    +0.000 NA
ATOM      9  C   UNL     1      -1.255  11.592  22.433  0.00  0.00    +0.000 A 
ATOM     10  N   UNL     1      -0.811  11.355  21.184  0.00  0.00    +0.000 NA
ATOM     11  C   UNL     1       0.035  10.253  20.927  0.00  0.00    +0.000 A 
ENDROOT
BRANCH   4  12
ATOM     12  C   UNL     1       2.812   6.781  19.302  0.00  0.00    +0.000 A 
ATOM     13  C   UNL     1       1.786   5.920  18.946  0.00  0.00    +0.000 A 
ATOM     14  N   UNL     1       2.574   4.846  19.147  0.00  0.00    +0.000 N 
ATOM     15  C   UNL     1       2.896   4.034  20.285  0.00  0.00    +0.000 C 
ATOM     16  C   UNL     1       3.398   4.834  18.080  0.00  0.00    +0.000 A 
ATOM     17  C   UNL     1       3.615   3.554  17.393  0.00  0.00    +0.000 A 
ATOM     18  C   UNL     1       4.375   3.356  16.290  0.00  0.00    +0.000 A 
ATOM     19  C   UNL     1       4.978   4.514  15.948  0.00  0.00    +0.000 A 
ATOM     20  C   UNL     1       4.748   5.801  16.766  0.00  0.00    +0.000 A 
ATOM     21  C   UNL     1       3.853   6.273  17.953  0.00  0.00    +0.000 A 
ENDBRANCH   4  12
BRANCH   1  22
ATOM     22  C   UNL     1      -0.130  10.832  18.537  0.00  0.00    +0.000 C 
BRANCH  22  23
ATOM     23  C   UNL     1      -1.498  10.281  18.126  0.00  0.00    +0.000 C 
BRANCH  23  25
ATOM     24  C   UNL     1      -2.816   9.986  16.207  0.00  0.00    +0.000 C 
ATOM     25  O   UNL     1      -1.803  10.768  16.820  0.00  0.00    +0.000 OA
ENDBRANCH  23  25
ENDBRANCH  22  23
ENDBRANCH   1  22
BRANCH   9  26
ATOM     26  O   UNL     1      -2.032  12.785  22.618  0.00  0.00    +0.000 OA
BRANCH  26  27
ATOM     27  C   UNL     1      -3.400  12.734  22.857  0.00  0.00    +0.000 A 
ATOM     28  C   UNL     1      -3.871  12.552  24.171  0.00  0.00    +0.000 A 
ATOM     29  C   UNL     1      -5.254  12.576  24.456  0.00  0.00    +0.000 A 
ATOM     30  C   UNL     1      -6.190  12.721  23.430  0.00  0.00    +0.000 A 
ATOM     31  C   UNL     1      -5.728  12.755  22.115  0.00  0.00    +0.000 A 
ATOM     32  C   UNL     1      -4.345  12.732  21.830  0.00  0.00    +0.000 A 
BRANCH  30  33
ATOM     33  O   UNL     1      -7.500  12.815  23.825  0.00  0.00    +0.000 OA
ATOM     34  C   UNL     1      -7.913  14.059  24.388  0.00  0.00    +0.000 C 
ENDBRANCH  30  33
ENDBRANCH  26  27
ENDBRANCH   9  26
TORSDOF 7
ENDMDL
MODEL 6
REMARK VINA RESULT:      -8.0      1.472      1.838
REMARK  Name = 
REMARK  10 active torsions:
REMARK  status: ('A' for Active; 'I' for Inactive)
REMARK    1  A    between atoms: C_1  and  O_2
REMARK    2  A    between atoms: O_2  and  C_3
REMARK    3  A    between atoms: C_3  and  C_4
REMARK    4  A    between atoms: C_4  and  N_5
REMARK    5  A    between atoms: C_8  and  C_9
REMARK    6  A    between atoms: N_11  and  C_12
REMARK    7  A    between atoms: C_23  and  O_24
REMARK    8  A    between atoms: O_24  and  C_25
REMARK    9  A    between atoms: C_28  and  O_29
REMARK   10  A    between atoms: O_29  and  C_30
REMARK                            x       y       z     vdW  Elec       q    Type
REMARK                         _______ _______ _______ _____ _____    ______ ____
ROOT
ATOM      1  N   UNL     1       0.983   9.990  19.668  0.00  0.00    +0.000 N 
ATOM      2  C   UNL     1       1.668   8.845  19.308  0.00  0.00    +0.000 A 
ATOM      3  O   UNL     1       2.090   8.651  18.129  0.00  0.00    +0.000 OA
ATOM      4  C   UNL     1       1.860   7.687  20.222  0.00  0.00    +0.000 A 
ATOM      5  N   UNL     1       1.215   7.803  21.435  0.00  0.00    +0.000 NA
ATOM      6  C   UNL     1       0.469   9.157  21.817  0.00  0.00    +0.000 A 
ATOM      7  C   UNL     1      -0.249   9.561  22.990  0.00  0.00    +0.000 A 
ATOM      8  N   UNL     1      -0.833  10.831  23.289  0.00  0.00    +0.000 NA
ATOM      9  C   UNL     1      -0.739  11.776  22.353  0.00  0.00    +0.000 A 
ATOM     10  N   UNL     1      -0.175  11.492  21.164  0.00  0.00    +0.000 NA
ATOM     11  C   UNL     1       0.401  10.223  20.935  0.00  0.00    +0.000 A 
ENDROOT
BRANCH   4  12
ATOM     12  C   UNL     1       2.451   6.232  19.425  0.00  0.00    +0.000 A 
ATOM     13  C   UNL     1       3.045   5.512  20.449  0.00  0.00    +0.000 A 
ATOM     14  N   UNL     1       3.990   5.038  19.614  0.00  0.00    +0.000 N 
ATOM     15  C   UNL     1       5.269   5.513  19.170  0.00  0.00    +0.000 C 
ATOM     16  C   UNL     1       3.348   4.104  18.884  0.00  0.00    +0.000 A 
ATOM     17  C   UNL     1       4.015   2.810  18.685  0.00  0.00    +0.000 A 
ATOM     18  C   UNL     1       3.513   1.745  18.016  0.00  0.00    +0.000 A 
ATOM     19  C   UNL     1       2.318   2.075  17.482  0.00  0.00    +0.000 A 
ATOM     20  C   UNL     1       1.719   3.482  17.683  0.00  0.00    +0.000 A 
ATOM     21  C   UNL     1       2.050   4.776  18.488  0.00  0.00    +0.000 A 
ENDBRANCH   4  12
BRANCH   1  22
ATOM     22  C   UNL     1       0.765  10.937  18.604  0.00  0.00    +0.000 C 
BRANCH  22  23
ATOM     23  C   UNL     1       1.952  11.886  18.420  0.00  0.00    +0.000 C 
BRANCH  23  25
ATOM     24  C   UNL     1       2.609  13.825  19.567  0.00  0.00    +0.000 C 
ATOM     25  O   UNL     1       1.559  13.185  18.858  0.00  0.00    +0.000 OA
ENDBRANCH  23  25
ENDBRANCH  22  23
ENDBRANCH   1  22
BRANCH   9  26
ATOM     26  O   UNL     1      -1.214  13.120  22.529  0.00  0.00    +0.000 OA
BRANCH  26  27
ATOM     27  C   UNL     1      -2.544  13.387  22.834  0.00  0.00    +0.000 A 
ATOM     28  C   UNL     1      -3.566  12.820  22.049  0.00  0.00    +0.000 A 
ATOM     29  C   UNL     1      -4.925  13.008  22.382  0.00  0.00    +0.000 A 
ATOM     30  C   UNL     1      -5.289  13.812  23.465  0.00  0.00    +0.000 A 
ATOM     31  C   UNL     1      -4.282  14.489  24.152  0.00  0.00    +0.000 A 
ATOM     32  C   UNL     1      -2.923  14.300  23.819  0.00  0.00    +0.000 A 
BRANCH  30  33
ATOM     33  O   UNL     1      -6.629  13.858  23.750  0.00  0.00    +0.000 OA
ATOM     34  C   UNL     1      -7.242  15.146  23.748  0.00  0.00    +0.000 C 
ENDBRANCH  30  33
ENDBRANCH  26  27
ENDBRANCH   9  26
TORSDOF 7
ENDMDL
MODEL 7
REMARK VINA RESULT:      -7.9      1.154      1.714
REMARK  Name = 
REMARK  10 active torsions:
REMARK  status: ('A' for Active; 'I' for Inactive)
REMARK    1  A    between atoms: C_1  and  O_2
REMARK    2  A    between atoms: O_2  and  C_3
REMARK    3  A    between atoms: C_3  and  C_4
REMARK    4  A    between atoms: C_4  and  N_5
REMARK    5  A    between atoms: C_8  and  C_9
REMARK    6  A    between atoms: N_11  and  C_12
REMARK    7  A    between atoms: C_23  and  O_24
REMARK    8  A    between atoms: O_24  and  C_25
REMARK    9  A    between atoms: C_28  and  O_29
REMARK   10  A    between atoms: O_29  and  C_30
REMARK                            x       y       z     vdW  Elec       q    Type
REMARK                         _______ _______ _______ _____ _____    ______ ____
ROOT
ATOM      1  N   UNL     1       0.420  10.218  19.557  0.00  0.00    +0.000 N 
ATOM      2  C   UNL     1       1.178   9.190  19.029  0.00  0.00    +0.000 A 
ATOM      3  O   UNL     1       1.448   9.114  17.794  0.00  0.00    +0.000 OA
ATOM      4  C   UNL     1       1.634   8.020  19.827  0.00  0.00    +0.000 A 
ATOM      5  N   UNL     1       1.158   7.989  21.120  0.00  0.00    +0.000 NA
ATOM      6  C   UNL     1       0.319   9.216  21.692  0.00  0.00    +0.000 A 
ATOM      7  C   UNL     1      -0.268   9.463  22.976  0.00  0.00    +0.000 A 
ATOM      8  N   UNL     1      -0.950  10.631  23.439  0.00  0.00    +0.000 NA
ATOM      9  C   UNL     1      -1.102  11.628  22.567  0.00  0.00    +0.000 A 
ATOM     10  N   UNL     1      -0.683  11.481  21.296  0.00  0.00    +0.000 NA
ATOM     11  C   UNL     1       0.000  10.309  20.904  0.00  0.00    +0.000 A 
ENDROOT
BRANCH   4  12
ATOM     12  C   UNL     1       2.274   6.695  18.858  0.00  0.00    +0.000 A 
ATOM     13  C   UNL     1       3.521   6.455  19.411  0.00  0.00    +0.000 A 
ATOM     14  N   UNL     1       4.032   6.138  18.205  0.00  0.00    +0.000 N 
ATOM     15  C   UNL     1       4.622   6.890  17.134  0.00  0.00    +0.000 C 
ATOM     16  C   UNL     1       3.542   4.908  17.950  0.00  0.00    +0.000 A 
ATOM     17  C   UNL     1       4.471   3.891  17.442  0.00  0.00    +0.000 A 
ATOM     18  C   UNL     1       4.171   2.600  17.165  0.00  0.00    +0.000 A 
ATOM     19  C   UNL     1       2.850   2.396  17.354  0.00  0.00    +0.000 A 
ATOM     20  C   UNL     1       1.930   3.541  17.825  0.00  0.00    +0.000 A 
ATOM     21  C   UNL     1       2.074   5.018  18.306  0.00  0.00    +0.000 A 
ENDBRANCH   4  12
BRANCH   1  22
ATOM     22  C   UNL     1      -0.057  11.185  18.601  0.00  0.00    +0.000 C 
BRANCH  22  23
ATOM     23  C   UNL     1       0.520  12.581  18.850  0.00  0.00    +0.000 C 
BRANCH  23  25
ATOM     24  C   UNL     1       2.694  12.924  18.035  0.00  0.00    +0.000 C 
ATOM     25  O   UNL     1       1.914  12.448  19.121  0.00  0.00    +0.000 OA
ENDBRANCH  23  25
ENDBRANCH  22  23
ENDBRANCH   1  22
BRANCH   9  26
ATOM     26  O   UNL     1      -1.704  12.890  22.898  0.00  0.00    +0.000 OA
BRANCH  26  27
ATOM     27  C   UNL     1      -3.070  13.006  23.132  0.00  0.00    +0.000 A 
ATOM     28  C   UNL     1      -3.649  12.331  24.222  0.00  0.00    +0.000 A 
ATOM     29  C   UNL     1      -5.017  12.495  24.532  0.00  0.00    +0.000 A 
ATOM     30  C   UNL     1      -5.841  13.284  23.726  0.00  0.00    +0.000 A 
ATOM     31  C   UNL     1      -5.298  13.834  22.565  0.00  0.00    +0.000 A 
ATOM     32  C   UNL     1      -3.929  13.671  22.256  0.00  0.00    +0.000 A 
BRANCH  30  33
ATOM     33  O   UNL     1      -7.131  13.441  24.164  0.00  0.00    +0.000 OA
ATOM     34  C   UNL     1      -7.915  14.436  23.508  0.00  0.00    +0.000 C 
ENDBRANCH  30  33
ENDBRANCH  26  27
ENDBRANCH   9  26
TORSDOF 7
ENDMDL
MODEL 8
REMARK VINA RESULT:      -7.9      2.212      3.142
REMARK  Name = 
REMARK  10 active torsions:
REMARK  status: ('A' for Active; 'I' for Inactive)
REMARK    1  A    between atoms: C_1  and  O_2
REMARK    2  A    between atoms: O_2  and  C_3
REMARK    3  A    between atoms: C_3  and  C_4
REMARK    4  A    between atoms: C_4  and  N_5
REMARK    5  A    between atoms: C_8  and  C_9
REMARK    6  A    between atoms: N_11  and  C_12
REMARK    7  A    between atoms: C_23  and  O_24
REMARK    8  A    between atoms: O_24  and  C_25
REMARK    9  A    between atoms: C_28  and  O_29
REMARK   10  A    between atoms: O_29  and  C_30
REMARK                            x       y       z     vdW  Elec       q    Type
REMARK                         _______ _______ _______ _____ _____    ______ ____
ROOT
ATOM      1  N   UNL     1       0.726  10.117  19.545  0.00  0.00    +0.000 N 
ATOM      2  C   UNL     1       1.389   9.004  19.064  0.00  0.00    +0.000 A 
ATOM      3  O   UNL     1       1.644   8.847  17.834  0.00  0.00    +0.000 OA
ATOM      4  C   UNL     1       1.748   7.837  19.915  0.00  0.00    +0.000 A 
ATOM      5  N   UNL     1       1.279   7.908  21.209  0.00  0.00    +0.000 NA
ATOM      6  C   UNL     1       0.553   9.228  21.725  0.00  0.00    +0.000 A 
ATOM      7  C   UNL     1      -0.002   9.585  22.998  0.00  0.00    +0.000 A 
ATOM      8  N   UNL     1      -0.578  10.828  23.406  0.00  0.00    +0.000 NA
ATOM      9  C   UNL     1      -0.649  11.793  22.489  0.00  0.00    +0.000 A 
ATOM     10  N   UNL     1      -0.253  11.550  21.225  0.00  0.00    +0.000 NA
ATOM     11  C   UNL     1       0.324  10.306  20.887  0.00  0.00    +0.000 A 
ENDROOT
BRANCH   4  12
ATOM     12  C   UNL     1       2.265   6.418  19.008  0.00  0.00    +0.000 A 
ATOM     13  C   UNL     1       3.511   6.124  19.537  0.00  0.00    +0.000 A 
ATOM     14  N   UNL     1       3.958   5.705  18.338  0.00  0.00    +0.000 N 
ATOM     15  C   UNL     1       4.561   6.352  17.207  0.00  0.00    +0.000 C 
ATOM     16  C   UNL     1       3.379   4.499  18.170  0.00  0.00    +0.000 A 
ATOM     17  C   UNL     1       4.220   3.393  17.697  0.00  0.00    +0.000 A 
ATOM     18  C   UNL     1       3.826   2.111  17.506  0.00  0.00    +0.000 A 
ATOM     19  C   UNL     1       2.501   2.011  17.745  0.00  0.00    +0.000 A 
ATOM     20  C   UNL     1       1.676   3.241  18.175  0.00  0.00    +0.000 A 
ATOM     21  C   UNL     1       1.934   4.730  18.563  0.00  0.00    +0.000 A 
ENDBRANCH   4  12
BRANCH   1  22
ATOM     22  C   UNL     1       0.328  11.076  18.546  0.00  0.00    +0.000 C 
BRANCH  22  23
ATOM     23  C   UNL     1      -1.169  11.000  18.233  0.00  0.00    +0.000 C 
BRANCH  23  25
ATOM     24  C   UNL     1      -2.741   9.875  16.903  0.00  0.00    +0.000 C 
ATOM     25  O   UNL     1      -1.372   9.976  17.261  0.00  0.00    +0.000 OA
ENDBRANCH  23  25
ENDBRANCH  22  23
ENDBRANCH   1  22
BRANCH   9  26
ATOM     26  O   UNL     1      -1.137  13.115  22.762  0.00  0.00    +0.000 OA
BRANCH  26  27
ATOM     27  C   UNL     1      -0.815  14.193  21.946  0.00  0.00    +0.000 A 
ATOM     28  C   UNL     1      -1.717  14.604  20.947  0.00  0.00    +0.000 A 
ATOM     29  C   UNL     1      -1.453  15.745  20.157  0.00  0.00    +0.000 A 
ATOM     30  C   UNL     1      -0.261  16.457  20.308  0.00  0.00    +0.000 A 
ATOM     31  C   UNL     1       0.694  15.963  21.196  0.00  0.00    +0.000 A 
ATOM     32  C   UNL     1       0.430  14.823  21.987  0.00  0.00    +0.000 A 
BRANCH  30  33
ATOM     33  O   UNL     1      -0.144  17.593  19.550  0.00  0.00    +0.000 OA
ATOM     34  C   UNL     1      -0.709  17.554  18.241  0.00  0.00    +0.000 C 
ENDBRANCH  30  33
ENDBRANCH  26  27
ENDBRANCH   9  26
TORSDOF 7
ENDMDL
MODEL 9
REMARK VINA RESULT:      -7.9      2.616      3.638
REMARK  Name = 
REMARK  10 active torsions:
REMARK  status: ('A' for Active; 'I' for Inactive)
REMARK    1  A    between atoms: C_1  and  O_2
REMARK    2  A    between atoms: O_2  and  C_3
REMARK    3  A    between atoms: C_3  and  C_4
REMARK    4  A    between atoms: C_4  and  N_5
REMARK    5  A    between atoms: C_8  and  C_9
REMARK    6  A    between atoms: N_11  and  C_12
REMARK    7  A    between atoms: C_23  and  O_24
REMARK    8  A    between atoms: O_24  and  C_25
REMARK    9  A    between atoms: C_28  and  O_29
REMARK   10  A    between atoms: O_29  and  C_30
REMARK                            x       y       z     vdW  Elec       q    Type
REMARK                         _______ _______ _______ _____ _____    ______ ____
ROOT
ATOM      1  N   UNL     1       1.033  10.173  19.556  0.00  0.00    +0.000 N 
ATOM      2  C   UNL     1       1.636   9.008  19.122  0.00  0.00    +0.000 A 
ATOM      3  O   UNL     1       2.014   8.846  17.924  0.00  0.00    +0.000 OA
ATOM      4  C   UNL     1       1.782   7.798  19.976  0.00  0.00    +0.000 A 
ATOM      5  N   UNL     1       1.179   7.894  21.211  0.00  0.00    +0.000 NA
ATOM      6  C   UNL     1       0.528   9.270  21.678  0.00  0.00    +0.000 A 
ATOM      7  C   UNL     1      -0.132   9.659  22.890  0.00  0.00    +0.000 A 
ATOM      8  N   UNL     1      -0.628  10.946  23.265  0.00  0.00    +0.000 NA
ATOM      9  C   UNL     1      -0.502  11.928  22.372  0.00  0.00    +0.000 A 
ATOM     10  N   UNL     1       0.011  11.668  21.154  0.00  0.00    +0.000 NA
ATOM     11  C   UNL     1       0.501  10.379  20.849  0.00  0.00    +0.000 A 
ENDROOT
BRANCH   4  12
ATOM     12  C   UNL     1       2.261   6.350  19.094  0.00  0.00    +0.000 A 
ATOM     13  C   UNL     1       3.488   6.018  19.645  0.00  0.00    +0.000 A 
ATOM     14  N   UNL     1       3.937   5.568  18.457  0.00  0.00    +0.000 N 
ATOM     15  C   UNL     1       4.579   6.178  17.328  0.00  0.00    +0.000 C 
ATOM     16  C   UNL     1       3.317   4.382  18.296  0.00  0.00    +0.000 A 
ATOM     17  C   UNL     1       4.125   3.240  17.849  0.00  0.00    +0.000 A 
ATOM     18  C   UNL     1       3.687   1.971  17.668  0.00  0.00    +0.000 A 
ATOM     19  C   UNL     1       2.357   1.921  17.889  0.00  0.00    +0.000 A 
ATOM     20  C   UNL     1       1.571   3.185  18.292  0.00  0.00    +0.000 A 
ATOM     21  C   UNL     1       1.877   4.668  18.665  0.00  0.00    +0.000 A 
ENDBRANCH   4  12
BRANCH   1  22
ATOM     22  C   UNL     1       0.845  11.182  18.544  0.00  0.00    +0.000 C 
BRANCH  22  23
ATOM     23  C   UNL     1       2.065  12.096  18.402  0.00  0.00    +0.000 C 
BRANCH  23  25
ATOM     24  C   UNL     1       2.714  14.351  18.384  0.00  0.00    +0.000 C 
ATOM     25  O   UNL     1       1.626  13.449  18.515  0.00  0.00    +0.000 OA
ENDBRANCH  23  25
ENDBRANCH  22  23
ENDBRANCH   1  22
BRANCH   9  26
ATOM     26  O   UNL     1      -0.889  13.287  22.624  0.00  0.00    +0.000 OA
BRANCH  26  27
ATOM     27  C   UNL     1      -0.510  14.322  21.776  0.00  0.00    +0.000 A 
ATOM     28  C   UNL     1      -1.261  14.578  20.613  0.00  0.00    +0.000 A 
ATOM     29  C   UNL     1      -0.949  15.672  19.776  0.00  0.00    +0.000 A 
ATOM     30  C   UNL     1       0.151  16.489  20.050  0.00  0.00    +0.000 A 
ATOM     31  C   UNL     1       0.977  16.146  21.120  0.00  0.00    +0.000 A 
ATOM     32  C   UNL     1       0.664  15.053  21.958  0.00  0.00    +0.000 A 
BRANCH  30  33
ATOM     33  O   UNL     1       0.313  17.569  19.221  0.00  0.00    +0.000 OA
ATOM     34  C   UNL     1      -0.679  17.761  18.215  0.00  0.00    +0.000 C 
ENDBRANCH  30  33
ENDBRANCH  26  27
ENDBRANCH   9  26
TORSDOF 7
ENDMDL
