MODEL 1
REMARK VINA RESULT:      -6.4      0.000      0.000
REMARK  Name = 
REMARK  7 active torsions:
REMARK  status: ('A' for Active; 'I' for Inactive)
REMARK    1  A    between atoms: C_1  and  C_2
REMARK    2  A    between atoms: C_2  and  C_3
REMARK    3  A    between atoms: C_3  and  C_4
REMARK    4  A    between atoms: C_4  and  C_5
REMARK    5  A    between atoms: C_5  and  C_6
REMARK    6  A    between atoms: C_6  and  N_7
REMARK    7  A    between atoms: N_7  and  C_8
REMARK                            x       y       z     vdW  Elec       q    Type
REMARK                         _______ _______ _______ _____ _____    ______ ____
ROOT
ATOM      1  C   UNL     1       5.960   4.343  17.729  0.00  0.00    +0.000 A 
ATOM      2  N   UNL     1       6.463   4.404  19.002  0.00  0.00    +0.000 N 
ATOM      3  C   UNL     1       7.338   5.337  19.466  0.00  0.00    +0.000 A 
ATOM      4  O   UNL     1       7.759   5.311  20.616  0.00  0.00    +0.000 OA
ATOM      5  N   UNL     1       7.716   6.285  18.574  0.00  0.00    +0.000 N 
ATOM      6  C   UNL     1       7.287   6.353  17.279  0.00  0.00    +0.000 A 
ATOM      7  O   UNL     1       7.702   7.239  16.534  0.00  0.00    +0.000 OA
ATOM      8  C   UNL     1       6.315   5.301  16.841  0.00  0.00    +0.000 A 
ATOM      9 BR   UNL     1       5.641   5.465  15.101  0.00  0.00    +0.000 Br
ATOM     10  H   UNL     1       6.202   3.699  19.677  0.00  0.00    +0.000 HD
ATOM     11  H   UNL     1       8.373   6.983  18.884  0.00  0.00    +0.000 HD
ENDROOT
BRANCH   1  12
ATOM     12  N   UNL     1       5.090   3.291  17.489  0.00  0.00    +0.000 N 
ATOM     13  H   UNL     1       5.026   3.095  16.495  0.00  0.00    +0.000 HD
BRANCH  12  14
ATOM     14  C   UNL     1       3.789   3.157  18.149  0.00  0.00    +0.000 C 
BRANCH  14  15
ATOM     15  C   UNL     1       2.710   3.886  17.344  0.00  0.00    +0.000 C 
BRANCH  15  16
ATOM     16  C   UNL     1       2.149   5.084  18.114  0.00  0.00    +0.000 C 
BRANCH  16  17
ATOM     17  C   UNL     1       2.719   5.176  19.526  0.00  0.00    +0.000 C 
BRANCH  17  19
ATOM     18  C   UNL     1       1.140   3.614  20.710  0.00  0.00    +0.000 C 
ATOM     19  C   UNL     1       1.599   5.053  20.557  0.00  0.00    +0.000 C 
ENDBRANCH  17  19
ENDBRANCH  16  17
ENDBRANCH  15  16
ENDBRANCH  14  15
ENDBRANCH  12  14
ENDBRANCH   1  12
TORSDOF 6
ENDMDL
MODEL 2
REMARK VINA RESULT:      -6.3      1.788      2.016
REMARK  Name = 
REMARK  7 active torsions:
REMARK  status: ('A' for Active; 'I' for Inactive)
REMARK    1  A    between atoms: C_1  and  C_2
REMARK    2  A    between atoms: C_2  and  C_3
REMARK    3  A    between atoms: C_3  and  C_4
REMARK    4  A    between atoms: C_4  and  C_5
REMARK    5  A    between atoms: C_5  and  C_6
REMARK    6  A    between atoms: C_6  and  N_7
REMARK    7  A    between atoms: N_7  and  C_8
REMARK                            x       y       z     vdW  Elec       q    Type
REMARK                         _______ _______ _______ _____ _____    ______ ____
ROOT
ATOM      1  C   UNL     1       5.217   4.789  17.971  0.00  0.00    +0.000 A 
ATOM      2  N   UNL     1       6.405   4.107  18.023  0.00  0.00    +0.000 N 
ATOM      3  C   UNL     1       7.633   4.631  17.760  0.00  0.00    +0.000 A 
ATOM      4  O   UNL     1       8.649   3.949  17.809  0.00  0.00    +0.000 OA
ATOM      5  N   UNL     1       7.655   5.947  17.435  0.00  0.00    +0.000 N 
ATOM      6  C   UNL     1       6.553   6.749  17.355  0.00  0.00    +0.000 A 
ATOM      7  O   UNL     1       6.667   7.930  17.030  0.00  0.00    +0.000 OA
ATOM      8  C   UNL     1       5.236   6.109  17.670  0.00  0.00    +0.000 A 
ATOM      9 BR   UNL     1       3.742   7.238  17.672  0.00  0.00    +0.000 Br
ATOM     10  H   UNL     1       6.408   3.124  18.252  0.00  0.00    +0.000 HD
ATOM     11  H   UNL     1       8.549   6.361  17.223  0.00  0.00    +0.000 HD
ENDROOT
BRANCH   1  12
ATOM     12  N   UNL     1       4.093   4.036  18.270  0.00  0.00    +0.000 N 
ATOM     13  H   UNL     1       4.333   3.249  18.865  0.00  0.00    +0.000 HD
BRANCH  12  14
ATOM     14  C   UNL     1       3.083   3.670  17.275  0.00  0.00    +0.000 C 
BRANCH  14  15
ATOM     15  C   UNL     1       2.549   2.263  17.556  0.00  0.00    +0.000 C 
BRANCH  15  16
ATOM     16  C   UNL     1       2.200   2.080  19.035  0.00  0.00    +0.000 C 
BRANCH  16  17
ATOM     17  C   UNL     1       0.909   2.800  19.412  0.00  0.00    +0.000 C 
BRANCH  17  19
ATOM     18  C   UNL     1       1.826   2.911  21.753  0.00  0.00    +0.000 C 
ATOM     19  C   UNL     1       1.134   3.678  20.641  0.00  0.00    +0.000 C 
ENDBRANCH  17  19
ENDBRANCH  16  17
ENDBRANCH  15  16
ENDBRANCH  14  15
ENDBRANCH  12  14
ENDBRANCH   1  12
TORSDOF 6
ENDMDL
MODEL 3
REMARK VINA RESULT:      -6.3      0.762      1.033
REMARK  Name = 
REMARK  7 active torsions:
REMARK  status: ('A' for Active; 'I' for Inactive)
REMARK    1  A    between atoms: C_1  and  C_2
REMARK    2  A    between atoms: C_2  and  C_3
REMARK    3  A    between atoms: C_3  and  C_4
REMARK    4  A    between atoms: C_4  and  C_5
REMARK    5  A    between atoms: C_5  and  C_6
REMARK    6  A    between atoms: C_6  and  N_7
REMARK    7  A    between atoms: N_7  and  C_8
REMARK                            x       y       z     vdW  Elec       q    Type
REMARK                         _______ _______ _______ _____ _____    ______ ____
ROOT
ATOM      1  C   UNL     1       5.959   4.490  17.832  0.00  0.00    +0.000 A 
ATOM      2  N   UNL     1       6.498   4.508  19.092  0.00  0.00    +0.000 N 
ATOM      3  C   UNL     1       7.418   5.400  19.548  0.00  0.00    +0.000 A 
ATOM      4  O   UNL     1       7.869   5.338  20.686  0.00  0.00    +0.000 OA
ATOM      5  N   UNL     1       7.806   6.352  18.664  0.00  0.00    +0.000 N 
ATOM      6  C   UNL     1       7.345   6.460  17.383  0.00  0.00    +0.000 A 
ATOM      7  O   UNL     1       7.772   7.345  16.643  0.00  0.00    +0.000 OA
ATOM      8  C   UNL     1       6.325   5.452  16.953  0.00  0.00    +0.000 A 
ATOM      9 BR   UNL     1       5.611   5.673  15.235  0.00  0.00    +0.000 Br
ATOM     10  H   UNL     1       6.231   3.800  19.761  0.00  0.00    +0.000 HD
ATOM     11  H   UNL     1       8.495   7.021  18.969  0.00  0.00    +0.000 HD
ENDROOT
BRANCH   1  12
ATOM     12  N   UNL     1       5.046   3.474  17.597  0.00  0.00    +0.000 N 
ATOM     13  H   UNL     1       4.663   3.543  16.659  0.00  0.00    +0.000 HD
BRANCH  12  14
ATOM     14  C   UNL     1       4.026   3.070  18.567  0.00  0.00    +0.000 C 
BRANCH  14  15
ATOM     15  C   UNL     1       2.806   3.989  18.466  0.00  0.00    +0.000 C 
BRANCH  15  16
ATOM     16  C   UNL     1       1.498   3.197  18.540  0.00  0.00    +0.000 C 
BRANCH  16  17
ATOM     17  C   UNL     1       0.678   3.559  19.773  0.00  0.00    +0.000 C 
BRANCH  17  19
ATOM     18  C   UNL     1       1.836   2.623  21.802  0.00  0.00    +0.000 C 
ATOM     19  C   UNL     1       1.601   3.858  20.953  0.00  0.00    +0.000 C 
ENDBRANCH  17  19
ENDBRANCH  16  17
ENDBRANCH  15  16
ENDBRANCH  14  15
ENDBRANCH  12  14
ENDBRANCH   1  12
TORSDOF 6
ENDMDL
MODEL 4
REMARK VINA RESULT:      -6.2      0.942      1.236
REMARK  Name = 
REMARK  7 active torsions:
REMARK  status: ('A' for Active; 'I' for Inactive)
REMARK    1  A    between atoms: C_1  and  C_2
REMARK    2  A    between atoms: C_2  and  C_3
REMARK    3  A    between atoms: C_3  and  C_4
REMARK    4  A    between atoms: C_4  and  C_5
REMARK    5  A    between atoms: C_5  and  C_6
REMARK    6  A    between atoms: C_6  and  N_7
REMARK    7  A    between atoms: N_7  and  C_8
REMARK                            x       y       z     vdW  Elec       q    Type
REMARK                         _______ _______ _______ _____ _____    ______ ____
ROOT
ATOM      1  C   UNL     1       5.482   3.970  17.563  0.00  0.00    +0.000 A 
ATOM      2  N   UNL     1       5.956   4.306  18.805  0.00  0.00    +0.000 N 
ATOM      3  C   UNL     1       6.957   5.191  19.058  0.00  0.00    +0.000 A 
ATOM      4  O   UNL     1       7.339   5.423  20.199  0.00  0.00    +0.000 OA
ATOM      5  N   UNL     1       7.506   5.788  17.972  0.00  0.00    +0.000 N 
ATOM      6  C   UNL     1       7.127   5.557  16.680  0.00  0.00    +0.000 A 
ATOM      7  O   UNL     1       7.698   6.130  15.755  0.00  0.00    +0.000 OA
ATOM      8  C   UNL     1       6.010   4.581  16.476  0.00  0.00    +0.000 A 
ATOM      9 BR   UNL     1       5.416   4.354  14.715  0.00  0.00    +0.000 Br
ATOM     10  H   UNL     1       5.568   3.863  19.625  0.00  0.00    +0.000 HD
ATOM     11  H   UNL     1       8.259   6.440  18.127  0.00  0.00    +0.000 HD
ENDROOT
BRANCH   1  12
ATOM     12  N   UNL     1       4.461   3.033  17.557  0.00  0.00    +0.000 N 
ATOM     13  H   UNL     1       4.730   2.209  17.028  0.00  0.00    +0.000 HD
BRANCH  12  14
ATOM     14  C   UNL     1       3.055   3.378  17.337  0.00  0.00    +0.000 C 
BRANCH  14  15
ATOM     15  C   UNL     1       2.752   4.760  17.922  0.00  0.00    +0.000 C 
BRANCH  15  16
ATOM     16  C   UNL     1       1.851   4.662  19.156  0.00  0.00    +0.000 C 
BRANCH  16  17
ATOM     17  C   UNL     1       1.175   3.299  19.265  0.00  0.00    +0.000 C 
BRANCH  17  19
ATOM     18  C   UNL     1       2.332   3.368  21.499  0.00  0.00    +0.000 C 
ATOM     19  C   UNL     1       1.139   2.842  20.722  0.00  0.00    +0.000 C 
ENDBRANCH  17  19
ENDBRANCH  16  17
ENDBRANCH  15  16
ENDBRANCH  14  15
ENDBRANCH  12  14
ENDBRANCH   1  12
TORSDOF 6
ENDMDL
MODEL 5
REMARK VINA RESULT:      -6.2      2.132      3.113
REMARK  Name = 
REMARK  7 active torsions:
REMARK  status: ('A' for Active; 'I' for Inactive)
REMARK    1  A    between atoms: C_1  and  C_2
REMARK    2  A    between atoms: C_2  and  C_3
REMARK    3  A    between atoms: C_3  and  C_4
REMARK    4  A    between atoms: C_4  and  C_5
REMARK    5  A    between atoms: C_5  and  C_6
REMARK    6  A    between atoms: C_6  and  N_7
REMARK    7  A    between atoms: N_7  and  C_8
REMARK                            x       y       z     vdW  Elec       q    Type
REMARK                         _______ _______ _______ _____ _____    ______ ____
ROOT
ATOM      1  C   UNL     1       5.379   3.963  16.666  0.00  0.00    +0.000 A 
ATOM      2  N   UNL     1       5.642   3.713  15.344  0.00  0.00    +0.000 N 
ATOM      3  C   UNL     1       6.517   4.405  14.566  0.00  0.00    +0.000 A 
ATOM      4  O   UNL     1       6.681   4.133  13.382  0.00  0.00    +0.000 OA
ATOM      5  N   UNL     1       7.183   5.414  15.180  0.00  0.00    +0.000 N 
ATOM      6  C   UNL     1       7.028   5.767  16.490  0.00  0.00    +0.000 A 
ATOM      7  O   UNL     1       7.661   6.712  16.956  0.00  0.00    +0.000 OA
ATOM      8  C   UNL     1       6.059   4.953  17.291  0.00  0.00    +0.000 A 
ATOM      9 BR   UNL     1       5.936   5.365  19.113  0.00  0.00    +0.000 Br
ATOM     10  H   UNL     1       5.147   2.974  14.867  0.00  0.00    +0.000 HD
ATOM     11  H   UNL     1       7.829   5.953  14.625  0.00  0.00    +0.000 HD
ENDROOT
BRANCH   1  12
ATOM     12  N   UNL     1       4.438   3.128  17.247  0.00  0.00    +0.000 N 
ATOM     13  H   UNL     1       4.606   2.160  16.989  0.00  0.00    +0.000 HD
BRANCH  12  14
ATOM     14  C   UNL     1       3.006   3.434  17.285  0.00  0.00    +0.000 C 
BRANCH  14  15
ATOM     15  C   UNL     1       2.268   2.408  18.148  0.00  0.00    +0.000 C 
BRANCH  15  16
ATOM     16  C   UNL     1       2.778   2.418  19.592  0.00  0.00    +0.000 C 
BRANCH  16  17
ATOM     17  C   UNL     1       1.652   2.643  20.596  0.00  0.00    +0.000 C 
BRANCH  17  19
ATOM     18  C   UNL     1       1.820   5.153  20.638  0.00  0.00    +0.000 C 
ATOM     19  C   UNL     1       0.941   3.962  20.304  0.00  0.00    +0.000 C 
ENDBRANCH  17  19
ENDBRANCH  16  17
ENDBRANCH  15  16
ENDBRANCH  14  15
ENDBRANCH  12  14
ENDBRANCH   1  12
TORSDOF 6
ENDMDL
MODEL 6
REMARK VINA RESULT:      -6.2      2.505      2.852
REMARK  Name = 
REMARK  7 active torsions:
REMARK  status: ('A' for Active; 'I' for Inactive)
REMARK    1  A    between atoms: C_1  and  C_2
REMARK    2  A    between atoms: C_2  and  C_3
REMARK    3  A    between atoms: C_3  and  C_4
REMARK    4  A    between atoms: C_4  and  C_5
REMARK    5  A    between atoms: C_5  and  C_6
REMARK    6  A    between atoms: C_6  and  N_7
REMARK    7  A    between atoms: N_7  and  C_8
REMARK                            x       y       z     vdW  Elec       q    Type
REMARK                         _______ _______ _______ _____ _____    ______ ____
ROOT
ATOM      1  C   UNL     1       5.451   4.319  18.261  0.00  0.00    +0.000 A 
ATOM      2  N   UNL     1       6.444   4.171  17.328  0.00  0.00    +0.000 N 
ATOM      3  C   UNL     1       6.696   5.021  16.297  0.00  0.00    +0.000 A 
ATOM      4  O   UNL     1       7.593   4.807  15.489  0.00  0.00    +0.000 OA
ATOM      5  N   UNL     1       5.890   6.108  16.217  0.00  0.00    +0.000 N 
ATOM      6  C   UNL     1       4.870   6.387  17.082  0.00  0.00    +0.000 A 
ATOM      7  O   UNL     1       4.176   7.389  16.919  0.00  0.00    +0.000 OA
ATOM      8  C   UNL     1       4.658   5.415  18.201  0.00  0.00    +0.000 A 
ATOM      9 BR   UNL     1       3.336   5.861  19.449  0.00  0.00    +0.000 Br
ATOM     10  H   UNL     1       7.046   3.361  17.363  0.00  0.00    +0.000 HD
ATOM     11  H   UNL     1       6.045   6.751  15.457  0.00  0.00    +0.000 HD
ENDROOT
BRANCH   1  12
ATOM     12  N   UNL     1       5.382   3.314  19.212  0.00  0.00    +0.000 N 
ATOM     13  H   UNL     1       6.277   2.841  19.303  0.00  0.00    +0.000 HD
BRANCH  12  14
ATOM     14  C   UNL     1       4.264   2.374  19.310  0.00  0.00    +0.000 C 
BRANCH  14  15
ATOM     15  C   UNL     1       3.656   2.129  17.926  0.00  0.00    +0.000 C 
BRANCH  15  16
ATOM     16  C   UNL     1       2.223   2.661  17.841  0.00  0.00    +0.000 C 
BRANCH  16  17
ATOM     17  C   UNL     1       1.318   2.044  18.902  0.00  0.00    +0.000 C 
BRANCH  17  19
ATOM     18  C   UNL     1       1.292   3.080  21.196  0.00  0.00    +0.000 C 
ATOM     19  C   UNL     1       0.724   3.136  19.790  0.00  0.00    +0.000 C 
ENDBRANCH  17  19
ENDBRANCH  16  17
ENDBRANCH  15  16
ENDBRANCH  14  15
ENDBRANCH  12  14
ENDBRANCH   1  12
TORSDOF 6
ENDMDL
MODEL 7
REMARK VINA RESULT:      -6.2      3.522      5.731
REMARK  Name = 
REMARK  7 active torsions:
REMARK  status: ('A' for Active; 'I' for Inactive)
REMARK    1  A    between atoms: C_1  and  C_2
REMARK    2  A    between atoms: C_2  and  C_3
REMARK    3  A    between atoms: C_3  and  C_4
REMARK    4  A    between atoms: C_4  and  C_5
REMARK    5  A    between atoms: C_5  and  C_6
REMARK    6  A    between atoms: C_6  and  N_7
REMARK    7  A    between atoms: N_7  and  C_8
REMARK                            x       y       z     vdW  Elec       q    Type
REMARK                         _______ _______ _______ _____ _____    ______ ____
ROOT
ATOM      1  C   UNL     1       4.093   3.069  18.501  0.00  0.00    +0.000 A 
ATOM      2  N   UNL     1       4.895   2.378  19.371  0.00  0.00    +0.000 N 
ATOM      3  C   UNL     1       4.572   2.039  20.648  0.00  0.00    +0.000 A 
ATOM      4  O   UNL     1       5.355   1.436  21.374  0.00  0.00    +0.000 OA
ATOM      5  N   UNL     1       3.338   2.416  21.065  0.00  0.00    +0.000 N 
ATOM      6  C   UNL     1       2.433   3.099  20.303  0.00  0.00    +0.000 A 
ATOM      7  O   UNL     1       1.344   3.420  20.774  0.00  0.00    +0.000 OA
ATOM      8  C   UNL     1       2.851   3.427  18.903  0.00  0.00    +0.000 A 
ATOM      9 BR   UNL     1       1.565   4.260  17.826  0.00  0.00    +0.000 Br
ATOM     10  H   UNL     1       5.822   2.098  19.083  0.00  0.00    +0.000 HD
ATOM     11  H   UNL     1       3.075   2.190  22.011  0.00  0.00    +0.000 HD
ENDROOT
BRANCH   1  12
ATOM     12  N   UNL     1       4.646   3.306  17.253  0.00  0.00    +0.000 N 
ATOM     13  H   UNL     1       5.388   2.641  17.054  0.00  0.00    +0.000 HD
BRANCH  12  14
ATOM     14  C   UNL     1       4.980   4.646  16.763  0.00  0.00    +0.000 C 
BRANCH  14  15
ATOM     15  C   UNL     1       6.413   4.671  16.226  0.00  0.00    +0.000 C 
BRANCH  15  16
ATOM     16  C   UNL     1       6.555   3.817  14.963  0.00  0.00    +0.000 C 
BRANCH  16  17
ATOM     17  C   UNL     1       5.543   4.208  13.891  0.00  0.00    +0.000 C 
BRANCH  17  19
ATOM     18  C   UNL     1       4.629   3.235  11.757  0.00  0.00    +0.000 C 
ATOM     19  C   UNL     1       5.879   3.516  12.571  0.00  0.00    +0.000 C 
ENDBRANCH  17  19
ENDBRANCH  16  17
ENDBRANCH  15  16
ENDBRANCH  14  15
ENDBRANCH  12  14
ENDBRANCH   1  12
TORSDOF 6
ENDMDL
MODEL 8
REMARK VINA RESULT:      -6.2      1.959      2.179
REMARK  Name = 
REMARK  7 active torsions:
REMARK  status: ('A' for Active; 'I' for Inactive)
REMARK    1  A    between atoms: C_1  and  C_2
REMARK    2  A    between atoms: C_2  and  C_3
REMARK    3  A    between atoms: C_3  and  C_4
REMARK    4  A    between atoms: C_4  and  C_5
REMARK    5  A    between atoms: C_5  and  C_6
REMARK    6  A    between atoms: C_6  and  N_7
REMARK    7  A    between atoms: N_7  and  C_8
REMARK                            x       y       z     vdW  Elec       q    Type
REMARK                         _______ _______ _______ _____ _____    ______ ____
ROOT
ATOM      1  C   UNL     1       5.300   4.505  18.501  0.00  0.00    +0.000 A 
ATOM      2  N   UNL     1       6.593   4.058  18.423  0.00  0.00    +0.000 N 
ATOM      3  C   UNL     1       7.550   4.541  17.584  0.00  0.00    +0.000 A 
ATOM      4  O   UNL     1       8.682   4.072  17.560  0.00  0.00    +0.000 OA
ATOM      5  N   UNL     1       7.167   5.561  16.778  0.00  0.00    +0.000 N 
ATOM      6  C   UNL     1       5.917   6.111  16.756  0.00  0.00    +0.000 A 
ATOM      7  O   UNL     1       5.655   7.022  15.974  0.00  0.00    +0.000 OA
ATOM      8  C   UNL     1       4.919   5.540  17.715  0.00  0.00    +0.000 A 
ATOM      9 BR   UNL     1       3.243   6.373  17.764  0.00  0.00    +0.000 Br
ATOM     10  H   UNL     1       6.894   3.291  19.007  0.00  0.00    +0.000 HD
ATOM     11  H   UNL     1       7.851   5.932  16.137  0.00  0.00    +0.000 HD
ENDROOT
BRANCH   1  12
ATOM     12  N   UNL     1       4.505   3.848  19.427  0.00  0.00    +0.000 N 
ATOM     13  H   UNL     1       4.866   3.975  20.367  0.00  0.00    +0.000 HD
BRANCH  12  14
ATOM     14  C   UNL     1       3.991   2.491  19.226  0.00  0.00    +0.000 C 
BRANCH  14  15
ATOM     15  C   UNL     1       2.828   2.508  18.231  0.00  0.00    +0.000 C 
BRANCH  15  16
ATOM     16  C   UNL     1       1.508   2.123  18.904  0.00  0.00    +0.000 C 
BRANCH  16  17
ATOM     17  C   UNL     1       1.388   2.709  20.307  0.00  0.00    +0.000 C 
BRANCH  17  19
ATOM     18  C   UNL     1       1.728   5.122  20.935  0.00  0.00    +0.000 C 
ATOM     19  C   UNL     1       0.819   4.124  20.242  0.00  0.00    +0.000 C 
ENDBRANCH  17  19
ENDBRANCH  16  17
ENDBRANCH  15  16
ENDBRANCH  14  15
ENDBRANCH  12  14
ENDBRANCH   1  12
TORSDOF 6
ENDMDL
MODEL 9
REMARK VINA RESULT:      -6.2      2.478      2.723
REMARK  Name = 
REMARK  7 active torsions:
REMARK  status: ('A' for Active; 'I' for Inactive)
REMARK    1  A    between atoms: C_1  and  C_2
REMARK    2  A    between atoms: C_2  and  C_3
REMARK    3  A    between atoms: C_3  and  C_4
REMARK    4  A    between atoms: C_4  and  C_5
REMARK    5  A    between atoms: C_5  and  C_6
REMARK    6  A    between atoms: C_6  and  N_7
REMARK    7  A    between atoms: N_7  and  C_8
REMARK                            x       y       z     vdW  Elec       q    Type
REMARK                         _______ _______ _______ _____ _____    ______ ____
ROOT
ATOM      1  C   UNL     1       4.876   4.163  17.747  0.00  0.00    +0.000 A 
ATOM      2  N   UNL     1       6.108   3.932  17.191  0.00  0.00    +0.000 N 
ATOM      3  C   UNL     1       6.781   4.785  16.373  0.00  0.00    +0.000 A 
ATOM      4  O   UNL     1       7.873   4.496  15.898  0.00  0.00    +0.000 OA
ATOM      5  N   UNL     1       6.165   5.964  16.114  0.00  0.00    +0.000 N 
ATOM      6  C   UNL     1       4.945   6.331  16.606  0.00  0.00    +0.000 A 
ATOM      7  O   UNL     1       4.453   7.415  16.298  0.00  0.00    +0.000 OA
ATOM      8  C   UNL     1       4.267   5.349  17.510  0.00  0.00    +0.000 A 
ATOM      9 BR   UNL     1       2.649   5.903  18.275  0.00  0.00    +0.000 Br
ATOM     10  H   UNL     1       6.577   3.055  17.363  0.00  0.00    +0.000 HD
ATOM     11  H   UNL     1       6.634   6.612  15.501  0.00  0.00    +0.000 HD
ENDROOT
BRANCH   1  12
ATOM     12  N   UNL     1       4.386   3.138  18.539  0.00  0.00    +0.000 N 
ATOM     13  H   UNL     1       5.057   2.886  19.259  0.00  0.00    +0.000 HD
BRANCH  12  14
ATOM     14  C   UNL     1       3.707   1.958  17.999  0.00  0.00    +0.000 C 
BRANCH  14  15
ATOM     15  C   UNL     1       2.198   2.204  17.922  0.00  0.00    +0.000 C 
BRANCH  15  16
ATOM     16  C   UNL     1       1.517   1.944  19.268  0.00  0.00    +0.000 C 
BRANCH  16  17
ATOM     17  C   UNL     1       0.764   3.169  19.776  0.00  0.00    +0.000 C 
BRANCH  17  19
ATOM     18  C   UNL     1       2.433   2.694  21.600  0.00  0.00    +0.000 C 
ATOM     19  C   UNL     1       1.363   3.647  21.097  0.00  0.00    +0.000 C 
ENDBRANCH  17  19
ENDBRANCH  16  17
ENDBRANCH  15  16
ENDBRANCH  14  15
ENDBRANCH  12  14
ENDBRANCH   1  12
TORSDOF 6
ENDMDL
