MODEL 1
REMARK VINA RESULT:      -8.2      0.000      0.000
REMARK  Name = 
REMARK  6 active torsions:
REMARK  status: ('A' for Active; 'I' for Inactive)
REMARK    1  A    between atoms: C_1  and  C_2
REMARK    2  A    between atoms: C_2  and  C_3
REMARK    3  A    between atoms: C_9  and  N_10
REMARK    4  A    between atoms: C_11  and  C_13
REMARK    5  A    between atoms: C_14  and  C_15
REMARK    6  A    between atoms: N_20  and  C_21
REMARK                            x       y       z     vdW  Elec       q    Type
REMARK                         _______ _______ _______ _____ _____    ______ ____
ROOT
ATOM      1  C   UNL     1      -1.046  11.988  21.202  0.00  0.00    +0.000 A 
ATOM      2  C   UNL     1      -0.835  11.420  22.402  0.00  0.00    +0.000 A 
ATOM      3  C   UNL     1      -0.027  10.187  22.499  0.00  0.00    +0.000 A 
ATOM      4  O   UNL     1       0.168   9.663  23.590  0.00  0.00    +0.000 OA
ATOM      5  C   UNL     1       0.520   9.632  21.242  0.00  0.00    +0.000 A 
ATOM      6  C   UNL     1       1.295   8.471  21.285  0.00  0.00    +0.000 A 
ATOM      7  C   UNL     1       1.829   7.942  20.114  0.00  0.00    +0.000 A 
ATOM      8  C   UNL     1       1.601   8.611  18.904  0.00  0.00    +0.000 A 
ATOM      9  C   UNL     1       0.807   9.772  18.862  0.00  0.00    +0.000 A 
ATOM     10  C   UNL     1       0.250  10.289  20.034  0.00  0.00    +0.000 A 
ATOM     11  N   UNL     1      -0.520  11.460  20.035  0.00  0.00    +0.000 N 
ATOM     12  H   UNL     1      -0.774  11.887  19.154  0.00  0.00    +0.000 HD
ENDROOT
BRANCH   7  13
ATOM     13  N   UNL     1       2.609   6.767  20.104  0.00  0.00    +0.000 N 
ATOM     14  C   UNL     1       2.674   5.848  19.066  0.00  0.00    +0.000 C 
ATOM     15  O   UNL     1       2.146   5.994  17.970  0.00  0.00    +0.000 OA
ATOM     16  H   UNL     1       3.274   6.642  20.857  0.00  0.00    +0.000 HD
BRANCH  14  17
ATOM     17  C   UNL     1       3.530   4.718  19.329  0.00  0.00    +0.000 A 
ATOM     18  C   UNL     1       3.307   3.489  19.924  0.00  0.00    +0.000 A 
ATOM     19  C   UNL     1       4.551   2.835  19.918  0.00  0.00    +0.000 A 
ATOM     20  N   UNL     1       5.502   3.566  19.336  0.00  0.00    +0.000 NA
ATOM     21  N   UNL     1       4.851   4.679  18.940  0.00  0.00    +0.000 N 
ATOM     22  C   UNL     1       5.585   5.714  18.243  0.00  0.00    +0.000 C 
BRANCH  18  23
ATOM     23  C   UNL     1       1.989   2.953  20.443  0.00  0.00    +0.000 C 
ATOM     24  C   UNL     1       0.709   3.720  20.183  0.00  0.00    +0.000 C 
ATOM     25  C   UNL     1       0.977   2.463  19.427  0.00  0.00    +0.000 C 
ENDBRANCH  18  23
ENDBRANCH  14  17
ENDBRANCH   7  13
BRANCH   1  27
ATOM     26  C   UNL     1      -1.301  14.305  20.219  0.00  0.00    +0.000 C 
ATOM     27  C   UNL     1      -1.904  13.229  21.109  0.00  0.00    +0.000 C 
ENDBRANCH   1  27
TORSDOF 4
ENDMDL
MODEL 2
REMARK VINA RESULT:      -8.1      1.093      2.719
REMARK  Name = 
REMARK  6 active torsions:
REMARK  status: ('A' for Active; 'I' for Inactive)
REMARK    1  A    between atoms: C_1  and  C_2
REMARK    2  A    between atoms: C_2  and  C_3
REMARK    3  A    between atoms: C_9  and  N_10
REMARK    4  A    between atoms: C_11  and  C_13
REMARK    5  A    between atoms: C_14  and  C_15
REMARK    6  A    between atoms: N_20  and  C_21
REMARK                            x       y       z     vdW  Elec       q    Type
REMARK                         _______ _______ _______ _____ _____    ______ ____
ROOT
ATOM      1  C   UNL     1      -1.578  11.747  21.665  0.00  0.00    +0.000 A 
ATOM      2  C   UNL     1      -1.143  11.155  22.791  0.00  0.00    +0.000 A 
ATOM      3  C   UNL     1      -0.147  10.067  22.710  0.00  0.00    +0.000 A 
ATOM      4  O   UNL     1       0.253   9.521  23.732  0.00  0.00    +0.000 OA
ATOM      5  C   UNL     1       0.329   9.679  21.364  0.00  0.00    +0.000 A 
ATOM      6  C   UNL     1       1.274   8.660  21.238  0.00  0.00    +0.000 A 
ATOM      7  C   UNL     1       1.743   8.291  19.981  0.00  0.00    +0.000 A 
ATOM      8  C   UNL     1       1.274   8.980  18.855  0.00  0.00    +0.000 A 
ATOM      9  C   UNL     1       0.310   9.998  18.984  0.00  0.00    +0.000 A 
ATOM     10  C   UNL     1      -0.180  10.351  20.244  0.00  0.00    +0.000 A 
ATOM     11  N   UNL     1      -1.117  11.379  20.413  0.00  0.00    +0.000 N 
ATOM     12  H   UNL     1      -1.536  11.807  19.598  0.00  0.00    +0.000 HD
ENDROOT
BRANCH   7  13
ATOM     13  N   UNL     1       2.690   7.261  19.801  0.00  0.00    +0.000 N 
ATOM     14  C   UNL     1       2.561   6.187  18.931  0.00  0.00    +0.000 C 
ATOM     15  O   UNL     1       1.654   6.051  18.119  0.00  0.00    +0.000 OA
ATOM     16  H   UNL     1       3.593   7.375  20.243  0.00  0.00    +0.000 HD
BRANCH  14  17
ATOM     17  C   UNL     1       3.667   5.262  18.966  0.00  0.00    +0.000 A 
ATOM     18  C   UNL     1       4.903   5.252  18.344  0.00  0.00    +0.000 A 
ATOM     19  C   UNL     1       5.521   4.058  18.752  0.00  0.00    +0.000 A 
ATOM     20  N   UNL     1       4.764   3.362  19.599  0.00  0.00    +0.000 NA
ATOM     21  N   UNL     1       3.669   4.133  19.756  0.00  0.00    +0.000 N 
ATOM     22  C   UNL     1       2.612   3.688  20.640  0.00  0.00    +0.000 C 
BRANCH  18  23
ATOM     23  C   UNL     1       5.477   6.322  17.438  0.00  0.00    +0.000 C 
ATOM     24  C   UNL     1       6.676   6.009  16.568  0.00  0.00    +0.000 C 
ATOM     25  C   UNL     1       5.329   6.132  15.942  0.00  0.00    +0.000 C 
ENDBRANCH  18  23
ENDBRANCH  14  17
ENDBRANCH   7  13
BRANCH   1  27
ATOM     26  C   UNL     1      -3.624  12.607  22.880  0.00  0.00    +0.000 C 
ATOM     27  C   UNL     1      -2.624  12.835  21.757  0.00  0.00    +0.000 C 
ENDBRANCH   1  27
TORSDOF 4
ENDMDL
MODEL 3
REMARK VINA RESULT:      -8.0      1.279      2.505
REMARK  Name = 
REMARK  6 active torsions:
REMARK  status: ('A' for Active; 'I' for Inactive)
REMARK    1  A    between atoms: C_1  and  C_2
REMARK    2  A    between atoms: C_2  and  C_3
REMARK    3  A    between atoms: C_9  and  N_10
REMARK    4  A    between atoms: C_11  and  C_13
REMARK    5  A    between atoms: C_14  and  C_15
REMARK    6  A    between atoms: N_20  and  C_21
REMARK                            x       y       z     vdW  Elec       q    Type
REMARK                         _______ _______ _______ _____ _____    ______ ____
ROOT
ATOM      1  C   UNL     1      -0.495  12.039  19.915  0.00  0.00    +0.000 A 
ATOM      2  C   UNL     1      -0.618  11.499  21.140  0.00  0.00    +0.000 A 
ATOM      3  C   UNL     1       0.013  10.196  21.434  0.00  0.00    +0.000 A 
ATOM      4  O   UNL     1      -0.096   9.696  22.548  0.00  0.00    +0.000 OA
ATOM      5  C   UNL     1       0.764   9.541  20.340  0.00  0.00    +0.000 A 
ATOM      6  C   UNL     1       1.381   8.311  20.572  0.00  0.00    +0.000 A 
ATOM      7  C   UNL     1       2.103   7.687  19.559  0.00  0.00    +0.000 A 
ATOM      8  C   UNL     1       2.221   8.328  18.320  0.00  0.00    +0.000 A 
ATOM      9  C   UNL     1       1.585   9.561  18.084  0.00  0.00    +0.000 A 
ATOM     10  C   UNL     1       0.839  10.176  19.093  0.00  0.00    +0.000 A 
ATOM     11  N   UNL     1       0.218  11.417  18.904  0.00  0.00    +0.000 N 
ATOM     12  H   UNL     1       0.212  11.834  17.982  0.00  0.00    +0.000 HD
ENDROOT
BRANCH   7  13
ATOM     13  N   UNL     1       2.736   6.439  19.742  0.00  0.00    +0.000 N 
ATOM     14  C   UNL     1       2.446   5.275  19.044  0.00  0.00    +0.000 C 
ATOM     15  O   UNL     1       1.675   5.204  18.094  0.00  0.00    +0.000 OA
ATOM     16  H   UNL     1       3.554   6.414  20.337  0.00  0.00    +0.000 HD
BRANCH  14  17
ATOM     17  C   UNL     1       3.226   4.133  19.450  0.00  0.00    +0.000 A 
ATOM     18  C   UNL     1       4.416   3.597  18.992  0.00  0.00    +0.000 A 
ATOM     19  C   UNL     1       4.643   2.454  19.776  0.00  0.00    +0.000 A 
ATOM     20  N   UNL     1       3.695   2.276  20.695  0.00  0.00    +0.000 NA
ATOM     21  N   UNL     1       2.875   3.332  20.515  0.00  0.00    +0.000 N 
ATOM     22  C   UNL     1       1.715   3.478  21.369  0.00  0.00    +0.000 C 
BRANCH  18  23
ATOM     23  C   UNL     1       5.302   4.149  17.893  0.00  0.00    +0.000 C 
ATOM     24  C   UNL     1       5.441   5.648  17.719  0.00  0.00    +0.000 C 
ATOM     25  C   UNL     1       6.569   4.870  18.304  0.00  0.00    +0.000 C 
ENDBRANCH  18  23
ENDBRANCH  14  17
ENDBRANCH   7  13
BRANCH   1  27
ATOM     26  C   UNL     1      -0.259  14.353  18.920  0.00  0.00    +0.000 C 
ATOM     27  C   UNL     1      -1.174  13.355  19.614  0.00  0.00    +0.000 C 
ENDBRANCH   1  27
TORSDOF 4
ENDMDL
MODEL 4
REMARK VINA RESULT:      -7.9      0.924      1.035
REMARK  Name = 
REMARK  6 active torsions:
REMARK  status: ('A' for Active; 'I' for Inactive)
REMARK    1  A    between atoms: C_1  and  C_2
REMARK    2  A    between atoms: C_2  and  C_3
REMARK    3  A    between atoms: C_9  and  N_10
REMARK    4  A    between atoms: C_11  and  C_13
REMARK    5  A    between atoms: C_14  and  C_15
REMARK    6  A    between atoms: N_20  and  C_21
REMARK                            x       y       z     vdW  Elec       q    Type
REMARK                         _______ _______ _______ _____ _____    ______ ____
ROOT
ATOM      1  C   UNL     1      -1.598  12.048  21.928  0.00  0.00    +0.000 A 
ATOM      2  C   UNL     1      -1.303  11.362  23.046  0.00  0.00    +0.000 A 
ATOM      3  C   UNL     1      -0.406  10.190  22.973  0.00  0.00    +0.000 A 
ATOM      4  O   UNL     1      -0.133   9.559  23.988  0.00  0.00    +0.000 OA
ATOM      5  C   UNL     1       0.131   9.826  21.643  0.00  0.00    +0.000 A 
ATOM      6  C   UNL     1       0.986   8.730  21.525  0.00  0.00    +0.000 A 
ATOM      7  C   UNL     1       1.511   8.381  20.285  0.00  0.00    +0.000 A 
ATOM      8  C   UNL     1       1.190   9.166  19.170  0.00  0.00    +0.000 A 
ATOM      9  C   UNL     1       0.316  10.262  19.289  0.00  0.00    +0.000 A 
ATOM     10  C   UNL     1      -0.232  10.597  20.530  0.00  0.00    +0.000 A 
ATOM     11  N   UNL     1      -1.082  11.699  20.692  0.00  0.00    +0.000 N 
ATOM     12  H   UNL     1      -1.399  12.205  19.875  0.00  0.00    +0.000 HD
ENDROOT
BRANCH   7  13
ATOM     13  N   UNL     1       2.371   7.276  20.113  0.00  0.00    +0.000 N 
ATOM     14  C   UNL     1       2.630   6.632  18.912  0.00  0.00    +0.000 C 
ATOM     15  O   UNL     1       2.231   7.009  17.817  0.00  0.00    +0.000 OA
ATOM     16  H   UNL     1       2.947   7.006  20.901  0.00  0.00    +0.000 HD
BRANCH  14  17
ATOM     17  C   UNL     1       3.529   5.510  19.024  0.00  0.00    +0.000 A 
ATOM     18  C   UNL     1       3.469   4.326  19.737  0.00  0.00    +0.000 A 
ATOM     19  C   UNL     1       4.673   3.656  19.460  0.00  0.00    +0.000 A 
ATOM     20  N   UNL     1       5.442   4.333  18.607  0.00  0.00    +0.000 NA
ATOM     21  N   UNL     1       4.708   5.426  18.315  0.00  0.00    +0.000 N 
ATOM     22  C   UNL     1       5.236   6.403  17.386  0.00  0.00    +0.000 C 
BRANCH  18  23
ATOM     23  C   UNL     1       2.328   3.843  20.610  0.00  0.00    +0.000 C 
ATOM     24  C   UNL     1       0.931   3.739  20.033  0.00  0.00    +0.000 C 
ATOM     25  C   UNL     1       1.714   2.497  20.286  0.00  0.00    +0.000 C 
ENDBRANCH  18  23
ENDBRANCH  14  17
ENDBRANCH   7  13
BRANCH   1  27
ATOM     26  C   UNL     1      -2.270  14.129  23.199  0.00  0.00    +0.000 C 
ATOM     27  C   UNL     1      -2.545  13.224  22.008  0.00  0.00    +0.000 C 
ENDBRANCH   1  27
TORSDOF 4
ENDMDL
MODEL 5
REMARK VINA RESULT:      -7.9      1.040      2.434
REMARK  Name = 
REMARK  6 active torsions:
REMARK  status: ('A' for Active; 'I' for Inactive)
REMARK    1  A    between atoms: C_1  and  C_2
REMARK    2  A    between atoms: C_2  and  C_3
REMARK    3  A    between atoms: C_9  and  N_10
REMARK    4  A    between atoms: C_11  and  C_13
REMARK    5  A    between atoms: C_14  and  C_15
REMARK    6  A    between atoms: N_20  and  C_21
REMARK                            x       y       z     vdW  Elec       q    Type
REMARK                         _______ _______ _______ _____ _____    ______ ____
ROOT
ATOM      1  C   UNL     1      -0.973  11.856  21.148  0.00  0.00    +0.000 A 
ATOM      2  C   UNL     1      -0.822  11.259  22.344  0.00  0.00    +0.000 A 
ATOM      3  C   UNL     1      -0.040  10.010  22.446  0.00  0.00    +0.000 A 
ATOM      4  O   UNL     1       0.100   9.459  23.532  0.00  0.00    +0.000 OA
ATOM      5  C   UNL     1       0.548   9.471  21.200  0.00  0.00    +0.000 A 
ATOM      6  C   UNL     1       1.299   8.296  21.249  0.00  0.00    +0.000 A 
ATOM      7  C   UNL     1       1.872   7.782  20.089  0.00  0.00    +0.000 A 
ATOM      8  C   UNL     1       1.706   8.480  18.886  0.00  0.00    +0.000 A 
ATOM      9  C   UNL     1       0.936   9.657  18.838  0.00  0.00    +0.000 A 
ATOM     10  C   UNL     1       0.339  10.160  19.997  0.00  0.00    +0.000 A 
ATOM     11  N   UNL     1      -0.409  11.344  19.993  0.00  0.00    +0.000 N 
ATOM     12  H   UNL     1      -0.619  11.795  19.111  0.00  0.00    +0.000 HD
ENDROOT
BRANCH   7  13
ATOM     13  N   UNL     1       2.631   6.593  20.085  0.00  0.00    +0.000 N 
ATOM     14  C   UNL     1       2.336   5.448  19.359  0.00  0.00    +0.000 C 
ATOM     15  O   UNL     1       1.434   5.357  18.535  0.00  0.00    +0.000 OA
ATOM     16  H   UNL     1       3.532   6.613  20.546  0.00  0.00    +0.000 HD
BRANCH  14  17
ATOM     17  C   UNL     1       3.265   4.364  19.560  0.00  0.00    +0.000 A 
ATOM     18  C   UNL     1       4.516   4.090  19.037  0.00  0.00    +0.000 A 
ATOM     19  C   UNL     1       4.899   2.859  19.597  0.00  0.00    +0.000 A 
ATOM     20  N   UNL     1       3.986   2.385  20.443  0.00  0.00    +0.000 NA
ATOM     21  N   UNL     1       3.030   3.336  20.447  0.00  0.00    +0.000 N 
ATOM     22  C   UNL     1       1.862   3.160  21.285  0.00  0.00    +0.000 C 
BRANCH  18  23
ATOM     23  C   UNL     1       5.316   4.955  18.083  0.00  0.00    +0.000 C 
ATOM     24  C   UNL     1       6.681   4.497  17.615  0.00  0.00    +0.000 C 
ATOM     25  C   UNL     1       5.527   4.441  16.674  0.00  0.00    +0.000 C 
ENDBRANCH  18  23
ENDBRANCH  14  17
ENDBRANCH   7  13
BRANCH   1  27
ATOM     26  C   UNL     1      -3.146  12.890  20.367  0.00  0.00    +0.000 C 
ATOM     27  C   UNL     1      -1.804  13.115  21.048  0.00  0.00    +0.000 C 
ENDBRANCH   1  27
TORSDOF 4
ENDMDL
MODEL 6
REMARK VINA RESULT:      -7.7      1.583      1.857
REMARK  Name = 
REMARK  6 active torsions:
REMARK  status: ('A' for Active; 'I' for Inactive)
REMARK    1  A    between atoms: C_1  and  C_2
REMARK    2  A    between atoms: C_2  and  C_3
REMARK    3  A    between atoms: C_9  and  N_10
REMARK    4  A    between atoms: C_11  and  C_13
REMARK    5  A    between atoms: C_14  and  C_15
REMARK    6  A    between atoms: N_20  and  C_21
REMARK                            x       y       z     vdW  Elec       q    Type
REMARK                         _______ _______ _______ _____ _____    ______ ____
ROOT
ATOM      1  C   UNL     1      -0.594  12.556  21.450  0.00  0.00    +0.000 A 
ATOM      2  C   UNL     1      -0.856  11.440  22.152  0.00  0.00    +0.000 A 
ATOM      3  C   UNL     1      -0.366  10.135  21.663  0.00  0.00    +0.000 A 
ATOM      4  O   UNL     1      -0.602   9.112  22.297  0.00  0.00    +0.000 OA
ATOM      5  C   UNL     1       0.403  10.126  20.400  0.00  0.00    +0.000 A 
ATOM      6  C   UNL     1       0.890   8.917  19.901  0.00  0.00    +0.000 A 
ATOM      7  C   UNL     1       1.627   8.892  18.721  0.00  0.00    +0.000 A 
ATOM      8  C   UNL     1       1.895  10.100  18.065  0.00  0.00    +0.000 A 
ATOM      9  C   UNL     1       1.390  11.316  18.562  0.00  0.00    +0.000 A 
ATOM     10  C   UNL     1       0.628  11.338  19.733  0.00  0.00    +0.000 A 
ATOM     11  N   UNL     1       0.134  12.533  20.274  0.00  0.00    +0.000 N 
ATOM     12  H   UNL     1       0.235  13.393  19.750  0.00  0.00    +0.000 HD
ENDROOT
BRANCH   7  13
ATOM     13  N   UNL     1       2.132   7.694  18.173  0.00  0.00    +0.000 N 
ATOM     14  C   UNL     1       2.705   6.653  18.891  0.00  0.00    +0.000 C 
ATOM     15  O   UNL     1       2.746   6.589  20.114  0.00  0.00    +0.000 OA
ATOM     16  H   UNL     1       1.951   7.516  17.193  0.00  0.00    +0.000 HD
BRANCH  14  17
ATOM     17  C   UNL     1       3.164   5.556  18.078  0.00  0.00    +0.000 A 
ATOM     18  C   UNL     1       2.627   4.315  17.784  0.00  0.00    +0.000 A 
ATOM     19  C   UNL     1       3.571   3.680  16.958  0.00  0.00    +0.000 A 
ATOM     20  N   UNL     1       4.623   4.458  16.706  0.00  0.00    +0.000 NA
ATOM     21  N   UNL     1       4.333   5.607  17.349  0.00  0.00    +0.000 N 
ATOM     22  C   UNL     1       5.268   6.710  17.281  0.00  0.00    +0.000 C 
BRANCH  18  23
ATOM     23  C   UNL     1       1.287   3.770  18.236  0.00  0.00    +0.000 C 
ATOM     24  C   UNL     1       1.175   2.331  18.694  0.00  0.00    +0.000 C 
ATOM     25  C   UNL     1       1.125   3.427  19.703  0.00  0.00    +0.000 C 
ENDBRANCH  18  23
ENDBRANCH  14  17
ENDBRANCH   7  13
BRANCH   1  27
ATOM     26  C   UNL     1      -1.077  14.023  23.454  0.00  0.00    +0.000 C 
ATOM     27  C   UNL     1      -1.130  13.882  21.940  0.00  0.00    +0.000 C 
ENDBRANCH   1  27
TORSDOF 4
ENDMDL
MODEL 7
REMARK VINA RESULT:      -7.7      1.582      1.748
REMARK  Name = 
REMARK  6 active torsions:
REMARK  status: ('A' for Active; 'I' for Inactive)
REMARK    1  A    between atoms: C_1  and  C_2
REMARK    2  A    between atoms: C_2  and  C_3
REMARK    3  A    between atoms: C_9  and  N_10
REMARK    4  A    between atoms: C_11  and  C_13
REMARK    5  A    between atoms: C_14  and  C_15
REMARK    6  A    between atoms: N_20  and  C_21
REMARK                            x       y       z     vdW  Elec       q    Type
REMARK                         _______ _______ _______ _____ _____    ______ ____
ROOT
ATOM      1  C   UNL     1       0.664  11.962  20.255  0.00  0.00    +0.000 A 
ATOM      2  C   UNL     1       0.470  11.243  21.374  0.00  0.00    +0.000 A 
ATOM      3  C   UNL     1       0.772   9.796  21.377  0.00  0.00    +0.000 A 
ATOM      4  O   UNL     1       0.596   9.133  22.393  0.00  0.00    +0.000 OA
ATOM      5  C   UNL     1       1.282   9.204  20.121  0.00  0.00    +0.000 A 
ATOM      6  C   UNL     1       1.585   7.843  20.079  0.00  0.00    +0.000 A 
ATOM      7  C   UNL     1       2.079   7.271  18.910  0.00  0.00    +0.000 A 
ATOM      8  C   UNL     1       2.294   8.091  17.794  0.00  0.00    +0.000 A 
ATOM      9  C   UNL     1       1.973   9.461  17.836  0.00  0.00    +0.000 A 
ATOM     10  C   UNL     1       1.453  10.030  19.002  0.00  0.00    +0.000 A 
ATOM     11  N   UNL     1       1.150  11.395  19.089  0.00  0.00    +0.000 N 
ATOM     12  H   UNL     1       1.204  11.969  18.258  0.00  0.00    +0.000 HD
ENDROOT
BRANCH   7  13
ATOM     13  N   UNL     1       2.391   5.899  18.814  0.00  0.00    +0.000 N 
ATOM     14  C   UNL     1       3.636   5.334  19.053  0.00  0.00    +0.000 C 
ATOM     15  O   UNL     1       4.606   5.941  19.490  0.00  0.00    +0.000 OA
ATOM     16  H   UNL     1       1.622   5.253  18.686  0.00  0.00    +0.000 HD
BRANCH  14  17
ATOM     17  C   UNL     1       3.685   3.907  18.856  0.00  0.00    +0.000 A 
ATOM     18  C   UNL     1       3.386   2.834  19.676  0.00  0.00    +0.000 A 
ATOM     19  C   UNL     1       3.673   1.686  18.918  0.00  0.00    +0.000 A 
ATOM     20  N   UNL     1       4.093   1.986  17.690  0.00  0.00    +0.000 NA
ATOM     21  N   UNL     1       4.043   3.333  17.655  0.00  0.00    +0.000 N 
ATOM     22  C   UNL     1       4.426   4.022  16.441  0.00  0.00    +0.000 C 
BRANCH  18  23
ATOM     23  C   UNL     1       2.835   2.890  21.087  0.00  0.00    +0.000 C 
ATOM     24  C   UNL     1       1.859   3.983  21.472  0.00  0.00    +0.000 C 
ATOM     25  C   UNL     1       1.363   2.591  21.282  0.00  0.00    +0.000 C 
ENDBRANCH  18  23
ENDBRANCH  14  17
ENDBRANCH   7  13
BRANCH   1  27
ATOM     26  C   UNL     1      -1.179  13.694  20.244  0.00  0.00    +0.000 C 
ATOM     27  C   UNL     1       0.319  13.434  20.251  0.00  0.00    +0.000 C 
ENDBRANCH   1  27
TORSDOF 4
ENDMDL
MODEL 8
REMARK VINA RESULT:      -7.6      1.494      1.965
REMARK  Name = 
REMARK  6 active torsions:
REMARK  status: ('A' for Active; 'I' for Inactive)
REMARK    1  A    between atoms: C_1  and  C_2
REMARK    2  A    between atoms: C_2  and  C_3
REMARK    3  A    between atoms: C_9  and  N_10
REMARK    4  A    between atoms: C_11  and  C_13
REMARK    5  A    between atoms: C_14  and  C_15
REMARK    6  A    between atoms: N_20  and  C_21
REMARK                            x       y       z     vdW  Elec       q    Type
REMARK                         _______ _______ _______ _____ _____    ______ ____
ROOT
ATOM      1  C   UNL     1      -0.580  12.203  19.914  0.00  0.00    +0.000 A 
ATOM      2  C   UNL     1       0.373  12.215  18.966  0.00  0.00    +0.000 A 
ATOM      3  C   UNL     1       1.255  11.042  18.798  0.00  0.00    +0.000 A 
ATOM      4  O   UNL     1       2.127  11.046  17.936  0.00  0.00    +0.000 OA
ATOM      5  C   UNL     1       1.038   9.892  19.703  0.00  0.00    +0.000 A 
ATOM      6  C   UNL     1       1.844   8.760  19.578  0.00  0.00    +0.000 A 
ATOM      7  C   UNL     1       1.645   7.663  20.412  0.00  0.00    +0.000 A 
ATOM      8  C   UNL     1       0.607   7.707  21.351  0.00  0.00    +0.000 A 
ATOM      9  C   UNL     1      -0.194   8.856  21.484  0.00  0.00    +0.000 A 
ATOM     10  C   UNL     1       0.021   9.967  20.665  0.00  0.00    +0.000 A 
ATOM     11  N   UNL     1      -0.776  11.116  20.748  0.00  0.00    +0.000 N 
ATOM     12  H   UNL     1      -1.457  11.194  21.493  0.00  0.00    +0.000 HD
ENDROOT
BRANCH   7  13
ATOM     13  N   UNL     1       2.440   6.500  20.331  0.00  0.00    +0.000 N 
ATOM     14  C   UNL     1       2.632   5.729  19.193  0.00  0.00    +0.000 C 
ATOM     15  O   UNL     1       2.224   6.021  18.076  0.00  0.00    +0.000 OA
ATOM     16  H   UNL     1       3.021   6.276  21.129  0.00  0.00    +0.000 HD
BRANCH  14  17
ATOM     17  C   UNL     1       3.472   4.575  19.396  0.00  0.00    +0.000 A 
ATOM     18  C   UNL     1       3.213   3.292  19.843  0.00  0.00    +0.000 A 
ATOM     19  C   UNL     1       4.456   2.637  19.855  0.00  0.00    +0.000 A 
ATOM     20  N   UNL     1       5.442   3.421  19.418  0.00  0.00    +0.000 NA
ATOM     21  N   UNL     1       4.817   4.571  19.095  0.00  0.00    +0.000 N 
ATOM     22  C   UNL     1       5.592   5.670  18.561  0.00  0.00    +0.000 C 
BRANCH  18  23
ATOM     23  C   UNL     1       1.864   2.710  20.214  0.00  0.00    +0.000 C 
ATOM     24  C   UNL     1       0.595   3.439  19.822  0.00  0.00    +0.000 C 
ATOM     25  C   UNL     1       0.984   2.200  19.091  0.00  0.00    +0.000 C 
ENDBRANCH  18  23
ENDBRANCH  14  17
ENDBRANCH   7  13
BRANCH   1  27
ATOM     26  C   UNL     1      -0.680  14.643  20.578  0.00  0.00    +0.000 C 
ATOM     27  C   UNL     1      -1.454  13.423  20.102  0.00  0.00    +0.000 C 
ENDBRANCH   1  27
TORSDOF 4
ENDMDL
MODEL 9
REMARK VINA RESULT:      -7.6      1.451      1.660
REMARK  Name = 
REMARK  6 active torsions:
REMARK  status: ('A' for Active; 'I' for Inactive)
REMARK    1  A    between atoms: C_1  and  C_2
REMARK    2  A    between atoms: C_2  and  C_3
REMARK    3  A    between atoms: C_9  and  N_10
REMARK    4  A    between atoms: C_11  and  C_13
REMARK    5  A    between atoms: C_14  and  C_15
REMARK    6  A    between atoms: N_20  and  C_21
REMARK                            x       y       z     vdW  Elec       q    Type
REMARK                         _______ _______ _______ _____ _____    ______ ____
ROOT
ATOM      1  C   UNL     1       0.260  11.985  20.127  0.00  0.00    +0.000 A 
ATOM      2  C   UNL     1       0.109  11.281  21.263  0.00  0.00    +0.000 A 
ATOM      3  C   UNL     1       0.574   9.880  21.325  0.00  0.00    +0.000 A 
ATOM      4  O   UNL     1       0.438   9.231  22.356  0.00  0.00    +0.000 OA
ATOM      5  C   UNL     1       1.196   9.315  20.107  0.00  0.00    +0.000 A 
ATOM      6  C   UNL     1       1.655   7.997  20.120  0.00  0.00    +0.000 A 
ATOM      7  C   UNL     1       2.255   7.453  18.988  0.00  0.00    +0.000 A 
ATOM      8  C   UNL     1       2.414   8.259  17.854  0.00  0.00    +0.000 A 
ATOM      9  C   UNL     1       1.937   9.583  17.839  0.00  0.00    +0.000 A 
ATOM     10  C   UNL     1       1.312  10.121  18.967  0.00  0.00    +0.000 A 
ATOM     11  N   UNL     1       0.851  11.444  18.999  0.00  0.00    +0.000 N 
ATOM     12  H   UNL     1       0.869  11.996  18.150  0.00  0.00    +0.000 HD
ENDROOT
BRANCH   7  13
ATOM     13  N   UNL     1       2.726   6.124  18.949  0.00  0.00    +0.000 N 
ATOM     14  C   UNL     1       2.157   5.085  18.224  0.00  0.00    +0.000 C 
ATOM     15  O   UNL     1       1.232   5.212  17.431  0.00  0.00    +0.000 OA
ATOM     16  H   UNL     1       3.622   5.933  19.378  0.00  0.00    +0.000 HD
BRANCH  14  17
ATOM     17  C   UNL     1       2.825   3.818  18.384  0.00  0.00    +0.000 A 
ATOM     18  C   UNL     1       2.646   2.767  19.267  0.00  0.00    +0.000 A 
ATOM     19  C   UNL     1       3.636   1.825  18.939  0.00  0.00    +0.000 A 
ATOM     20  N   UNL     1       4.380   2.215  17.904  0.00  0.00    +0.000 NA
ATOM     21  N   UNL     1       3.838   3.399  17.550  0.00  0.00    +0.000 N 
ATOM     22  C   UNL     1       4.396   4.122  16.427  0.00  0.00    +0.000 C 
BRANCH  18  23
ATOM     23  C   UNL     1       1.583   2.648  20.341  0.00  0.00    +0.000 C 
ATOM     24  C   UNL     1       1.980   2.277  21.755  0.00  0.00    +0.000 C 
ATOM     25  C   UNL     1       1.584   3.681  21.449  0.00  0.00    +0.000 C 
ENDBRANCH  18  23
ENDBRANCH  14  17
ENDBRANCH   7  13
BRANCH   1  27
ATOM     26  C   UNL     1      -1.720  13.527  20.441  0.00  0.00    +0.000 C 
ATOM     27  C   UNL     1      -0.252  13.406  20.063  0.00  0.00    +0.000 C 
ENDBRANCH   1  27
TORSDOF 4
ENDMDL
