MODEL 1
REMARK VINA RESULT:      -7.2      0.000      0.000
REMARK  Name = 
REMARK  6 active torsions:
REMARK  status: ('A' for Active; 'I' for Inactive)
REMARK    1  A    between atoms: C_1  and  C_2
REMARK    2  A    between atoms: C_2  and  N_3
REMARK    3  A    between atoms: N_8  and  C_9
REMARK    4  A    between atoms: C_9  and  C_10
REMARK    5  A    between atoms: C_10  and  C_11
REMARK    6  A    between atoms: C_18  and  C_19
REMARK                            x       y       z     vdW  Elec       q    Type
REMARK                         _______ _______ _______ _____ _____    ______ ____
ROOT
ATOM      1  N   UNL     1       2.981   3.541  20.234  0.00  0.00    +0.000 N 
ATOM      2  C   UNL     1       3.554   2.394  19.756  0.00  0.00    +0.000 A 
ATOM      3  N   UNL     1       3.990   2.542  18.524  0.00  0.00    +0.000 NA
ATOM      4  C   UNL     1       3.709   3.855  18.203  0.00  0.00    +0.000 A 
ATOM      5  C   UNL     1       3.998   4.630  17.065  0.00  0.00    +0.000 A 
ATOM      6  N   UNL     1       4.720   4.102  16.003  0.00  0.00    +0.000 N 
ATOM      7  N   UNL     1       3.626   5.937  17.076  0.00  0.00    +0.000 NA
ATOM      8  C   UNL     1       2.989   6.428  18.165  0.00  0.00    +0.000 A 
ATOM      9  N   UNL     1       2.679   5.778  19.312  0.00  0.00    +0.000 NA
ATOM     10  C   UNL     1       3.079   4.496  19.259  0.00  0.00    +0.000 A 
ATOM     11  H   UNL     1       4.266   3.293  15.588  0.00  0.00    +0.000 HD
ENDROOT
BRANCH   1  13
ATOM     12  C   UNL     1       1.443   2.537  21.880  0.00  0.00    +0.000 C 
ATOM     13  C   UNL     1       2.365   3.692  21.533  0.00  0.00    +0.000 C 
ENDBRANCH   1  13
BRANCH   8  14
ATOM     14  C   UNL     1       2.618   7.824  18.103  0.00  0.00    +0.000 C 
ATOM     15  N   UNL     1       2.318   8.952  18.052  0.00  0.00    +0.000 NA
ENDBRANCH   8  14
BRANCH   6  16
ATOM     16  C   UNL     1       5.430   5.011  15.121  0.00  0.00    +0.000 C 
BRANCH  16  17
ATOM     17  C   UNL     1       6.943   4.905  15.380  0.00  0.00    +0.000 C 
BRANCH  17  18
ATOM     18  C   UNL     1       7.356   5.408  16.731  0.00  0.00    +0.000 A 
ATOM     19  C   UNL     1       7.435   6.775  17.007  0.00  0.00    +0.000 A 
ATOM     20  C   UNL     1       7.799   7.197  18.283  0.00  0.00    +0.000 A 
ATOM     21  C   UNL     1       8.076   6.232  19.238  0.00  0.00    +0.000 A 
ATOM     22  N   UNL     1       8.020   4.904  19.004  0.00  0.00    +0.000 NA
ATOM     23  C   UNL     1       7.660   4.524  17.759  0.00  0.00    +0.000 A 
ENDBRANCH  17  18
ENDBRANCH  16  17
ENDBRANCH   6  16
TORSDOF 5
ENDMDL
MODEL 2
REMARK VINA RESULT:      -7.0      3.483      5.400
REMARK  Name = 
REMARK  6 active torsions:
REMARK  status: ('A' for Active; 'I' for Inactive)
REMARK    1  A    between atoms: C_1  and  C_2
REMARK    2  A    between atoms: C_2  and  N_3
REMARK    3  A    between atoms: N_8  and  C_9
REMARK    4  A    between atoms: C_9  and  C_10
REMARK    5  A    between atoms: C_10  and  C_11
REMARK    6  A    between atoms: C_18  and  C_19
REMARK                            x       y       z     vdW  Elec       q    Type
REMARK                         _______ _______ _______ _____ _____    ______ ____
ROOT
ATOM      1  N   UNL     1       4.731   3.898  18.072  0.00  0.00    +0.000 N 
ATOM      2  C   UNL     1       4.760   4.406  19.342  0.00  0.00    +0.000 A 
ATOM      3  N   UNL     1       5.663   5.354  19.469  0.00  0.00    +0.000 NA
ATOM      4  C   UNL     1       6.223   5.481  18.214  0.00  0.00    +0.000 A 
ATOM      5  C   UNL     1       7.181   6.371  17.694  0.00  0.00    +0.000 A 
ATOM      6  N   UNL     1       7.726   7.376  18.482  0.00  0.00    +0.000 N 
ATOM      7  N   UNL     1       7.490   6.272  16.374  0.00  0.00    +0.000 NA
ATOM      8  C   UNL     1       6.877   5.323  15.627  0.00  0.00    +0.000 A 
ATOM      9  N   UNL     1       5.935   4.433  16.021  0.00  0.00    +0.000 NA
ATOM     10  C   UNL     1       5.654   4.580  17.327  0.00  0.00    +0.000 A 
ATOM     11  H   UNL     1       8.209   7.012  19.298  0.00  0.00    +0.000 HD
ENDROOT
BRANCH   1  13
ATOM     12  C   UNL     1       2.463   3.263  17.342  0.00  0.00    +0.000 C 
ATOM     13  C   UNL     1       3.886   2.815  17.621  0.00  0.00    +0.000 C 
ENDBRANCH   1  13
BRANCH   8  14
ATOM     14  C   UNL     1       7.260   5.273  14.234  0.00  0.00    +0.000 C 
ATOM     15  N   UNL     1       7.570   5.233  13.109  0.00  0.00    +0.000 NA
ENDBRANCH   8  14
BRANCH   6  16
ATOM     16  C   UNL     1       8.281   8.549  17.831  0.00  0.00    +0.000 C 
BRANCH  16  17
ATOM     17  C   UNL     1       8.896   9.484  18.888  0.00  0.00    +0.000 C 
BRANCH  17  18
ATOM     18  C   UNL     1       9.370  10.791  18.329  0.00  0.00    +0.000 A 
ATOM     19  C   UNL     1      10.731  11.071  18.180  0.00  0.00    +0.000 A 
ATOM     20  C   UNL     1      11.125  12.288  17.632  0.00  0.00    +0.000 A 
ATOM     21  C   UNL     1      10.140  13.189  17.258  0.00  0.00    +0.000 A 
ATOM     22  N   UNL     1       8.818  12.957  17.397  0.00  0.00    +0.000 NA
ATOM     23  C   UNL     1       8.464  11.766  17.926  0.00  0.00    +0.000 A 
ENDBRANCH  17  18
ENDBRANCH  16  17
ENDBRANCH   6  16
TORSDOF 5
ENDMDL
MODEL 3
REMARK VINA RESULT:      -6.8      3.196      4.997
REMARK  Name = 
REMARK  6 active torsions:
REMARK  status: ('A' for Active; 'I' for Inactive)
REMARK    1  A    between atoms: C_1  and  C_2
REMARK    2  A    between atoms: C_2  and  N_3
REMARK    3  A    between atoms: N_8  and  C_9
REMARK    4  A    between atoms: C_9  and  C_10
REMARK    5  A    between atoms: C_10  and  C_11
REMARK    6  A    between atoms: C_18  and  C_19
REMARK                            x       y       z     vdW  Elec       q    Type
REMARK                         _______ _______ _______ _____ _____    ______ ____
ROOT
ATOM      1  N   UNL     1       4.213   4.137  18.205  0.00  0.00    +0.000 N 
ATOM      2  C   UNL     1       4.325   4.747  19.425  0.00  0.00    +0.000 A 
ATOM      3  N   UNL     1       5.351   5.568  19.468  0.00  0.00    +0.000 NA
ATOM      4  C   UNL     1       5.910   5.505  18.208  0.00  0.00    +0.000 A 
ATOM      5  C   UNL     1       6.977   6.204  17.614  0.00  0.00    +0.000 A 
ATOM      6  N   UNL     1       7.664   7.190  18.310  0.00  0.00    +0.000 N 
ATOM      7  N   UNL     1       7.256   5.947  16.309  0.00  0.00    +0.000 NA
ATOM      8  C   UNL     1       6.510   5.029  15.648  0.00  0.00    +0.000 A 
ATOM      9  N   UNL     1       5.459   4.317  16.117  0.00  0.00    +0.000 NA
ATOM     10  C   UNL     1       5.213   4.617  17.404  0.00  0.00    +0.000 A 
ATOM     11  H   UNL     1       8.100   6.836  19.156  0.00  0.00    +0.000 HD
ENDROOT
BRANCH   1  13
ATOM     12  C   UNL     1       3.665   1.733  18.184  0.00  0.00    +0.000 C 
ATOM     13  C   UNL     1       3.222   3.146  17.851  0.00  0.00    +0.000 C 
ENDBRANCH   1  13
BRANCH   8  14
ATOM     14  C   UNL     1       6.869   4.803  14.265  0.00  0.00    +0.000 C 
ATOM     15  N   UNL     1       7.158   4.621  13.149  0.00  0.00    +0.000 NA
ENDBRANCH   8  14
BRANCH   6  16
ATOM     16  C   UNL     1       8.369   8.213  17.558  0.00  0.00    +0.000 C 
BRANCH  16  17
ATOM     17  C   UNL     1       7.970   9.604  18.080  0.00  0.00    +0.000 C 
BRANCH  17  18
ATOM     18  C   UNL     1       9.126  10.398  18.611  0.00  0.00    +0.000 A 
ATOM     19  C   UNL     1      10.062  10.985  17.756  0.00  0.00    +0.000 A 
ATOM     20  C   UNL     1      11.105  11.734  18.292  0.00  0.00    +0.000 A 
ATOM     21  C   UNL     1      11.178  11.866  19.669  0.00  0.00    +0.000 A 
ATOM     22  N   UNL     1      10.298  11.306  20.526  0.00  0.00    +0.000 NA
ATOM     23  C   UNL     1       9.294  10.588  19.978  0.00  0.00    +0.000 A 
ENDBRANCH  17  18
ENDBRANCH  16  17
ENDBRANCH   6  16
TORSDOF 5
ENDMDL
MODEL 4
REMARK VINA RESULT:      -6.8      3.167      6.785
REMARK  Name = 
REMARK  6 active torsions:
REMARK  status: ('A' for Active; 'I' for Inactive)
REMARK    1  A    between atoms: C_1  and  C_2
REMARK    2  A    between atoms: C_2  and  N_3
REMARK    3  A    between atoms: N_8  and  C_9
REMARK    4  A    between atoms: C_9  and  C_10
REMARK    5  A    between atoms: C_10  and  C_11
REMARK    6  A    between atoms: C_18  and  C_19
REMARK                            x       y       z     vdW  Elec       q    Type
REMARK                         _______ _______ _______ _____ _____    ______ ____
ROOT
ATOM      1  N   UNL     1       3.135   3.869  19.872  0.00  0.00    +0.000 N 
ATOM      2  C   UNL     1       2.228   4.283  20.809  0.00  0.00    +0.000 A 
ATOM      3  N   UNL     1       1.910   5.550  20.655  0.00  0.00    +0.000 NA
ATOM      4  C   UNL     1       2.625   5.964  19.549  0.00  0.00    +0.000 A 
ATOM      5  C   UNL     1       2.653   7.181  18.845  0.00  0.00    +0.000 A 
ATOM      6  N   UNL     1       1.833   8.241  19.213  0.00  0.00    +0.000 N 
ATOM      7  N   UNL     1       3.440   7.259  17.741  0.00  0.00    +0.000 NA
ATOM      8  C   UNL     1       4.167   6.175  17.376  0.00  0.00    +0.000 A 
ATOM      9  N   UNL     1       4.201   4.958  17.969  0.00  0.00    +0.000 NA
ATOM     10  C   UNL     1       3.396   4.927  19.045  0.00  0.00    +0.000 A 
ATOM     11  H   UNL     1       2.004   8.552  20.165  0.00  0.00    +0.000 HD
ENDROOT
BRANCH   1  13
ATOM     12  C   UNL     1       3.197   1.743  18.623  0.00  0.00    +0.000 C 
ATOM     13  C   UNL     1       3.721   2.549  19.798  0.00  0.00    +0.000 C 
ENDBRANCH   1  13
BRANCH   8  14
ATOM     14  C   UNL     1       4.986   6.334  16.195  0.00  0.00    +0.000 C 
ATOM     15  N   UNL     1       5.647   6.461  15.241  0.00  0.00    +0.000 NA
ENDBRANCH   8  14
BRANCH   6  16
ATOM     16  C   UNL     1       1.500   9.244  18.219  0.00  0.00    +0.000 C 
BRANCH  16  17
ATOM     17  C   UNL     1       0.785  10.426  18.897  0.00  0.00    +0.000 C 
BRANCH  17  18
ATOM     18  C   UNL     1      -0.645  10.583  18.474  0.00  0.00    +0.000 A 
ATOM     19  C   UNL     1      -1.202   9.781  17.474  0.00  0.00    +0.000 A 
ATOM     20  C   UNL     1      -2.541   9.945  17.131  0.00  0.00    +0.000 A 
ATOM     21  C   UNL     1      -3.275  10.913  17.797  0.00  0.00    +0.000 A 
ATOM     22  N   UNL     1      -2.768  11.712  18.760  0.00  0.00    +0.000 NA
ATOM     23  C   UNL     1      -1.468  11.528  19.076  0.00  0.00    +0.000 A 
ENDBRANCH  17  18
ENDBRANCH  16  17
ENDBRANCH   6  16
TORSDOF 5
ENDMDL
MODEL 5
REMARK VINA RESULT:      -6.7      2.131      4.541
REMARK  Name = 
REMARK  6 active torsions:
REMARK  status: ('A' for Active; 'I' for Inactive)
REMARK    1  A    between atoms: C_1  and  C_2
REMARK    2  A    between atoms: C_2  and  N_3
REMARK    3  A    between atoms: N_8  and  C_9
REMARK    4  A    between atoms: C_9  and  C_10
REMARK    5  A    between atoms: C_10  and  C_11
REMARK    6  A    between atoms: C_18  and  C_19
REMARK                            x       y       z     vdW  Elec       q    Type
REMARK                         _______ _______ _______ _____ _____    ______ ____
ROOT
ATOM      1  N   UNL     1       1.417   8.088  20.108  0.00  0.00    +0.000 N 
ATOM      2  C   UNL     1       1.779   8.781  18.985  0.00  0.00    +0.000 A 
ATOM      3  N   UNL     1       2.566   8.072  18.206  0.00  0.00    +0.000 NA
ATOM      4  C   UNL     1       2.696   6.855  18.843  0.00  0.00    +0.000 A 
ATOM      5  C   UNL     1       3.343   5.662  18.475  0.00  0.00    +0.000 A 
ATOM      6  N   UNL     1       3.990   5.545  17.251  0.00  0.00    +0.000 N 
ATOM      7  N   UNL     1       3.240   4.598  19.315  0.00  0.00    +0.000 NA
ATOM      8  C   UNL     1       2.536   4.736  20.463  0.00  0.00    +0.000 A 
ATOM      9  N   UNL     1       1.866   5.827  20.903  0.00  0.00    +0.000 NA
ATOM     10  C   UNL     1       1.985   6.844  20.033  0.00  0.00    +0.000 A 
ATOM     11  H   UNL     1       4.737   6.225  17.141  0.00  0.00    +0.000 HD
ENDROOT
BRANCH   1  13
ATOM     12  C   UNL     1       1.424   9.203  22.307  0.00  0.00    +0.000 C 
ATOM     13  C   UNL     1       0.600   8.601  21.184  0.00  0.00    +0.000 C 
ENDBRANCH   1  13
BRANCH   8  14
ATOM     14  C   UNL     1       2.476   3.565  21.310  0.00  0.00    +0.000 C 
ATOM     15  N   UNL     1       2.427   2.620  21.994  0.00  0.00    +0.000 NA
ENDBRANCH   8  14
BRANCH   6  16
ATOM     16  C   UNL     1       4.185   4.222  16.688  0.00  0.00    +0.000 C 
BRANCH  16  17
ATOM     17  C   UNL     1       5.691   3.915  16.600  0.00  0.00    +0.000 C 
BRANCH  17  18
ATOM     18  C   UNL     1       6.285   4.215  15.256  0.00  0.00    +0.000 A 
ATOM     19  C   UNL     1       5.818   3.591  14.096  0.00  0.00    +0.000 A 
ATOM     20  C   UNL     1       6.383   3.918  12.867  0.00  0.00    +0.000 A 
ATOM     21  C   UNL     1       7.402   4.856  12.843  0.00  0.00    +0.000 A 
ATOM     22  N   UNL     1       7.886   5.471  13.943  0.00  0.00    +0.000 NA
ATOM     23  C   UNL     1       7.316   5.137  15.122  0.00  0.00    +0.000 A 
ENDBRANCH  17  18
ENDBRANCH  16  17
ENDBRANCH   6  16
TORSDOF 5
ENDMDL
MODEL 6
REMARK VINA RESULT:      -6.7      1.706      5.378
REMARK  Name = 
REMARK  6 active torsions:
REMARK  status: ('A' for Active; 'I' for Inactive)
REMARK    1  A    between atoms: C_1  and  C_2
REMARK    2  A    between atoms: C_2  and  N_3
REMARK    3  A    between atoms: N_8  and  C_9
REMARK    4  A    between atoms: C_9  and  C_10
REMARK    5  A    between atoms: C_10  and  C_11
REMARK    6  A    between atoms: C_18  and  C_19
REMARK                            x       y       z     vdW  Elec       q    Type
REMARK                         _______ _______ _______ _____ _____    ______ ____
ROOT
ATOM      1  N   UNL     1       6.087   5.497  17.306  0.00  0.00    +0.000 N 
ATOM      2  C   UNL     1       6.403   4.425  18.096  0.00  0.00    +0.000 A 
ATOM      3  N   UNL     1       5.583   4.314  19.119  0.00  0.00    +0.000 NA
ATOM      4  C   UNL     1       4.680   5.346  18.965  0.00  0.00    +0.000 A 
ATOM      5  C   UNL     1       3.528   5.707  19.687  0.00  0.00    +0.000 A 
ATOM      6  N   UNL     1       3.093   4.950  20.767  0.00  0.00    +0.000 N 
ATOM      7  N   UNL     1       2.806   6.769  19.242  0.00  0.00    +0.000 NA
ATOM      8  C   UNL     1       3.229   7.433  18.140  0.00  0.00    +0.000 A 
ATOM      9  N   UNL     1       4.306   7.161  17.366  0.00  0.00    +0.000 NA
ATOM     10  C   UNL     1       4.977   6.096  17.837  0.00  0.00    +0.000 A 
ATOM     11  H   UNL     1       3.787   4.892  21.506  0.00  0.00    +0.000 HD
ENDROOT
BRANCH   1  13
ATOM     12  C   UNL     1       6.975   4.811  15.110  0.00  0.00    +0.000 C 
ATOM     13  C   UNL     1       6.821   5.920  16.135  0.00  0.00    +0.000 C 
ENDBRANCH   1  13
BRANCH   8  14
ATOM     14  C   UNL     1       2.415   8.555  17.729  0.00  0.00    +0.000 C 
ATOM     15  N   UNL     1       1.757   9.462  17.397  0.00  0.00    +0.000 NA
ENDBRANCH   8  14
BRANCH   6  16
ATOM     16  C   UNL     1       1.694   5.021  21.151  0.00  0.00    +0.000 C 
BRANCH  16  17
ATOM     17  C   UNL     1       0.924   3.851  20.513  0.00  0.00    +0.000 C 
BRANCH  17  18
ATOM     18  C   UNL     1       1.646   3.215  19.363  0.00  0.00    +0.000 A 
ATOM     19  C   UNL     1       2.519   2.141  19.554  0.00  0.00    +0.000 A 
ATOM     20  C   UNL     1       3.149   1.565  18.454  0.00  0.00    +0.000 A 
ATOM     21  C   UNL     1       2.886   2.091  17.199  0.00  0.00    +0.000 A 
ATOM     22  N   UNL     1       2.058   3.133  16.978  0.00  0.00    +0.000 NA
ATOM     23  C   UNL     1       1.457   3.669  18.063  0.00  0.00    +0.000 A 
ENDBRANCH  17  18
ENDBRANCH  16  17
ENDBRANCH   6  16
TORSDOF 5
ENDMDL
MODEL 7
REMARK VINA RESULT:      -6.7      3.712      7.443
REMARK  Name = 
REMARK  6 active torsions:
REMARK  status: ('A' for Active; 'I' for Inactive)
REMARK    1  A    between atoms: C_1  and  C_2
REMARK    2  A    between atoms: C_2  and  N_3
REMARK    3  A    between atoms: N_8  and  C_9
REMARK    4  A    between atoms: C_9  and  C_10
REMARK    5  A    between atoms: C_10  and  C_11
REMARK    6  A    between atoms: C_18  and  C_19
REMARK                            x       y       z     vdW  Elec       q    Type
REMARK                         _______ _______ _______ _____ _____    ______ ____
ROOT
ATOM      1  N   UNL     1       4.482   5.352  17.607  0.00  0.00    +0.000 N 
ATOM      2  C   UNL     1       4.464   6.630  17.121  0.00  0.00    +0.000 A 
ATOM      3  N   UNL     1       3.626   7.395  17.787  0.00  0.00    +0.000 NA
ATOM      4  C   UNL     1       3.101   6.576  18.766  0.00  0.00    +0.000 A 
ATOM      5  C   UNL     1       2.216   6.828  19.830  0.00  0.00    +0.000 A 
ATOM      6  N   UNL     1       1.726   8.106  20.068  0.00  0.00    +0.000 N 
ATOM      7  N   UNL     1       1.926   5.801  20.672  0.00  0.00    +0.000 NA
ATOM      8  C   UNL     1       2.486   4.589  20.444  0.00  0.00    +0.000 A 
ATOM      9  N   UNL     1       3.357   4.245  19.465  0.00  0.00    +0.000 NA
ATOM     10  C   UNL     1       3.623   5.296  18.670  0.00  0.00    +0.000 A 
ATOM     11  H   UNL     1       1.204   8.475  19.278  0.00  0.00    +0.000 HD
ENDROOT
BRANCH   1  13
ATOM     12  C   UNL     1       5.299   4.267  15.548  0.00  0.00    +0.000 C 
ATOM     13  C   UNL     1       5.259   4.259  17.065  0.00  0.00    +0.000 C 
ENDBRANCH   1  13
BRANCH   8  14
ATOM     14  C   UNL     1       2.127   3.543  21.375  0.00  0.00    +0.000 C 
ATOM     15  N   UNL     1       1.837   2.698  22.128  0.00  0.00    +0.000 NA
ENDBRANCH   8  14
BRANCH   6  16
ATOM     16  C   UNL     1       1.265   8.439  21.404  0.00  0.00    +0.000 C 
BRANCH  16  17
ATOM     17  C   UNL     1      -0.170   8.991  21.331  0.00  0.00    +0.000 C 
BRANCH  17  18
ATOM     18  C   UNL     1      -0.272  10.443  21.690  0.00  0.00    +0.000 A 
ATOM     19  C   UNL     1      -1.176  10.894  22.656  0.00  0.00    +0.000 A 
ATOM     20  C   UNL     1      -1.219  12.248  22.976  0.00  0.00    +0.000 A 
ATOM     21  C   UNL     1      -0.358  13.106  22.311  0.00  0.00    +0.000 A 
ATOM     22  N   UNL     1       0.520  12.708  21.366  0.00  0.00    +0.000 NA
ATOM     23  C   UNL     1       0.543  11.388  21.079  0.00  0.00    +0.000 A 
ENDBRANCH  17  18
ENDBRANCH  16  17
ENDBRANCH   6  16
TORSDOF 5
ENDMDL
MODEL 8
REMARK VINA RESULT:      -6.7      0.683      1.058
REMARK  Name = 
REMARK  6 active torsions:
REMARK  status: ('A' for Active; 'I' for Inactive)
REMARK    1  A    between atoms: C_1  and  C_2
REMARK    2  A    between atoms: C_2  and  N_3
REMARK    3  A    between atoms: N_8  and  C_9
REMARK    4  A    between atoms: C_9  and  C_10
REMARK    5  A    between atoms: C_10  and  C_11
REMARK    6  A    between atoms: C_18  and  C_19
REMARK                            x       y       z     vdW  Elec       q    Type
REMARK                         _______ _______ _______ _____ _____    ______ ____
ROOT
ATOM      1  N   UNL     1       3.086   3.314  20.311  0.00  0.00    +0.000 N 
ATOM      2  C   UNL     1       3.660   2.171  19.826  0.00  0.00    +0.000 A 
ATOM      3  N   UNL     1       4.064   2.316  18.583  0.00  0.00    +0.000 NA
ATOM      4  C   UNL     1       3.760   3.623  18.261  0.00  0.00    +0.000 A 
ATOM      5  C   UNL     1       4.012   4.394  17.111  0.00  0.00    +0.000 A 
ATOM      6  N   UNL     1       4.714   3.867  16.035  0.00  0.00    +0.000 N 
ATOM      7  N   UNL     1       3.625   5.696  17.123  0.00  0.00    +0.000 NA
ATOM      8  C   UNL     1       3.008   6.187  18.224  0.00  0.00    +0.000 A 
ATOM      9  N   UNL     1       2.734   5.541  19.382  0.00  0.00    +0.000 NA
ATOM     10  C   UNL     1       3.148   4.264  19.327  0.00  0.00    +0.000 A 
ATOM     11  H   UNL     1       4.260   3.051  15.637  0.00  0.00    +0.000 HD
ENDROOT
BRANCH   1  13
ATOM     12  C   UNL     1       1.202   2.694  21.777  0.00  0.00    +0.000 C 
ATOM     13  C   UNL     1       2.499   3.467  21.623  0.00  0.00    +0.000 C 
ENDBRANCH   1  13
BRANCH   8  14
ATOM     14  C   UNL     1       2.619   7.579  18.162  0.00  0.00    +0.000 C 
ATOM     15  N   UNL     1       2.304   8.702  18.111  0.00  0.00    +0.000 NA
ENDBRANCH   8  14
BRANCH   6  16
ATOM     16  C   UNL     1       5.391   4.778  15.130  0.00  0.00    +0.000 C 
BRANCH  16  17
ATOM     17  C   UNL     1       6.906   4.742  15.399  0.00  0.00    +0.000 C 
BRANCH  17  18
ATOM     18  C   UNL     1       7.304   5.417  16.677  0.00  0.00    +0.000 A 
ATOM     19  C   UNL     1       7.649   4.682  17.814  0.00  0.00    +0.000 A 
ATOM     20  C   UNL     1       8.036   5.350  18.971  0.00  0.00    +0.000 A 
ATOM     21  C   UNL     1       8.058   6.735  18.953  0.00  0.00    +0.000 A 
ATOM     22  N   UNL     1       7.721   7.478  17.877  0.00  0.00    +0.000 NA
ATOM     23  C   UNL     1       7.354   6.803  16.766  0.00  0.00    +0.000 A 
ENDBRANCH  17  18
ENDBRANCH  16  17
ENDBRANCH   6  16
TORSDOF 5
ENDMDL
MODEL 9
REMARK VINA RESULT:      -6.7      3.017      7.065
REMARK  Name = 
REMARK  6 active torsions:
REMARK  status: ('A' for Active; 'I' for Inactive)
REMARK    1  A    between atoms: C_1  and  C_2
REMARK    2  A    between atoms: C_2  and  N_3
REMARK    3  A    between atoms: N_8  and  C_9
REMARK    4  A    between atoms: C_9  and  C_10
REMARK    5  A    between atoms: C_10  and  C_11
REMARK    6  A    between atoms: C_18  and  C_19
REMARK                            x       y       z     vdW  Elec       q    Type
REMARK                         _______ _______ _______ _____ _____    ______ ____
ROOT
ATOM      1  N   UNL     1       4.462   5.218  17.550  0.00  0.00    +0.000 N 
ATOM      2  C   UNL     1       4.468   6.493  17.056  0.00  0.00    +0.000 A 
ATOM      3  N   UNL     1       3.645   7.278  17.717  0.00  0.00    +0.000 NA
ATOM      4  C   UNL     1       3.105   6.477  18.701  0.00  0.00    +0.000 A 
ATOM      5  C   UNL     1       2.225   6.753  19.764  0.00  0.00    +0.000 A 
ATOM      6  N   UNL     1       1.759   8.041  19.994  0.00  0.00    +0.000 N 
ATOM      7  N   UNL     1       1.916   5.737  20.613  0.00  0.00    +0.000 NA
ATOM      8  C   UNL     1       2.453   4.513  20.394  0.00  0.00    +0.000 A 
ATOM      9  N   UNL     1       3.317   4.146  19.417  0.00  0.00    +0.000 NA
ATOM     10  C   UNL     1       3.603   5.186  18.615  0.00  0.00    +0.000 A 
ATOM     11  H   UNL     1       1.245   8.414  19.202  0.00  0.00    +0.000 HD
ENDROOT
BRANCH   1  13
ATOM     12  C   UNL     1       5.475   4.239  15.526  0.00  0.00    +0.000 C 
ATOM     13  C   UNL     1       5.218   4.107  17.017  0.00  0.00    +0.000 C 
ENDBRANCH   1  13
BRANCH   8  14
ATOM     14  C   UNL     1       2.075   3.481  21.333  0.00  0.00    +0.000 C 
ATOM     15  N   UNL     1       1.769   2.647  22.091  0.00  0.00    +0.000 NA
ENDBRANCH   8  14
BRANCH   6  16
ATOM     16  C   UNL     1       1.306   8.392  21.327  0.00  0.00    +0.000 C 
BRANCH  16  17
ATOM     17  C   UNL     1      -0.093   9.029  21.245  0.00  0.00    +0.000 C 
BRANCH  17  18
ATOM     18  C   UNL     1      -0.144  10.251  20.378  0.00  0.00    +0.000 A 
ATOM     19  C   UNL     1      -0.947  10.302  19.236  0.00  0.00    +0.000 A 
ATOM     20  C   UNL     1      -0.983  11.467  18.474  0.00  0.00    +0.000 A 
ATOM     21  C   UNL     1      -0.207  12.540  18.880  0.00  0.00    +0.000 A 
ATOM     22  N   UNL     1       0.588  12.524  19.971  0.00  0.00    +0.000 NA
ATOM     23  C   UNL     1       0.600  11.383  20.694  0.00  0.00    +0.000 A 
ENDBRANCH  17  18
ENDBRANCH  16  17
ENDBRANCH   6  16
TORSDOF 5
ENDMDL
