MODEL 1
REMARK VINA RESULT:      -7.5      0.000      0.000
REMARK  Name = 
REMARK  9 active torsions:
REMARK  status: ('A' for Active; 'I' for Inactive)
REMARK    1  A    between atoms: C_1  and  C_2
REMARK    2  A    between atoms: C_2  and  C_3
REMARK    3  A    between atoms: N_5  and  C_6
REMARK    4  A    between atoms: N_5  and  C_8
REMARK    5  A    between atoms: C_6  and  C_7
REMARK    6  A    between atoms: C_8  and  C_9
REMARK    7  A    between atoms: N_11  and  C_12
REMARK    8  A    between atoms: N_21  and  C_22
REMARK    9  A    between atoms: C_22  and  C_23
REMARK                            x       y       z     vdW  Elec       q    Type
REMARK                         _______ _______ _______ _____ _____    ______ ____
ROOT
ATOM      1  C   UNL     1       4.608   3.108  17.384  0.00  0.00    +0.000 A 
ATOM      2  N   UNL     1       5.034   2.870  16.133  0.00  0.00    +0.000 NA
ATOM      3  N   UNL     1       5.432   4.076  15.639  0.00  0.00    +0.000 N 
ATOM      4  C   UNL     1       5.324   5.049  16.608  0.00  0.00    +0.000 A 
ATOM      5  C   UNL     1       4.705   4.481  17.704  0.00  0.00    +0.000 A 
ATOM      6  C   UNL     1       4.379   5.243  18.947  0.00  0.00    +0.000 C 
ATOM      7  N   UNL     1       4.457   6.714  18.710  0.00  0.00    +0.000 NA
ATOM      8  C   UNL     1       5.728   7.045  18.009  0.00  0.00    +0.000 C 
ATOM      9  C   UNL     1       5.822   6.452  16.582  0.00  0.00    +0.000 C 
ENDROOT
BRANCH   3  10
ATOM     10  C   UNL     1       5.958   4.194  14.321  0.00  0.00    +0.000 A 
ATOM     11  C   UNL     1       7.070   5.002  14.048  0.00  0.00    +0.000 A 
ATOM     12  C   UNL     1       7.658   5.003  12.784  0.00  0.00    +0.000 A 
ATOM     13  C   UNL     1       7.120   4.220  11.769  0.00  0.00    +0.000 A 
ATOM     14  C   UNL     1       5.969   3.470  12.010  0.00  0.00    +0.000 A 
ATOM     15  C   UNL     1       5.376   3.467  13.276  0.00  0.00    +0.000 A 
ENDBRANCH   3  10
BRANCH   1  16
ATOM     16  C   UNL     1       4.123   1.978  18.258  0.00  0.00    +0.000 C 
BRANCH  16  19
ATOM     17  C   UNL     1       3.195   2.425  20.461  0.00  0.00    +0.000 C 
ATOM     18  O   UNL     1       4.325   2.266  20.927  0.00  0.00    +0.000 OA
ATOM     19  N   UNL     1       2.936   2.265  19.098  0.00  0.00    +0.000 N 
BRANCH  17  21
ATOM     20  C   UNL     1       1.789   4.311  21.442  0.00  0.00    +0.000 C 
ATOM     21  C   UNL     1       2.025   2.807  21.365  0.00  0.00    +0.000 C 
ENDBRANCH  17  21
BRANCH  19  22
ATOM     22  C   UNL     1       1.601   2.383  18.498  0.00  0.00    +0.000 C 
ATOM     23  C   UNL     1       1.286   3.766  17.946  0.00  0.00    +0.000 C 
ENDBRANCH  19  22
ENDBRANCH  16  19
ENDBRANCH   1  16
BRANCH   7  24
ATOM     24  C   UNL     1       3.306   7.232  17.938  0.00  0.00    +0.000 C 
BRANCH  24  25
ATOM     25  C   UNL     1       2.323   8.019  18.762  0.00  0.00    +0.000 A 
ATOM     26  C   UNL     1       2.023   7.642  20.077  0.00  0.00    +0.000 A 
ATOM     27  C   UNL     1       1.118   8.392  20.818  0.00  0.00    +0.000 A 
ATOM     28  F   UNL     1       0.833   8.026  22.074  0.00  0.00    +0.000 F 
ATOM     29  C   UNL     1       0.503   9.520  20.278  0.00  0.00    +0.000 A 
ATOM     30  C   UNL     1       0.803   9.908  18.973  0.00  0.00    +0.000 A 
ATOM     31  C   UNL     1       1.709   9.158  18.228  0.00  0.00    +0.000 A 
ATOM     32  F   UNL     1       1.992   9.550  16.978  0.00  0.00    +0.000 F 
ENDBRANCH  24  25
ENDBRANCH   7  24
TORSDOF 7
ENDMDL
MODEL 2
REMARK VINA RESULT:      -7.3      0.680      1.529
REMARK  Name = 
REMARK  9 active torsions:
REMARK  status: ('A' for Active; 'I' for Inactive)
REMARK    1  A    between atoms: C_1  and  C_2
REMARK    2  A    between atoms: C_2  and  C_3
REMARK    3  A    between atoms: N_5  and  C_6
REMARK    4  A    between atoms: N_5  and  C_8
REMARK    5  A    between atoms: C_6  and  C_7
REMARK    6  A    between atoms: C_8  and  C_9
REMARK    7  A    between atoms: N_11  and  C_12
REMARK    8  A    between atoms: N_21  and  C_22
REMARK    9  A    between atoms: C_22  and  C_23
REMARK                            x       y       z     vdW  Elec       q    Type
REMARK                         _______ _______ _______ _____ _____    ______ ____
ROOT
ATOM      1  C   UNL     1       4.580   3.074  17.374  0.00  0.00    +0.000 A 
ATOM      2  N   UNL     1       5.045   2.848  16.135  0.00  0.00    +0.000 NA
ATOM      3  N   UNL     1       5.405   4.066  15.643  0.00  0.00    +0.000 N 
ATOM      4  C   UNL     1       5.235   5.038  16.603  0.00  0.00    +0.000 A 
ATOM      5  C   UNL     1       4.614   4.451  17.688  0.00  0.00    +0.000 A 
ATOM      6  C   UNL     1       4.227   5.206  18.918  0.00  0.00    +0.000 C 
ATOM      7  N   UNL     1       4.251   6.678  18.675  0.00  0.00    +0.000 NA
ATOM      8  C   UNL     1       5.524   7.056  18.001  0.00  0.00    +0.000 C 
ATOM      9  C   UNL     1       5.675   6.461  16.580  0.00  0.00    +0.000 C 
ENDROOT
BRANCH   3  10
ATOM     10  C   UNL     1       5.957   4.199  14.337  0.00  0.00    +0.000 A 
ATOM     11  C   UNL     1       7.104   4.970  14.103  0.00  0.00    +0.000 A 
ATOM     12  C   UNL     1       7.712   4.981  12.849  0.00  0.00    +0.000 A 
ATOM     13  C   UNL     1       7.160   4.248  11.805  0.00  0.00    +0.000 A 
ATOM     14  C   UNL     1       5.976   3.540  12.007  0.00  0.00    +0.000 A 
ATOM     15  C   UNL     1       5.364   3.525  13.263  0.00  0.00    +0.000 A 
ENDBRANCH   3  10
BRANCH   1  16
ATOM     16  C   UNL     1       4.121   1.930  18.243  0.00  0.00    +0.000 C 
BRANCH  16  19
ATOM     17  C   UNL     1       3.270   2.344  20.483  0.00  0.00    +0.000 C 
ATOM     18  O   UNL     1       4.415   2.177  20.908  0.00  0.00    +0.000 OA
ATOM     19  N   UNL     1       2.964   2.204  19.128  0.00  0.00    +0.000 N 
BRANCH  17  21
ATOM     20  C   UNL     1       1.998   4.214  21.658  0.00  0.00    +0.000 C 
ATOM     21  C   UNL     1       2.132   2.712  21.432  0.00  0.00    +0.000 C 
ENDBRANCH  17  21
BRANCH  19  22
ATOM     22  C   UNL     1       1.610   2.332  18.575  0.00  0.00    +0.000 C 
ATOM     23  C   UNL     1       1.267   3.729  18.079  0.00  0.00    +0.000 C 
ENDBRANCH  19  22
ENDBRANCH  16  19
ENDBRANCH   1  16
BRANCH   7  24
ATOM     24  C   UNL     1       3.098   7.144  17.873  0.00  0.00    +0.000 C 
BRANCH  24  25
ATOM     25  C   UNL     1       2.301   8.238  18.531  0.00  0.00    +0.000 A 
ATOM     26  C   UNL     1       2.174   9.497  17.930  0.00  0.00    +0.000 A 
ATOM     27  C   UNL     1       1.424  10.485  18.558  0.00  0.00    +0.000 A 
ATOM     28  F   UNL     1       1.308  11.687  17.980  0.00  0.00    +0.000 F 
ATOM     29  C   UNL     1       0.790  10.246  19.775  0.00  0.00    +0.000 A 
ATOM     30  C   UNL     1       0.904   8.992  20.375  0.00  0.00    +0.000 A 
ATOM     31  C   UNL     1       1.655   8.001  19.750  0.00  0.00    +0.000 A 
ATOM     32  F   UNL     1       1.746   6.800  20.336  0.00  0.00    +0.000 F 
ENDBRANCH  24  25
ENDBRANCH   7  24
TORSDOF 7
ENDMDL
MODEL 3
REMARK VINA RESULT:      -7.2      5.358     10.345
REMARK  Name = 
REMARK  9 active torsions:
REMARK  status: ('A' for Active; 'I' for Inactive)
REMARK    1  A    between atoms: C_1  and  C_2
REMARK    2  A    between atoms: C_2  and  C_3
REMARK    3  A    between atoms: N_5  and  C_6
REMARK    4  A    between atoms: N_5  and  C_8
REMARK    5  A    between atoms: C_6  and  C_7
REMARK    6  A    between atoms: C_8  and  C_9
REMARK    7  A    between atoms: N_11  and  C_12
REMARK    8  A    between atoms: N_21  and  C_22
REMARK    9  A    between atoms: C_22  and  C_23
REMARK                            x       y       z     vdW  Elec       q    Type
REMARK                         _______ _______ _______ _____ _____    ______ ____
ROOT
ATOM      1  C   UNL     1      -2.144  10.808  18.688  0.00  0.00    +0.000 A 
ATOM      2  N   UNL     1      -2.354  11.762  19.609  0.00  0.00    +0.000 NA
ATOM      3  N   UNL     1      -1.119  12.152  20.030  0.00  0.00    +0.000 N 
ATOM      4  C   UNL     1      -0.141  11.495  19.317  0.00  0.00    +0.000 A 
ATOM      5  C   UNL     1      -0.764  10.554  18.521  0.00  0.00    +0.000 A 
ATOM      6  C   UNL     1      -0.021   9.615  17.628  0.00  0.00    +0.000 C 
ATOM      7  N   UNL     1       1.427   9.570  17.981  0.00  0.00    +0.000 NA
ATOM      8  C   UNL     1       1.955  10.956  18.122  0.00  0.00    +0.000 C 
ATOM      9  C   UNL     1       1.328  11.742  19.298  0.00  0.00    +0.000 C 
ENDROOT
BRANCH   3  10
ATOM     10  C   UNL     1      -0.963  13.172  21.011  0.00  0.00    +0.000 A 
ATOM     11  C   UNL     1      -0.759  14.511  20.649  0.00  0.00    +0.000 A 
ATOM     12  C   UNL     1      -0.746  15.517  21.613  0.00  0.00    +0.000 A 
ATOM     13  C   UNL     1      -0.903  15.192  22.956  0.00  0.00    +0.000 A 
ATOM     14  C   UNL     1      -1.031  13.856  23.334  0.00  0.00    +0.000 A 
ATOM     15  C   UNL     1      -1.045  12.844  22.370  0.00  0.00    +0.000 A 
ENDBRANCH   3  10
BRANCH   1  16
ATOM     16  C   UNL     1      -3.305  10.165  17.970  0.00  0.00    +0.000 C 
BRANCH  16  19
ATOM     17  C   UNL     1      -5.303  11.537  17.773  0.00  0.00    +0.000 C 
ATOM     18  O   UNL     1      -5.625  11.163  18.902  0.00  0.00    +0.000 OA
ATOM     19  N   UNL     1      -4.146  11.067  17.148  0.00  0.00    +0.000 N 
BRANCH  17  21
ATOM     20  C   UNL     1      -7.365  13.034  17.807  0.00  0.00    +0.000 C 
ATOM     21  C   UNL     1      -6.165  12.538  17.007  0.00  0.00    +0.000 C 
ENDBRANCH  17  21
BRANCH  19  22
ATOM     22  C   UNL     1      -3.745  11.432  15.784  0.00  0.00    +0.000 C 
ATOM     23  C   UNL     1      -2.957  10.352  15.054  0.00  0.00    +0.000 C 
ENDBRANCH  19  22
ENDBRANCH  16  19
ENDBRANCH   1  16
BRANCH   7  24
ATOM     24  C   UNL     1       1.691   8.803  19.220  0.00  0.00    +0.000 C 
BRANCH  24  25
ATOM     25  C   UNL     1       2.412   7.502  18.988  0.00  0.00    +0.000 A 
ATOM     26  C   UNL     1       3.218   7.318  17.858  0.00  0.00    +0.000 A 
ATOM     27  C   UNL     1       3.878   6.108  17.675  0.00  0.00    +0.000 A 
ATOM     28  F   UNL     1       4.646   5.936  16.591  0.00  0.00    +0.000 F 
ATOM     29  C   UNL     1       3.757   5.072  18.599  0.00  0.00    +0.000 A 
ATOM     30  C   UNL     1       2.963   5.252  19.731  0.00  0.00    +0.000 A 
ATOM     31  C   UNL     1       2.300   6.462  19.917  0.00  0.00    +0.000 A 
ATOM     32  F   UNL     1       1.549   6.619  21.016  0.00  0.00    +0.000 F 
ENDBRANCH  24  25
ENDBRANCH   7  24
TORSDOF 7
ENDMDL
MODEL 4
REMARK VINA RESULT:      -7.2      0.929      1.399
REMARK  Name = 
REMARK  9 active torsions:
REMARK  status: ('A' for Active; 'I' for Inactive)
REMARK    1  A    between atoms: C_1  and  C_2
REMARK    2  A    between atoms: C_2  and  C_3
REMARK    3  A    between atoms: N_5  and  C_6
REMARK    4  A    between atoms: N_5  and  C_8
REMARK    5  A    between atoms: C_6  and  C_7
REMARK    6  A    between atoms: C_8  and  C_9
REMARK    7  A    between atoms: N_11  and  C_12
REMARK    8  A    between atoms: N_21  and  C_22
REMARK    9  A    between atoms: C_22  and  C_23
REMARK                            x       y       z     vdW  Elec       q    Type
REMARK                         _______ _______ _______ _____ _____    ______ ____
ROOT
ATOM      1  C   UNL     1       4.488   3.085  17.260  0.00  0.00    +0.000 A 
ATOM      2  N   UNL     1       4.961   2.877  16.021  0.00  0.00    +0.000 NA
ATOM      3  N   UNL     1       5.416   4.086  15.588  0.00  0.00    +0.000 N 
ATOM      4  C   UNL     1       5.295   5.028  16.586  0.00  0.00    +0.000 A 
ATOM      5  C   UNL     1       4.612   4.442  17.633  0.00  0.00    +0.000 A 
ATOM      6  C   UNL     1       4.254   5.170  18.888  0.00  0.00    +0.000 C 
ATOM      7  N   UNL     1       4.386   6.645  18.709  0.00  0.00    +0.000 NA
ATOM      8  C   UNL     1       5.696   6.960  18.074  0.00  0.00    +0.000 C 
ATOM      9  C   UNL     1       5.834   6.415  16.632  0.00  0.00    +0.000 C 
ENDROOT
BRANCH   3  10
ATOM     10  C   UNL     1       6.003   4.234  14.299  0.00  0.00    +0.000 A 
ATOM     11  C   UNL     1       7.131   5.041  14.098  0.00  0.00    +0.000 A 
ATOM     12  C   UNL     1       7.776   5.069  12.862  0.00  0.00    +0.000 A 
ATOM     13  C   UNL     1       7.280   4.315  11.805  0.00  0.00    +0.000 A 
ATOM     14  C   UNL     1       6.115   3.569  11.973  0.00  0.00    +0.000 A 
ATOM     15  C   UNL     1       5.465   3.537  13.210  0.00  0.00    +0.000 A 
ENDBRANCH   3  10
BRANCH   1  16
ATOM     16  C   UNL     1       3.932   1.941  18.072  0.00  0.00    +0.000 C 
BRANCH  16  19
ATOM     17  C   UNL     1       1.805   2.564  19.071  0.00  0.00    +0.000 C 
ATOM     18  O   UNL     1       1.313   2.547  17.941  0.00  0.00    +0.000 OA
ATOM     19  N   UNL     1       3.162   2.311  19.282  0.00  0.00    +0.000 N 
BRANCH  17  21
ATOM     20  C   UNL     1       0.871   4.352  20.628  0.00  0.00    +0.000 C 
ATOM     21  C   UNL     1       0.941   2.867  20.293  0.00  0.00    +0.000 C 
ENDBRANCH  17  21
BRANCH  19  22
ATOM     22  C   UNL     1       3.813   2.376  20.597  0.00  0.00    +0.000 C 
ATOM     23  C   UNL     1       5.058   1.509  20.720  0.00  0.00    +0.000 C 
ENDBRANCH  19  22
ENDBRANCH  16  19
ENDBRANCH   1  16
BRANCH   7  24
ATOM     24  C   UNL     1       3.286   7.225  17.907  0.00  0.00    +0.000 C 
BRANCH  24  25
ATOM     25  C   UNL     1       2.321   8.057  18.708  0.00  0.00    +0.000 A 
ATOM     26  C   UNL     1       1.983   7.702  20.020  0.00  0.00    +0.000 A 
ATOM     27  C   UNL     1       1.095   8.494  20.739  0.00  0.00    +0.000 A 
ATOM     28  F   UNL     1       0.773   8.148  21.992  0.00  0.00    +0.000 F 
ATOM     29  C   UNL     1       0.536   9.641  20.180  0.00  0.00    +0.000 A 
ATOM     30  C   UNL     1       0.875  10.007  18.878  0.00  0.00    +0.000 A 
ATOM     31  C   UNL     1       1.763   9.215  18.155  0.00  0.00    +0.000 A 
ATOM     32  F   UNL     1       2.083   9.587  16.908  0.00  0.00    +0.000 F 
ENDBRANCH  24  25
ENDBRANCH   7  24
TORSDOF 7
ENDMDL
MODEL 5
REMARK VINA RESULT:      -7.0      6.712     11.520
REMARK  Name = 
REMARK  9 active torsions:
REMARK  status: ('A' for Active; 'I' for Inactive)
REMARK    1  A    between atoms: C_1  and  C_2
REMARK    2  A    between atoms: C_2  and  C_3
REMARK    3  A    between atoms: N_5  and  C_6
REMARK    4  A    between atoms: N_5  and  C_8
REMARK    5  A    between atoms: C_6  and  C_7
REMARK    6  A    between atoms: C_8  and  C_9
REMARK    7  A    between atoms: N_11  and  C_12
REMARK    8  A    between atoms: N_21  and  C_22
REMARK    9  A    between atoms: C_22  and  C_23
REMARK                            x       y       z     vdW  Elec       q    Type
REMARK                         _______ _______ _______ _____ _____    ______ ____
ROOT
ATOM      1  C   UNL     1      -1.949  14.529  21.320  0.00  0.00    +0.000 A 
ATOM      2  N   UNL     1      -1.473  15.682  20.824  0.00  0.00    +0.000 NA
ATOM      3  N   UNL     1      -0.776  15.346  19.703  0.00  0.00    +0.000 N 
ATOM      4  C   UNL     1      -0.882  13.995  19.461  0.00  0.00    +0.000 A 
ATOM      5  C   UNL     1      -1.543  13.428  20.533  0.00  0.00    +0.000 A 
ATOM      6  C   UNL     1      -1.812  11.963  20.649  0.00  0.00    +0.000 C 
ATOM      7  N   UNL     1      -0.976  11.186  19.688  0.00  0.00    +0.000 NA
ATOM      8  C   UNL     1      -1.061  11.802  18.334  0.00  0.00    +0.000 C 
ATOM      9  C   UNL     1      -0.455  13.224  18.260  0.00  0.00    +0.000 C 
ENDROOT
BRANCH   3  10
ATOM     10  C   UNL     1      -0.136  16.339  18.909  0.00  0.00    +0.000 A 
ATOM     11  C   UNL     1       1.260  16.395  18.792  0.00  0.00    +0.000 A 
ATOM     12  C   UNL     1       1.867  17.283  17.906  0.00  0.00    +0.000 A 
ATOM     13  C   UNL     1       1.085  18.150  17.150  0.00  0.00    +0.000 A 
ATOM     14  C   UNL     1      -0.299  18.156  17.314  0.00  0.00    +0.000 A 
ATOM     15  C   UNL     1      -0.912  17.266  18.202  0.00  0.00    +0.000 A 
ENDBRANCH   3  10
BRANCH   1  16
ATOM     16  C   UNL     1      -2.813  14.524  22.557  0.00  0.00    +0.000 C 
BRANCH  16  19
ATOM     17  C   UNL     1      -4.767  13.111  22.875  0.00  0.00    +0.000 C 
ATOM     18  O   UNL     1      -4.033  12.285  23.422  0.00  0.00    +0.000 OA
ATOM     19  N   UNL     1      -4.262  14.298  22.341  0.00  0.00    +0.000 N 
BRANCH  17  21
ATOM     20  C   UNL     1      -7.015  13.064  24.075  0.00  0.00    +0.000 C 
ATOM     21  C   UNL     1      -6.269  12.863  22.760  0.00  0.00    +0.000 C 
ENDBRANCH  17  21
BRANCH  19  22
ATOM     22  C   UNL     1      -5.079  15.288  21.628  0.00  0.00    +0.000 C 
ATOM     23  C   UNL     1      -5.429  16.519  22.453  0.00  0.00    +0.000 C 
ENDBRANCH  19  22
ENDBRANCH  16  19
ENDBRANCH   1  16
BRANCH   7  24
ATOM     24  C   UNL     1       0.439  11.088  20.109  0.00  0.00    +0.000 C 
BRANCH  24  25
ATOM     25  C   UNL     1       1.075   9.759  19.803  0.00  0.00    +0.000 A 
ATOM     26  C   UNL     1       1.679   9.519  18.563  0.00  0.00    +0.000 A 
ATOM     27  C   UNL     1       2.266   8.284  18.312  0.00  0.00    +0.000 A 
ATOM     28  F   UNL     1       2.840   8.059  17.123  0.00  0.00    +0.000 F 
ATOM     29  C   UNL     1       2.269   7.277  19.275  0.00  0.00    +0.000 A 
ATOM     30  C   UNL     1       1.677   7.512  20.516  0.00  0.00    +0.000 A 
ATOM     31  C   UNL     1       1.088   8.747  20.770  0.00  0.00    +0.000 A 
ATOM     32  F   UNL     1       0.532   8.957  21.971  0.00  0.00    +0.000 F 
ENDBRANCH  24  25
ENDBRANCH   7  24
TORSDOF 7
ENDMDL
MODEL 6
REMARK VINA RESULT:      -6.9      1.163      2.066
REMARK  Name = 
REMARK  9 active torsions:
REMARK  status: ('A' for Active; 'I' for Inactive)
REMARK    1  A    between atoms: C_1  and  C_2
REMARK    2  A    between atoms: C_2  and  C_3
REMARK    3  A    between atoms: N_5  and  C_6
REMARK    4  A    between atoms: N_5  and  C_8
REMARK    5  A    between atoms: C_6  and  C_7
REMARK    6  A    between atoms: C_8  and  C_9
REMARK    7  A    between atoms: N_11  and  C_12
REMARK    8  A    between atoms: N_21  and  C_22
REMARK    9  A    between atoms: C_22  and  C_23
REMARK                            x       y       z     vdW  Elec       q    Type
REMARK                         _______ _______ _______ _____ _____    ______ ____
ROOT
ATOM      1  C   UNL     1       4.475   3.108  17.233  0.00  0.00    +0.000 A 
ATOM      2  N   UNL     1       4.958   2.888  16.000  0.00  0.00    +0.000 NA
ATOM      3  N   UNL     1       5.384   4.099  15.544  0.00  0.00    +0.000 N 
ATOM      4  C   UNL     1       5.236   5.057  16.523  0.00  0.00    +0.000 A 
ATOM      5  C   UNL     1       4.565   4.475  17.579  0.00  0.00    +0.000 A 
ATOM      6  C   UNL     1       4.185   5.219  18.818  0.00  0.00    +0.000 C 
ATOM      7  N   UNL     1       4.281   6.693  18.610  0.00  0.00    +0.000 NA
ATOM      8  C   UNL     1       5.585   7.028  17.973  0.00  0.00    +0.000 C 
ATOM      9  C   UNL     1       5.742   6.458  16.543  0.00  0.00    +0.000 C 
ENDROOT
BRANCH   3  10
ATOM     10  C   UNL     1       5.971   4.236  14.254  0.00  0.00    +0.000 A 
ATOM     11  C   UNL     1       7.112   5.025  14.050  0.00  0.00    +0.000 A 
ATOM     12  C   UNL     1       7.756   5.040  12.814  0.00  0.00    +0.000 A 
ATOM     13  C   UNL     1       7.247   4.294  11.758  0.00  0.00    +0.000 A 
ATOM     14  C   UNL     1       6.070   3.565  11.929  0.00  0.00    +0.000 A 
ATOM     15  C   UNL     1       5.422   3.546  13.167  0.00  0.00    +0.000 A 
ENDBRANCH   3  10
BRANCH   1  16
ATOM     16  C   UNL     1       3.945   1.968  18.065  0.00  0.00    +0.000 C 
BRANCH  16  19
ATOM     17  C   UNL     1       1.748   2.613  18.885  0.00  0.00    +0.000 C 
ATOM     18  O   UNL     1       1.354   2.612  17.716  0.00  0.00    +0.000 OA
ATOM     19  N   UNL     1       3.079   2.339  19.209  0.00  0.00    +0.000 N 
BRANCH  17  21
ATOM     20  C   UNL     1       0.813   4.380  20.466  0.00  0.00    +0.000 C 
ATOM     21  C   UNL     1       0.787   2.919  20.031  0.00  0.00    +0.000 C 
ENDBRANCH  17  21
BRANCH  19  22
ATOM     22  C   UNL     1       3.615   2.385  20.575  0.00  0.00    +0.000 C 
ATOM     23  C   UNL     1       4.932   1.643  20.753  0.00  0.00    +0.000 C 
ENDBRANCH  19  22
ENDBRANCH  16  19
ENDBRANCH   1  16
BRANCH   7  24
ATOM     24  C   UNL     1       3.169   7.230  17.793  0.00  0.00    +0.000 C 
BRANCH  24  25
ATOM     25  C   UNL     1       2.321   8.245  18.511  0.00  0.00    +0.000 A 
ATOM     26  C   UNL     1       1.968   9.453  17.896  0.00  0.00    +0.000 A 
ATOM     27  C   UNL     1       1.176  10.367  18.581  0.00  0.00    +0.000 A 
ATOM     28  F   UNL     1       0.844  11.521  17.989  0.00  0.00    +0.000 F 
ATOM     29  C   UNL     1       0.721  10.104  19.871  0.00  0.00    +0.000 A 
ATOM     30  C   UNL     1       1.060   8.900  20.487  0.00  0.00    +0.000 A 
ATOM     31  C   UNL     1       1.853   7.982  19.804  0.00  0.00    +0.000 A 
ATOM     32  F   UNL     1       2.162   6.827  20.409  0.00  0.00    +0.000 F 
ENDBRANCH  24  25
ENDBRANCH   7  24
TORSDOF 7
ENDMDL
MODEL 7
REMARK VINA RESULT:      -6.9      3.174      7.802
REMARK  Name = 
REMARK  9 active torsions:
REMARK  status: ('A' for Active; 'I' for Inactive)
REMARK    1  A    between atoms: C_1  and  C_2
REMARK    2  A    between atoms: C_2  and  C_3
REMARK    3  A    between atoms: N_5  and  C_6
REMARK    4  A    between atoms: N_5  and  C_8
REMARK    5  A    between atoms: C_6  and  C_7
REMARK    6  A    between atoms: C_8  and  C_9
REMARK    7  A    between atoms: N_11  and  C_12
REMARK    8  A    between atoms: N_21  and  C_22
REMARK    9  A    between atoms: C_22  and  C_23
REMARK                            x       y       z     vdW  Elec       q    Type
REMARK                         _______ _______ _______ _____ _____    ______ ____
ROOT
ATOM      1  C   UNL     1       2.687   7.572  18.176  0.00  0.00    +0.000 A 
ATOM      2  N   UNL     1       1.941   6.819  19.000  0.00  0.00    +0.000 NA
ATOM      3  N   UNL     1       2.601   5.633  19.122  0.00  0.00    +0.000 N 
ATOM      4  C   UNL     1       3.794   5.677  18.435  0.00  0.00    +0.000 A 
ATOM      5  C   UNL     1       3.831   6.868  17.737  0.00  0.00    +0.000 A 
ATOM      6  C   UNL     1       4.960   7.257  16.839  0.00  0.00    +0.000 C 
ATOM      7  N   UNL     1       5.817   6.079  16.514  0.00  0.00    +0.000 NA
ATOM      8  C   UNL     1       6.147   5.336  17.761  0.00  0.00    +0.000 C 
ATOM      9  C   UNL     1       4.916   4.698  18.448  0.00  0.00    +0.000 C 
ENDROOT
BRANCH   3  10
ATOM     10  C   UNL     1       2.091   4.588  19.943  0.00  0.00    +0.000 A 
ATOM     11  C   UNL     1       1.169   3.655  19.450  0.00  0.00    +0.000 A 
ATOM     12  C   UNL     1       0.783   2.559  20.219  0.00  0.00    +0.000 A 
ATOM     13  C   UNL     1       1.289   2.401  21.504  0.00  0.00    +0.000 A 
ATOM     14  C   UNL     1       2.148   3.364  22.033  0.00  0.00    +0.000 A 
ATOM     15  C   UNL     1       2.538   4.465  21.264  0.00  0.00    +0.000 A 
ENDBRANCH   3  10
BRANCH   1  16
ATOM     16  C   UNL     1       2.275   8.983  17.841  0.00  0.00    +0.000 C 
BRANCH  16  19
ATOM     17  C   UNL     1      -0.031   9.676  18.184  0.00  0.00    +0.000 C 
ATOM     18  O   UNL     1      -0.268   9.328  17.026  0.00  0.00    +0.000 OA
ATOM     19  N   UNL     1       1.254   9.594  18.725  0.00  0.00    +0.000 N 
BRANCH  17  21
ATOM     20  C   UNL     1      -2.226  10.966  18.309  0.00  0.00    +0.000 C 
ATOM     21  C   UNL     1      -1.144  10.217  19.079  0.00  0.00    +0.000 C 
ENDBRANCH  17  21
BRANCH  19  22
ATOM     22  C   UNL     1       1.605  10.048  20.077  0.00  0.00    +0.000 C 
ATOM     23  C   UNL     1       1.131   9.124  21.189  0.00  0.00    +0.000 C 
ENDBRANCH  19  22
ENDBRANCH  16  19
ENDBRANCH   1  16
BRANCH   7  24
ATOM     24  C   UNL     1       5.186   5.165  15.535  0.00  0.00    +0.000 C 
BRANCH  24  25
ATOM     25  C   UNL     1       6.031   4.898  14.319  0.00  0.00    +0.000 A 
ATOM     26  C   UNL     1       7.283   5.507  14.165  0.00  0.00    +0.000 A 
ATOM     27  C   UNL     1       8.045   5.235  13.035  0.00  0.00    +0.000 A 
ATOM     28  F   UNL     1       9.240   5.822  12.891  0.00  0.00    +0.000 F 
ATOM     29  C   UNL     1       7.589   4.361  12.050  0.00  0.00    +0.000 A 
ATOM     30  C   UNL     1       6.348   3.743  12.201  0.00  0.00    +0.000 A 
ATOM     31  C   UNL     1       5.582   4.014  13.331  0.00  0.00    +0.000 A 
ATOM     32  F   UNL     1       4.396   3.405  13.463  0.00  0.00    +0.000 F 
ENDBRANCH  24  25
ENDBRANCH   7  24
TORSDOF 7
ENDMDL
MODEL 8
REMARK VINA RESULT:      -6.9      5.304     10.057
REMARK  Name = 
REMARK  9 active torsions:
REMARK  status: ('A' for Active; 'I' for Inactive)
REMARK    1  A    between atoms: C_1  and  C_2
REMARK    2  A    between atoms: C_2  and  C_3
REMARK    3  A    between atoms: N_5  and  C_6
REMARK    4  A    between atoms: N_5  and  C_8
REMARK    5  A    between atoms: C_6  and  C_7
REMARK    6  A    between atoms: C_8  and  C_9
REMARK    7  A    between atoms: N_11  and  C_12
REMARK    8  A    between atoms: N_21  and  C_22
REMARK    9  A    between atoms: C_22  and  C_23
REMARK                            x       y       z     vdW  Elec       q    Type
REMARK                         _______ _______ _______ _____ _____    ______ ____
ROOT
ATOM      1  C   UNL     1      -1.949  10.814  18.571  0.00  0.00    +0.000 A 
ATOM      2  N   UNL     1      -2.098  11.924  19.311  0.00  0.00    +0.000 NA
ATOM      3  N   UNL     1      -0.840  12.314  19.657  0.00  0.00    +0.000 N 
ATOM      4  C   UNL     1       0.094  11.489  19.070  0.00  0.00    +0.000 A 
ATOM      5  C   UNL     1      -0.587  10.460  18.451  0.00  0.00    +0.000 A 
ATOM      6  C   UNL     1       0.095   9.339  17.735  0.00  0.00    +0.000 C 
ATOM      7  N   UNL     1       1.543   9.278  18.090  0.00  0.00    +0.000 NA
ATOM      8  C   UNL     1       2.145  10.636  17.986  0.00  0.00    +0.000 C 
ATOM      9  C   UNL     1       1.574  11.649  19.007  0.00  0.00    +0.000 C 
ENDROOT
BRANCH   3  10
ATOM     10  C   UNL     1      -0.620  13.479  20.444  0.00  0.00    +0.000 A 
ATOM     11  C   UNL     1      -0.572  14.755  19.865  0.00  0.00    +0.000 A 
ATOM     12  C   UNL     1      -0.494  15.897  20.661  0.00  0.00    +0.000 A 
ATOM     13  C   UNL     1      -0.428  15.774  22.044  0.00  0.00    +0.000 A 
ATOM     14  C   UNL     1      -0.398  14.508  22.626  0.00  0.00    +0.000 A 
ATOM     15  C   UNL     1      -0.477  13.360  21.832  0.00  0.00    +0.000 A 
ENDBRANCH   3  10
BRANCH   1  16
ATOM     16  C   UNL     1      -3.150  10.120  17.977  0.00  0.00    +0.000 C 
BRANCH  16  19
ATOM     17  C   UNL     1      -5.164  11.467  17.768  0.00  0.00    +0.000 C 
ATOM     18  O   UNL     1      -5.432  11.180  18.936  0.00  0.00    +0.000 OA
ATOM     19  N   UNL     1      -4.034  10.954  17.128  0.00  0.00    +0.000 N 
BRANCH  17  21
ATOM     20  C   UNL     1      -7.326  12.815  17.723  0.00  0.00    +0.000 C 
ATOM     21  C   UNL     1      -6.067  12.404  16.968  0.00  0.00    +0.000 C 
ENDBRANCH  17  21
BRANCH  19  22
ATOM     22  C   UNL     1      -3.698  11.214  15.723  0.00  0.00    +0.000 C 
ATOM     23  C   UNL     1      -3.044  10.040  15.009  0.00  0.00    +0.000 C 
ENDBRANCH  19  22
ENDBRANCH  16  19
ENDBRANCH   1  16
BRANCH   7  24
ATOM     24  C   UNL     1       1.777   8.726  19.444  0.00  0.00    +0.000 C 
BRANCH  24  25
ATOM     25  C   UNL     1       2.179   7.275  19.448  0.00  0.00    +0.000 A 
ATOM     26  C   UNL     1       1.706   6.401  20.435  0.00  0.00    +0.000 A 
ATOM     27  C   UNL     1       2.087   5.065  20.410  0.00  0.00    +0.000 A 
ATOM     28  F   UNL     1       1.634   4.234  21.357  0.00  0.00    +0.000 F 
ATOM     29  C   UNL     1       2.930   4.574  19.415  0.00  0.00    +0.000 A 
ATOM     30  C   UNL     1       3.398   5.435  18.424  0.00  0.00    +0.000 A 
ATOM     31  C   UNL     1       3.019   6.775  18.447  0.00  0.00    +0.000 A 
ATOM     32  F   UNL     1       3.471   7.586  17.481  0.00  0.00    +0.000 F 
ENDBRANCH  24  25
ENDBRANCH   7  24
TORSDOF 7
ENDMDL
MODEL 9
REMARK VINA RESULT:      -6.8      5.316      9.811
REMARK  Name = 
REMARK  9 active torsions:
REMARK  status: ('A' for Active; 'I' for Inactive)
REMARK    1  A    between atoms: C_1  and  C_2
REMARK    2  A    between atoms: C_2  and  C_3
REMARK    3  A    between atoms: N_5  and  C_6
REMARK    4  A    between atoms: N_5  and  C_8
REMARK    5  A    between atoms: C_6  and  C_7
REMARK    6  A    between atoms: C_8  and  C_9
REMARK    7  A    between atoms: N_11  and  C_12
REMARK    8  A    between atoms: N_21  and  C_22
REMARK    9  A    between atoms: C_22  and  C_23
REMARK                            x       y       z     vdW  Elec       q    Type
REMARK                         _______ _______ _______ _____ _____    ______ ____
ROOT
ATOM      1  C   UNL     1      -0.306  12.105  21.713  0.00  0.00    +0.000 A 
ATOM      2  N   UNL     1       0.463  13.204  21.771  0.00  0.00    +0.000 NA
ATOM      3  N   UNL     1       1.394  13.061  20.787  0.00  0.00    +0.000 N 
ATOM      4  C   UNL     1       1.159  11.909  20.070  0.00  0.00    +0.000 A 
ATOM      5  C   UNL     1       0.139  11.225  20.701  0.00  0.00    +0.000 A 
ATOM      6  C   UNL     1      -0.372   9.901  20.233  0.00  0.00    +0.000 C 
ATOM      7  N   UNL     1       0.577   9.268  19.271  0.00  0.00    +0.000 NA
ATOM      8  C   UNL     1       0.981  10.260  18.237  0.00  0.00    +0.000 C 
ATOM      9  C   UNL     1       1.792  11.452  18.802  0.00  0.00    +0.000 C 
ENDROOT
BRANCH   3  10
ATOM     10  C   UNL     1       2.379  14.062  20.554  0.00  0.00    +0.000 A 
ATOM     11  C   UNL     1       3.578  14.092  21.280  0.00  0.00    +0.000 A 
ATOM     12  C   UNL     1       4.590  14.992  20.949  0.00  0.00    +0.000 A 
ATOM     13  C   UNL     1       4.402  15.894  19.909  0.00  0.00    +0.000 A 
ATOM     14  C   UNL     1       3.185  15.924  19.230  0.00  0.00    +0.000 A 
ATOM     15  C   UNL     1       2.167  15.023  19.558  0.00  0.00    +0.000 A 
ENDBRANCH   3  10
BRANCH   1  16
ATOM     16  C   UNL     1      -1.480  11.939  22.645  0.00  0.00    +0.000 C 
BRANCH  16  19
ATOM     17  C   UNL     1      -3.787  12.517  23.152  0.00  0.00    +0.000 C 
ATOM     18  O   UNL     1      -3.673  11.886  24.205  0.00  0.00    +0.000 OA
ATOM     19  N   UNL     1      -2.743  12.593  22.228  0.00  0.00    +0.000 N 
BRANCH  17  21
ATOM     20  C   UNL     1      -5.260  14.552  23.584  0.00  0.00    +0.000 C 
ATOM     21  C   UNL     1      -5.086  13.246  22.816  0.00  0.00    +0.000 C 
ENDBRANCH  17  21
BRANCH  19  22
ATOM     22  C   UNL     1      -2.843  13.280  20.934  0.00  0.00    +0.000 C 
ATOM     23  C   UNL     1      -3.295  12.388  19.787  0.00  0.00    +0.000 C 
ENDBRANCH  19  22
ENDBRANCH  16  19
ENDBRANCH   1  16
BRANCH   7  24
ATOM     24  C   UNL     1       1.779   8.714  19.934  0.00  0.00    +0.000 C 
BRANCH  24  25
ATOM     25  C   UNL     1       1.992   7.246  19.679  0.00  0.00    +0.000 A 
ATOM     26  C   UNL     1       1.568   6.286  20.607  0.00  0.00    +0.000 A 
ATOM     27  C   UNL     1       1.771   4.937  20.341  0.00  0.00    +0.000 A 
ATOM     28  F   UNL     1       1.365   4.024  21.232  0.00  0.00    +0.000 F 
ATOM     29  C   UNL     1       2.387   4.518  19.164  0.00  0.00    +0.000 A 
ATOM     30  C   UNL     1       2.804   5.467  18.231  0.00  0.00    +0.000 A 
ATOM     31  C   UNL     1       2.603   6.819  18.495  0.00  0.00    +0.000 A 
ATOM     32  F   UNL     1       3.003   7.716  17.583  0.00  0.00    +0.000 F 
ENDBRANCH  24  25
ENDBRANCH   7  24
TORSDOF 7
ENDMDL
