MODEL 1
REMARK VINA RESULT:      -8.3      0.000      0.000
REMARK  Name = 
REMARK  5 active torsions:
REMARK  status: ('A' for Active; 'I' for Inactive)
REMARK    1  A    between atoms: C_5  and  N_6
REMARK    2  A    between atoms: N_6  and  C_7
REMARK    3  A    between atoms: C_10  and  S_11
REMARK    4  A    between atoms: S_11  and  N_14
REMARK    5  A    between atoms: N_14  and  C_15
REMARK                            x       y       z     vdW  Elec       q    Type
REMARK                         _______ _______ _______ _____ _____    ______ ____
ROOT
ATOM      1  C   UNL     1       0.902  10.807  19.462  0.00  0.00    +0.000 A 
ATOM      2  C   UNL     1       0.877   9.724  20.355  0.00  0.00    +0.000 A 
ATOM      3  C   UNL     1       1.474   8.503  20.021  0.00  0.00    +0.000 A 
ATOM      4  C   UNL     1       2.091   8.347  18.778  0.00  0.00    +0.000 A 
ATOM      5  C   UNL     1       2.173   9.424  17.895  0.00  0.00    +0.000 A 
ATOM      6  C   UNL     1       1.564  10.641  18.235  0.00  0.00    +0.000 A 
ENDROOT
BRANCH   4   7
ATOM      7  S   UNL     1       2.817   6.778  18.360  0.00  0.00    +0.000 S 
ATOM      8  O   UNL     1       1.769   5.939  17.818  0.00  0.00    +0.000 OA
ATOM      9  O   UNL     1       4.040   7.027  17.624  0.00  0.00    +0.000 OA
BRANCH   7  10
ATOM     10  N   UNL     1       3.196   6.126  19.880  0.00  0.00    +0.000 N 
ATOM     11  H   UNL     1       2.922   6.801  20.599  0.00  0.00    +0.000 HD
BRANCH  10  12
ATOM     12  C   UNL     1       2.800   4.766  20.118  0.00  0.00    +0.000 A 
ATOM     13  C   UNL     1       1.618   4.522  20.812  0.00  0.00    +0.000 A 
ATOM     14  C   UNL     1       1.239   3.209  21.083  0.00  0.00    +0.000 A 
ATOM     15  C   UNL     1       2.058   2.178  20.647  0.00  0.00    +0.000 A 
ATOM     16  N   UNL     1       3.213   2.371  19.976  0.00  0.00    +0.000 NA
ATOM     17  C   UNL     1       3.566   3.658  19.743  0.00  0.00    +0.000 A 
ATOM     18 CL   UNL     1       5.039   3.817  18.868  0.00  0.00    +0.000 Cl
ENDBRANCH  10  12
ENDBRANCH   7  10
ENDBRANCH   4   7
BRANCH   1  19
ATOM     19  N   UNL     1       0.314  12.067  19.751  0.00  0.00    +0.000 N 
ATOM     20  H   UNL     1       0.606  12.768  19.067  0.00  0.00    +0.000 HD
BRANCH  19  25
ATOM     21  O   UNL     1      -4.433  12.223  19.036  0.00  0.00    +0.000 OA
ATOM     22  C   UNL     1      -3.472  12.301  19.802  0.00  0.00    +0.000 C 
ATOM     23  C   UNL     1      -2.074  12.183  19.336  0.00  0.00    +0.000 C 
ATOM     24 CL   UNL     1      -1.878  11.897  17.632  0.00  0.00    +0.000 Cl
ATOM     25  C   UNL     1      -1.014  12.230  20.162  0.00  0.00    +0.000 C 
ATOM     26  C   UNL     1      -1.257  12.389  21.642  0.00  0.00    +0.000 C 
ATOM     27  O   UNL     1      -0.321  12.376  22.434  0.00  0.00    +0.000 OA
ATOM     28  C   UNL     1      -2.649  12.584  22.122  0.00  0.00    +0.000 A 
ATOM     29  C   UNL     1      -2.910  12.810  23.483  0.00  0.00    +0.000 A 
ATOM     30  C   UNL     1      -4.224  12.994  23.932  0.00  0.00    +0.000 A 
ATOM     31  C   UNL     1      -5.286  12.949  23.030  0.00  0.00    +0.000 A 
ATOM     32  C   UNL     1      -5.029  12.725  21.681  0.00  0.00    +0.000 A 
ATOM     33  C   UNL     1      -3.711  12.548  21.226  0.00  0.00    +0.000 A 
ENDBRANCH  19  25
ENDBRANCH   1  19
TORSDOF 5
ENDMDL
MODEL 2
REMARK VINA RESULT:      -8.2      3.415      9.820
REMARK  Name = 
REMARK  5 active torsions:
REMARK  status: ('A' for Active; 'I' for Inactive)
REMARK    1  A    between atoms: C_5  and  N_6
REMARK    2  A    between atoms: N_6  and  C_7
REMARK    3  A    between atoms: C_10  and  S_11
REMARK    4  A    between atoms: S_11  and  N_14
REMARK    5  A    between atoms: N_14  and  C_15
REMARK                            x       y       z     vdW  Elec       q    Type
REMARK                         _______ _______ _______ _____ _____    ______ ____
ROOT
ATOM      1  C   UNL     1       2.283   7.519  19.696  0.00  0.00    +0.000 A 
ATOM      2  C   UNL     1       2.137   8.266  18.517  0.00  0.00    +0.000 A 
ATOM      3  C   UNL     1       1.280   9.371  18.466  0.00  0.00    +0.000 A 
ATOM      4  C   UNL     1       0.543   9.731  19.597  0.00  0.00    +0.000 A 
ATOM      5  C   UNL     1       0.709   9.035  20.794  0.00  0.00    +0.000 A 
ATOM      6  C   UNL     1       1.565   7.925  20.832  0.00  0.00    +0.000 A 
ENDROOT
BRANCH   4   7
ATOM      7  S   UNL     1      -0.565  11.120  19.504  0.00  0.00    +0.000 S 
ATOM      8  O   UNL     1      -0.624  11.724  20.817  0.00  0.00    +0.000 OA
ATOM      9  O   UNL     1      -0.218  11.897  18.331  0.00  0.00    +0.000 OA
BRANCH   7  10
ATOM     10  N   UNL     1      -2.072  10.379  19.264  0.00  0.00    +0.000 N 
ATOM     11  H   UNL     1      -2.680  10.617  20.052  0.00  0.00    +0.000 HD
BRANCH  10  12
ATOM     12  C   UNL     1      -2.661  10.516  17.961  0.00  0.00    +0.000 A 
ATOM     13  C   UNL     1      -2.081   9.846  16.887  0.00  0.00    +0.000 A 
ATOM     14  C   UNL     1      -2.618   9.999  15.610  0.00  0.00    +0.000 A 
ATOM     15  C   UNL     1      -3.725  10.819  15.450  0.00  0.00    +0.000 A 
ATOM     16  N   UNL     1      -4.313  11.490  16.462  0.00  0.00    +0.000 NA
ATOM     17  C   UNL     1      -3.759  11.337  17.688  0.00  0.00    +0.000 A 
ATOM     18 CL   UNL     1      -4.579  12.209  18.925  0.00  0.00    +0.000 Cl
ENDBRANCH  10  12
ENDBRANCH   7  10
ENDBRANCH   4   7
BRANCH   1  19
ATOM     19  N   UNL     1       3.140   6.391  19.802  0.00  0.00    +0.000 N 
ATOM     20  H   UNL     1       2.890   5.821  20.613  0.00  0.00    +0.000 HD
BRANCH  19  25
ATOM     21  O   UNL     1       2.654   2.874  16.568  0.00  0.00    +0.000 OA
ATOM     22  C   UNL     1       3.306   3.814  17.023  0.00  0.00    +0.000 C 
ATOM     23  C   UNL     1       2.876   4.573  18.216  0.00  0.00    +0.000 C 
ATOM     24 CL   UNL     1       1.368   4.066  18.919  0.00  0.00    +0.000 Cl
ATOM     25  C   UNL     1       3.556   5.624  18.707  0.00  0.00    +0.000 C 
ATOM     26  C   UNL     1       4.809   6.070  17.997  0.00  0.00    +0.000 C 
ATOM     27  O   UNL     1       5.424   7.060  18.376  0.00  0.00    +0.000 OA
ATOM     28  C   UNL     1       5.298   5.276  16.841  0.00  0.00    +0.000 A 
ATOM     29  C   UNL     1       6.501   5.613  16.199  0.00  0.00    +0.000 A 
ATOM     30  C   UNL     1       6.959   4.861  15.110  0.00  0.00    +0.000 A 
ATOM     31  C   UNL     1       6.221   3.772  14.651  0.00  0.00    +0.000 A 
ATOM     32  C   UNL     1       5.030   3.436  15.285  0.00  0.00    +0.000 A 
ATOM     33  C   UNL     1       4.571   4.183  16.383  0.00  0.00    +0.000 A 
ENDBRANCH  19  25
ENDBRANCH   1  19
TORSDOF 5
ENDMDL
MODEL 3
REMARK VINA RESULT:      -8.2      1.891      2.611
REMARK  Name = 
REMARK  5 active torsions:
REMARK  status: ('A' for Active; 'I' for Inactive)
REMARK    1  A    between atoms: C_5  and  N_6
REMARK    2  A    between atoms: N_6  and  C_7
REMARK    3  A    between atoms: C_10  and  S_11
REMARK    4  A    between atoms: S_11  and  N_14
REMARK    5  A    between atoms: N_14  and  C_15
REMARK                            x       y       z     vdW  Elec       q    Type
REMARK                         _______ _______ _______ _____ _____    ______ ____
ROOT
ATOM      1  C   UNL     1       0.873  10.173  20.184  0.00  0.00    +0.000 A 
ATOM      2  C   UNL     1       1.358   9.691  18.958  0.00  0.00    +0.000 A 
ATOM      3  C   UNL     1       1.792   8.367  18.826  0.00  0.00    +0.000 A 
ATOM      4  C   UNL     1       1.759   7.511  19.930  0.00  0.00    +0.000 A 
ATOM      5  C   UNL     1       1.234   7.953  21.145  0.00  0.00    +0.000 A 
ATOM      6  C   UNL     1       0.810   9.283  21.269  0.00  0.00    +0.000 A 
ENDROOT
BRANCH   4   7
ATOM      7  S   UNL     1       2.343   5.841  19.750  0.00  0.00    +0.000 S 
ATOM      8  O   UNL     1       2.209   5.188  21.034  0.00  0.00    +0.000 OA
ATOM      9  O   UNL     1       1.748   5.280  18.554  0.00  0.00    +0.000 OA
BRANCH   7  10
ATOM     10  N   UNL     1       4.009   6.052  19.506  0.00  0.00    +0.000 N 
ATOM     11  H   UNL     1       4.505   5.679  20.320  0.00  0.00    +0.000 HD
BRANCH  10  12
ATOM     12  C   UNL     1       4.530   5.661  18.226  0.00  0.00    +0.000 A 
ATOM     13  C   UNL     1       4.715   6.636  17.249  0.00  0.00    +0.000 A 
ATOM     14  C   UNL     1       5.185   6.267  15.990  0.00  0.00    +0.000 A 
ATOM     15  C   UNL     1       5.458   4.928  15.750  0.00  0.00    +0.000 A 
ATOM     16  N   UNL     1       5.288   3.952  16.666  0.00  0.00    +0.000 NA
ATOM     17  C   UNL     1       4.813   4.338  17.874  0.00  0.00    +0.000 A 
ATOM     18 CL   UNL     1       4.643   3.039  18.990  0.00  0.00    +0.000 Cl
ENDBRANCH  10  12
ENDBRANCH   7  10
ENDBRANCH   4   7
BRANCH   1  19
ATOM     19  N   UNL     1       0.419  11.505  20.372  0.00  0.00    +0.000 N 
ATOM     20  H   UNL     1       0.869  12.138  19.706  0.00  0.00    +0.000 HD
BRANCH  19  25
ATOM     21  O   UNL     1      -4.134  12.351  19.098  0.00  0.00    +0.000 OA
ATOM     22  C   UNL     1      -3.275  12.273  19.977  0.00  0.00    +0.000 C 
ATOM     23  C   UNL     1      -1.860  11.970  19.678  0.00  0.00    +0.000 C 
ATOM     24 CL   UNL     1      -1.493  11.702  17.999  0.00  0.00    +0.000 Cl
ATOM     25  C   UNL     1      -0.915  11.845  20.626  0.00  0.00    +0.000 C 
ATOM     26  C   UNL     1      -1.316  11.999  22.072  0.00  0.00    +0.000 C 
ATOM     27  O   UNL     1      -0.498  11.833  22.969  0.00  0.00    +0.000 OA
ATOM     28  C   UNL     1      -2.717  12.377  22.388  0.00  0.00    +0.000 A 
ATOM     29  C   UNL     1      -3.113  12.605  23.717  0.00  0.00    +0.000 A 
ATOM     30  C   UNL     1      -4.435  12.961  24.012  0.00  0.00    +0.000 A 
ATOM     31  C   UNL     1      -5.371  13.091  22.988  0.00  0.00    +0.000 A 
ATOM     32  C   UNL     1      -4.981  12.867  21.671  0.00  0.00    +0.000 A 
ATOM     33  C   UNL     1      -3.654  12.515  21.371  0.00  0.00    +0.000 A 
ENDBRANCH  19  25
ENDBRANCH   1  19
TORSDOF 5
ENDMDL
MODEL 4
REMARK VINA RESULT:      -8.1      3.445      4.470
REMARK  Name = 
REMARK  5 active torsions:
REMARK  status: ('A' for Active; 'I' for Inactive)
REMARK    1  A    between atoms: C_5  and  N_6
REMARK    2  A    between atoms: N_6  and  C_7
REMARK    3  A    between atoms: C_10  and  S_11
REMARK    4  A    between atoms: S_11  and  N_14
REMARK    5  A    between atoms: N_14  and  C_15
REMARK                            x       y       z     vdW  Elec       q    Type
REMARK                         _______ _______ _______ _____ _____    ______ ____
ROOT
ATOM      1  C   UNL     1       2.241   7.843  18.471  0.00  0.00    +0.000 A 
ATOM      2  C   UNL     1       2.485   6.994  19.561  0.00  0.00    +0.000 A 
ATOM      3  C   UNL     1       3.567   6.106  19.554  0.00  0.00    +0.000 A 
ATOM      4  C   UNL     1       4.410   6.047  18.441  0.00  0.00    +0.000 A 
ATOM      5  C   UNL     1       4.217   6.917  17.368  0.00  0.00    +0.000 A 
ATOM      6  C   UNL     1       3.126   7.796  17.382  0.00  0.00    +0.000 A 
ENDROOT
BRANCH   4   7
ATOM      7  S   UNL     1       5.761   4.890  18.437  0.00  0.00    +0.000 S 
ATOM      8  O   UNL     1       6.709   5.325  17.434  0.00  0.00    +0.000 OA
ATOM      9  O   UNL     1       6.166   4.663  19.809  0.00  0.00    +0.000 OA
BRANCH   7  10
ATOM     10  N   UNL     1       5.044   3.482  17.820  0.00  0.00    +0.000 N 
ATOM     11  H   UNL     1       5.707   2.709  17.924  0.00  0.00    +0.000 HD
BRANCH  10  12
ATOM     12  C   UNL     1       3.697   3.206  18.236  0.00  0.00    +0.000 A 
ATOM     13  C   UNL     1       2.644   3.636  17.433  0.00  0.00    +0.000 A 
ATOM     14  C   UNL     1       1.331   3.409  17.841  0.00  0.00    +0.000 A 
ATOM     15  C   UNL     1       1.114   2.753  19.044  0.00  0.00    +0.000 A 
ATOM     16  N   UNL     1       2.105   2.325  19.853  0.00  0.00    +0.000 NA
ATOM     17  C   UNL     1       3.370   2.575  19.441  0.00  0.00    +0.000 A 
ATOM     18 CL   UNL     1       4.573   1.981  20.518  0.00  0.00    +0.000 Cl
ENDBRANCH  10  12
ENDBRANCH   7  10
ENDBRANCH   4   7
BRANCH   1  19
ATOM     19  N   UNL     1       1.160   8.763  18.429  0.00  0.00    +0.000 N 
ATOM     20  H   UNL     1       0.264   8.271  18.457  0.00  0.00    +0.000 HD
BRANCH  19  25
ATOM     21  O   UNL     1       0.156  11.512  22.238  0.00  0.00    +0.000 OA
ATOM     22  C   UNL     1       0.632  11.397  21.108  0.00  0.00    +0.000 C 
ATOM     23  C   UNL     1       0.592  10.125  20.356  0.00  0.00    +0.000 C 
ATOM     24 CL   UNL     1      -0.148   8.789  21.188  0.00  0.00    +0.000 Cl
ATOM     25  C   UNL     1       1.137   9.971  19.137  0.00  0.00    +0.000 C 
ATOM     26  C   UNL     1       1.845  11.144  18.507  0.00  0.00    +0.000 C 
ATOM     27  O   UNL     1       2.407  11.028  17.424  0.00  0.00    +0.000 OA
ATOM     28  C   UNL     1       1.831  12.451  19.213  0.00  0.00    +0.000 A 
ATOM     29  C   UNL     1       2.414  13.587  18.627  0.00  0.00    +0.000 A 
ATOM     30  C   UNL     1       2.398  14.817  19.296  0.00  0.00    +0.000 A 
ATOM     31  C   UNL     1       1.807  14.924  20.553  0.00  0.00    +0.000 A 
ATOM     32  C   UNL     1       1.229  13.801  21.135  0.00  0.00    +0.000 A 
ATOM     33  C   UNL     1       1.236  12.566  20.464  0.00  0.00    +0.000 A 
ENDBRANCH  19  25
ENDBRANCH   1  19
TORSDOF 5
ENDMDL
MODEL 5
REMARK VINA RESULT:      -8.1      2.660      3.854
REMARK  Name = 
REMARK  5 active torsions:
REMARK  status: ('A' for Active; 'I' for Inactive)
REMARK    1  A    between atoms: C_5  and  N_6
REMARK    2  A    between atoms: N_6  and  C_7
REMARK    3  A    between atoms: C_10  and  S_11
REMARK    4  A    between atoms: S_11  and  N_14
REMARK    5  A    between atoms: N_14  and  C_15
REMARK                            x       y       z     vdW  Elec       q    Type
REMARK                         _______ _______ _______ _____ _____    ______ ____
ROOT
ATOM      1  C   UNL     1       1.527   9.465  18.647  0.00  0.00    +0.000 A 
ATOM      2  C   UNL     1       2.126   8.691  17.641  0.00  0.00    +0.000 A 
ATOM      3  C   UNL     1       2.573   7.391  17.902  0.00  0.00    +0.000 A 
ATOM      4  C   UNL     1       2.439   6.855  19.185  0.00  0.00    +0.000 A 
ATOM      5  C   UNL     1       1.801   7.586  20.188  0.00  0.00    +0.000 A 
ATOM      6  C   UNL     1       1.365   8.890  19.918  0.00  0.00    +0.000 A 
ENDROOT
BRANCH   4   7
ATOM      7  S   UNL     1       3.041   5.212  19.506  0.00  0.00    +0.000 S 
ATOM      8  O   UNL     1       2.688   4.873  20.867  0.00  0.00    +0.000 OA
ATOM      9  O   UNL     1       2.657   4.365  18.395  0.00  0.00    +0.000 OA
BRANCH   7  10
ATOM     10  N   UNL     1       4.724   5.423  19.498  0.00  0.00    +0.000 N 
ATOM     11  H   UNL     1       5.104   5.027  20.362  0.00  0.00    +0.000 HD
BRANCH  10  12
ATOM     12  C   UNL     1       5.416   5.064  18.292  0.00  0.00    +0.000 A 
ATOM     13  C   UNL     1       4.681   4.568  17.218  0.00  0.00    +0.000 A 
ATOM     14  C   UNL     1       5.342   4.180  16.054  0.00  0.00    +0.000 A 
ATOM     15  C   UNL     1       6.723   4.306  16.002  0.00  0.00    +0.000 A 
ATOM     16  N   UNL     1       7.472   4.777  17.021  0.00  0.00    +0.000 NA
ATOM     17  C   UNL     1       6.805   5.129  18.146  0.00  0.00    +0.000 A 
ATOM     18 CL   UNL     1       7.828   5.737  19.388  0.00  0.00    +0.000 Cl
ENDBRANCH  10  12
ENDBRANCH   7  10
ENDBRANCH   4   7
BRANCH   1  19
ATOM     19  N   UNL     1       1.056  10.788  18.435  0.00  0.00    +0.000 N 
ATOM     20  H   UNL     1       1.341  11.131  17.515  0.00  0.00    +0.000 HD
BRANCH  19  25
ATOM     21  O   UNL     1      -2.012  13.511  20.933  0.00  0.00    +0.000 OA
ATOM     22  C   UNL     1      -1.814  12.642  20.084  0.00  0.00    +0.000 C 
ATOM     23  C   UNL     1      -0.460  12.151  19.752  0.00  0.00    +0.000 C 
ATOM     24 CL   UNL     1       0.842  12.907  20.623  0.00  0.00    +0.000 Cl
ATOM     25  C   UNL     1      -0.221  11.228  18.804  0.00  0.00    +0.000 C 
ATOM     26  C   UNL     1      -1.386  10.677  18.021  0.00  0.00    +0.000 C 
ATOM     27  O   UNL     1      -1.205   9.880  17.108  0.00  0.00    +0.000 OA
ATOM     28  C   UNL     1      -2.760  11.102  18.390  0.00  0.00    +0.000 A 
ATOM     29  C   UNL     1      -3.877  10.556  17.736  0.00  0.00    +0.000 A 
ATOM     30  C   UNL     1      -5.172  10.958  18.087  0.00  0.00    +0.000 A 
ATOM     31  C   UNL     1      -5.363  11.909  19.088  0.00  0.00    +0.000 A 
ATOM     32  C   UNL     1      -4.259  12.451  19.737  0.00  0.00    +0.000 A 
ATOM     33  C   UNL     1      -2.959  12.044  19.392  0.00  0.00    +0.000 A 
ENDBRANCH  19  25
ENDBRANCH   1  19
TORSDOF 5
ENDMDL
MODEL 6
REMARK VINA RESULT:      -8.1      3.395      4.456
REMARK  Name = 
REMARK  5 active torsions:
REMARK  status: ('A' for Active; 'I' for Inactive)
REMARK    1  A    between atoms: C_5  and  N_6
REMARK    2  A    between atoms: N_6  and  C_7
REMARK    3  A    between atoms: C_10  and  S_11
REMARK    4  A    between atoms: S_11  and  N_14
REMARK    5  A    between atoms: N_14  and  C_15
REMARK                            x       y       z     vdW  Elec       q    Type
REMARK                         _______ _______ _______ _____ _____    ______ ____
ROOT
ATOM      1  C   UNL     1       2.166   8.029  18.380  0.00  0.00    +0.000 A 
ATOM      2  C   UNL     1       2.342   7.257  19.538  0.00  0.00    +0.000 A 
ATOM      3  C   UNL     1       3.327   6.263  19.598  0.00  0.00    +0.000 A 
ATOM      4  C   UNL     1       4.138   6.021  18.487  0.00  0.00    +0.000 A 
ATOM      5  C   UNL     1       4.016   6.810  17.343  0.00  0.00    +0.000 A 
ATOM      6  C   UNL     1       3.021   7.796  17.290  0.00  0.00    +0.000 A 
ENDROOT
BRANCH   4   7
ATOM      7  S   UNL     1       5.363   4.734  18.572  0.00  0.00    +0.000 S 
ATOM      8  O   UNL     1       6.169   4.814  17.373  0.00  0.00    +0.000 OA
ATOM      9  O   UNL     1       5.966   4.770  19.889  0.00  0.00    +0.000 OA
BRANCH   7  10
ATOM     10  N   UNL     1       4.433   3.324  18.416  0.00  0.00    +0.000 N 
ATOM     11  H   UNL     1       5.068   2.524  18.339  0.00  0.00    +0.000 HD
BRANCH  10  12
ATOM     12  C   UNL     1       3.339   3.165  19.333  0.00  0.00    +0.000 A 
ATOM     13  C   UNL     1       3.605   2.716  20.624  0.00  0.00    +0.000 A 
ATOM     14  C   UNL     1       2.551   2.521  21.515  0.00  0.00    +0.000 A 
ATOM     15  C   UNL     1       1.260   2.785  21.082  0.00  0.00    +0.000 A 
ATOM     16  N   UNL     1       0.959   3.216  19.839  0.00  0.00    +0.000 NA
ATOM     17  C   UNL     1       2.001   3.379  18.990  0.00  0.00    +0.000 A 
ATOM     18 CL   UNL     1       1.535   3.947  17.434  0.00  0.00    +0.000 Cl
ENDBRANCH  10  12
ENDBRANCH   7  10
ENDBRANCH   4   7
BRANCH   1  19
ATOM     19  N   UNL     1       1.185   9.050  18.266  0.00  0.00    +0.000 N 
ATOM     20  H   UNL     1       0.248   8.646  18.201  0.00  0.00    +0.000 HD
BRANCH  19  25
ATOM     21  O   UNL     1       0.204  11.770  22.101  0.00  0.00    +0.000 OA
ATOM     22  C   UNL     1       0.718  11.650  20.989  0.00  0.00    +0.000 C 
ATOM     23  C   UNL     1       0.627  10.401  20.204  0.00  0.00    +0.000 C 
ATOM     24 CL   UNL     1      -0.231   9.098  20.971  0.00  0.00    +0.000 Cl
ATOM     25  C   UNL     1       1.211  10.240  19.003  0.00  0.00    +0.000 C 
ATOM     26  C   UNL     1       2.018  11.379  18.432  0.00  0.00    +0.000 C 
ATOM     27  O   UNL     1       2.616  11.250  17.370  0.00  0.00    +0.000 OA
ATOM     28  C   UNL     1       2.060  12.666  19.171  0.00  0.00    +0.000 A 
ATOM     29  C   UNL     1       2.738  13.775  18.637  0.00  0.00    +0.000 A 
ATOM     30  C   UNL     1       2.774  14.988  19.336  0.00  0.00    +0.000 A 
ATOM     31  C   UNL     1       2.140  15.105  20.571  0.00  0.00    +0.000 A 
ATOM     32  C   UNL     1       1.467  14.008  21.101  0.00  0.00    +0.000 A 
ATOM     33  C   UNL     1       1.422  12.792  20.400  0.00  0.00    +0.000 A 
ENDBRANCH  19  25
ENDBRANCH   1  19
TORSDOF 5
ENDMDL
MODEL 7
REMARK VINA RESULT:      -8.1      2.573      3.629
REMARK  Name = 
REMARK  5 active torsions:
REMARK  status: ('A' for Active; 'I' for Inactive)
REMARK    1  A    between atoms: C_5  and  N_6
REMARK    2  A    between atoms: N_6  and  C_7
REMARK    3  A    between atoms: C_10  and  S_11
REMARK    4  A    between atoms: S_11  and  N_14
REMARK    5  A    between atoms: N_14  and  C_15
REMARK                            x       y       z     vdW  Elec       q    Type
REMARK                         _______ _______ _______ _____ _____    ______ ____
ROOT
ATOM      1  C   UNL     1       1.028  10.027  19.227  0.00  0.00    +0.000 A 
ATOM      2  C   UNL     1       0.972   9.274  20.410  0.00  0.00    +0.000 A 
ATOM      3  C   UNL     1       1.523   7.989  20.473  0.00  0.00    +0.000 A 
ATOM      4  C   UNL     1       2.124   7.434  19.340  0.00  0.00    +0.000 A 
ATOM      5  C   UNL     1       2.236   8.183  18.168  0.00  0.00    +0.000 A 
ATOM      6  C   UNL     1       1.674   9.466  18.114  0.00  0.00    +0.000 A 
ENDROOT
BRANCH   4   7
ATOM      7  S   UNL     1       2.791   5.788  19.430  0.00  0.00    +0.000 S 
ATOM      8  O   UNL     1       4.200   5.901  19.739  0.00  0.00    +0.000 OA
ATOM      9  O   UNL     1       1.902   4.984  20.245  0.00  0.00    +0.000 OA
BRANCH   7  10
ATOM     10  N   UNL     1       2.707   5.264  17.819  0.00  0.00    +0.000 N 
ATOM     11  H   UNL     1       2.070   5.882  17.309  0.00  0.00    +0.000 HD
BRANCH  10  12
ATOM     12  C   UNL     1       3.955   4.981  17.165  0.00  0.00    +0.000 A 
ATOM     13  C   UNL     1       4.665   6.031  16.588  0.00  0.00    +0.000 A 
ATOM     14  C   UNL     1       5.858   5.767  15.918  0.00  0.00    +0.000 A 
ATOM     15  C   UNL     1       6.304   4.456  15.849  0.00  0.00    +0.000 A 
ATOM     16  N   UNL     1       5.645   3.410  16.389  0.00  0.00    +0.000 NA
ATOM     17  C   UNL     1       4.479   3.693  17.018  0.00  0.00    +0.000 A 
ATOM     18 CL   UNL     1       3.712   2.310  17.694  0.00  0.00    +0.000 Cl
ENDBRANCH  10  12
ENDBRANCH   7  10
ENDBRANCH   4   7
BRANCH   1  19
ATOM     19  N   UNL     1       0.487  11.335  19.111  0.00  0.00    +0.000 N 
ATOM     20  H   UNL     1       0.845  11.802  18.275  0.00  0.00    +0.000 HD
BRANCH  19  25
ATOM     21  O   UNL     1      -3.054  13.254  21.728  0.00  0.00    +0.000 OA
ATOM     22  C   UNL     1      -2.687  12.651  20.719  0.00  0.00    +0.000 C 
ATOM     23  C   UNL     1      -1.276  12.277  20.488  0.00  0.00    +0.000 C 
ATOM     24 CL   UNL     1      -0.160  12.773  21.726  0.00  0.00    +0.000 Cl
ATOM     25  C   UNL     1      -0.851  11.650  19.377  0.00  0.00    +0.000 C 
ATOM     26  C   UNL     1      -1.855  11.328  18.299  0.00  0.00    +0.000 C 
ATOM     27  O   UNL     1      -1.499  10.812  17.246  0.00  0.00    +0.000 OA
ATOM     28  C   UNL     1      -3.289  11.629  18.544  0.00  0.00    +0.000 A 
ATOM     29  C   UNL     1      -4.265  11.277  17.598  0.00  0.00    +0.000 A 
ATOM     30  C   UNL     1      -5.616  11.561  17.833  0.00  0.00    +0.000 A 
ATOM     31  C   UNL     1      -6.004  12.201  19.008  0.00  0.00    +0.000 A 
ATOM     32  C   UNL     1      -5.038  12.550  19.948  0.00  0.00    +0.000 A 
ATOM     33  C   UNL     1      -3.683  12.260  19.718  0.00  0.00    +0.000 A 
ENDBRANCH  19  25
ENDBRANCH   1  19
TORSDOF 5
ENDMDL
MODEL 8
REMARK VINA RESULT:      -8.1      2.238      2.834
REMARK  Name = 
REMARK  5 active torsions:
REMARK  status: ('A' for Active; 'I' for Inactive)
REMARK    1  A    between atoms: C_5  and  N_6
REMARK    2  A    between atoms: N_6  and  C_7
REMARK    3  A    between atoms: C_10  and  S_11
REMARK    4  A    between atoms: S_11  and  N_14
REMARK    5  A    between atoms: N_14  and  C_15
REMARK                            x       y       z     vdW  Elec       q    Type
REMARK                         _______ _______ _______ _____ _____    ______ ____
ROOT
ATOM      1  C   UNL     1       1.022  10.057  18.865  0.00  0.00    +0.000 A 
ATOM      2  C   UNL     1       0.969   9.395  20.102  0.00  0.00    +0.000 A 
ATOM      3  C   UNL     1       1.537   8.127  20.265  0.00  0.00    +0.000 A 
ATOM      4  C   UNL     1       2.154   7.497  19.181  0.00  0.00    +0.000 A 
ATOM      5  C   UNL     1       2.264   8.156  17.956  0.00  0.00    +0.000 A 
ATOM      6  C   UNL     1       1.684   9.422  17.801  0.00  0.00    +0.000 A 
ENDROOT
BRANCH   4   7
ATOM      7  S   UNL     1       2.843   5.872  19.400  0.00  0.00    +0.000 S 
ATOM      8  O   UNL     1       4.257   6.026  19.664  0.00  0.00    +0.000 OA
ATOM      9  O   UNL     1       1.984   5.134  20.303  0.00  0.00    +0.000 OA
BRANCH   7  10
ATOM     10  N   UNL     1       2.730   5.206  17.844  0.00  0.00    +0.000 N 
ATOM     11  H   UNL     1       2.038   5.742  17.312  0.00  0.00    +0.000 HD
BRANCH  10  12
ATOM     12  C   UNL     1       3.966   4.936  17.164  0.00  0.00    +0.000 A 
ATOM     13  C   UNL     1       4.648   5.993  16.567  0.00  0.00    +0.000 A 
ATOM     14  C   UNL     1       5.830   5.742  15.871  0.00  0.00    +0.000 A 
ATOM     15  C   UNL     1       6.292   4.436  15.798  0.00  0.00    +0.000 A 
ATOM     16  N   UNL     1       5.659   3.384  16.357  0.00  0.00    +0.000 NA
ATOM     17  C   UNL     1       4.504   3.655  17.011  0.00  0.00    +0.000 A 
ATOM     18 CL   UNL     1       3.770   2.265  17.711  0.00  0.00    +0.000 Cl
ENDBRANCH  10  12
ENDBRANCH   7  10
ENDBRANCH   4   7
BRANCH   1  19
ATOM     19  N   UNL     1       0.463  11.344  18.646  0.00  0.00    +0.000 N 
ATOM     20  H   UNL     1       0.755  11.716  17.740  0.00  0.00    +0.000 HD
BRANCH  19  25
ATOM     21  O   UNL     1      -4.305  11.149  18.107  0.00  0.00    +0.000 OA
ATOM     22  C   UNL     1      -3.322  11.582  18.709  0.00  0.00    +0.000 C 
ATOM     23  C   UNL     1      -1.939  11.253  18.308  0.00  0.00    +0.000 C 
ATOM     24 CL   UNL     1      -1.791  10.186  16.943  0.00  0.00    +0.000 Cl
ATOM     25  C   UNL     1      -0.854  11.687  18.974  0.00  0.00    +0.000 C 
ATOM     26  C   UNL     1      -1.052  12.535  20.205  0.00  0.00    +0.000 C 
ATOM     27  O   UNL     1      -0.092  12.900  20.875  0.00  0.00    +0.000 OA
ATOM     28  C   UNL     1      -2.431  12.938  20.581  0.00  0.00    +0.000 A 
ATOM     29  C   UNL     1      -2.654  13.789  21.677  0.00  0.00    +0.000 A 
ATOM     30  C   UNL     1      -3.955  14.168  22.028  0.00  0.00    +0.000 A 
ATOM     31  C   UNL     1      -5.044  13.700  21.294  0.00  0.00    +0.000 A 
ATOM     32  C   UNL     1      -4.826  12.858  20.208  0.00  0.00    +0.000 A 
ATOM     33  C   UNL     1      -3.521  12.481  19.849  0.00  0.00    +0.000 A 
ENDBRANCH  19  25
ENDBRANCH   1  19
TORSDOF 5
ENDMDL
MODEL 9
REMARK VINA RESULT:      -8.0      1.578      2.482
REMARK  Name = 
REMARK  5 active torsions:
REMARK  status: ('A' for Active; 'I' for Inactive)
REMARK    1  A    between atoms: C_5  and  N_6
REMARK    2  A    between atoms: N_6  and  C_7
REMARK    3  A    between atoms: C_10  and  S_11
REMARK    4  A    between atoms: S_11  and  N_14
REMARK    5  A    between atoms: N_14  and  C_15
REMARK                            x       y       z     vdW  Elec       q    Type
REMARK                         _______ _______ _______ _____ _____    ______ ____
ROOT
ATOM      1  C   UNL     1       0.636  10.745  19.317  0.00  0.00    +0.000 A 
ATOM      2  C   UNL     1       0.708   9.714  20.266  0.00  0.00    +0.000 A 
ATOM      3  C   UNL     1       1.397   8.527  19.989  0.00  0.00    +0.000 A 
ATOM      4  C   UNL     1       2.011   8.353  18.746  0.00  0.00    +0.000 A 
ATOM      5  C   UNL     1       1.996   9.384  17.806  0.00  0.00    +0.000 A 
ATOM      6  C   UNL     1       1.296  10.565  18.090  0.00  0.00    +0.000 A 
ENDROOT
BRANCH   4   7
ATOM      7  S   UNL     1       2.855   6.826  18.402  0.00  0.00    +0.000 S 
ATOM      8  O   UNL     1       1.913   5.939  17.756  0.00  0.00    +0.000 OA
ATOM      9  O   UNL     1       4.132   7.143  17.794  0.00  0.00    +0.000 OA
BRANCH   7  10
ATOM     10  N   UNL     1       3.113   6.185  19.951  0.00  0.00    +0.000 N 
ATOM     11  H   UNL     1       2.737   6.842  20.640  0.00  0.00    +0.000 HD
BRANCH  10  12
ATOM     12  C   UNL     1       2.759   4.807  20.148  0.00  0.00    +0.000 A 
ATOM     13  C   UNL     1       1.554   4.506  20.778  0.00  0.00    +0.000 A 
ATOM     14  C   UNL     1       1.214   3.174  21.009  0.00  0.00    +0.000 A 
ATOM     15  C   UNL     1       2.094   2.184  20.600  0.00  0.00    +0.000 A 
ATOM     16  N   UNL     1       3.273   2.433  19.992  0.00  0.00    +0.000 NA
ATOM     17  C   UNL     1       3.586   3.736  19.796  0.00  0.00    +0.000 A 
ATOM     18 CL   UNL     1       5.093   3.967  18.999  0.00  0.00    +0.000 Cl
ENDBRANCH  10  12
ENDBRANCH   7  10
ENDBRANCH   4   7
BRANCH   1  19
ATOM     19  N   UNL     1      -0.048  11.968  19.547  0.00  0.00    +0.000 N 
ATOM     20  H   UNL     1       0.291  12.697  18.915  0.00  0.00    +0.000 HD
BRANCH  19  25
ATOM     21  O   UNL     1      -3.901  12.809  22.288  0.00  0.00    +0.000 OA
ATOM     22  C   UNL     1      -3.422  12.502  21.196  0.00  0.00    +0.000 C 
ATOM     23  C   UNL     1      -1.968  12.357  20.980  0.00  0.00    +0.000 C 
ATOM     24 CL   UNL     1      -0.972  12.679  22.369  0.00  0.00    +0.000 Cl
ATOM     25  C   UNL     1      -1.424  12.057  19.788  0.00  0.00    +0.000 C 
ATOM     26  C   UNL     1      -2.338  11.879  18.600  0.00  0.00    +0.000 C 
ATOM     27  O   UNL     1      -1.879  11.665  17.484  0.00  0.00    +0.000 OA
ATOM     28  C   UNL     1      -3.806  11.948  18.812  0.00  0.00    +0.000 A 
ATOM     29  C   UNL     1      -4.693  11.713  17.748  0.00  0.00    +0.000 A 
ATOM     30  C   UNL     1      -6.078  11.778  17.951  0.00  0.00    +0.000 A 
ATOM     31  C   UNL     1      -6.588  12.080  19.213  0.00  0.00    +0.000 A 
ATOM     32  C   UNL     1      -5.711  12.311  20.268  0.00  0.00    +0.000 A 
ATOM     33  C   UNL     1      -4.322  12.240  20.069  0.00  0.00    +0.000 A 
ENDBRANCH  19  25
ENDBRANCH   1  19
TORSDOF 5
ENDMDL
