MODEL 1
REMARK VINA RESULT:      -7.5      0.000      0.000
REMARK  Name = 
REMARK  11 active torsions:
REMARK  status: ('A' for Active; 'I' for Inactive)
REMARK    1  A    between atoms: C_1  and  C_2
REMARK    2  A    between atoms: C_4  and  N_5
REMARK    3  A    between atoms: C_6  and  C_8
REMARK    4  A    between atoms: C_8  and  N_9
REMARK    5  A    between atoms: N_9  and  C_10
REMARK    6  A    between atoms: C_10  and  C_11
REMARK    7  A    between atoms: C_18  and  C_20
REMARK    8  A    between atoms: C_20  and  C_21
REMARK    9  A    between atoms: C_20  and  C_22
REMARK   10  A    between atoms: C_23  and  C_24
REMARK   11  A    between atoms: C_27  and  C_28
REMARK                            x       y       z     vdW  Elec       q    Type
REMARK                         _______ _______ _______ _____ _____    ______ ____
ROOT
ATOM      1  N   UNL     1       1.055   9.616  17.820  0.00  0.00    +0.000 N 
ATOM      2  C   UNL     1       1.736   8.702  18.610  0.00  0.00    +0.000 C 
ATOM      3  O   UNL     1       1.462   8.449  19.784  0.00  0.00    +0.000 OA
ATOM      4  H   UNL     1       1.645  10.189  17.215  0.00  0.00    +0.000 HD
ENDROOT
BRANCH   1   8
ATOM      5  C   UNL     1      -3.769  11.498  17.705  0.00  0.00    +0.000 C 
ATOM      6  C   UNL     1      -2.402  11.124  18.184  0.00  0.00    +0.000 A 
ATOM      7  S   UNL     1      -1.579   9.808  17.476  0.00  0.00    +0.000 S 
ATOM      8  C   UNL     1      -0.125  10.228  18.244  0.00  0.00    +0.000 A 
ATOM      9  C   UNL     1      -0.277  11.264  19.153  0.00  0.00    +0.000 A 
ATOM     10  C   UNL     1      -1.652  11.753  19.171  0.00  0.00    +0.000 A 
ATOM     11  C   UNL     1      -2.220  12.879  19.986  0.00  0.00    +0.000 C 
BRANCH   9  12
ATOM     12  C   UNL     1       0.872  11.736  19.916  0.00  0.00    +0.000 C 
ATOM     13  N   UNL     1       1.014  11.286  21.195  0.00  0.00    +0.000 N 
ATOM     14  O   UNL     1       1.737  12.469  19.435  0.00  0.00    +0.000 OA
ATOM     15  H   UNL     1       0.542  10.449  21.504  0.00  0.00    +0.000 HD
ATOM     16  H   UNL     1       1.890  11.514  21.649  0.00  0.00    +0.000 HD
ENDBRANCH   9  12
ENDBRANCH   1   8
BRANCH   2  17
ATOM     17  C   UNL     1       3.048   8.162  17.989  0.00  0.00    +0.000 C 
BRANCH  17  18
ATOM     18  N   UNL     1       3.139   6.728  17.627  0.00  0.00    +0.000 N 
ATOM     19  C   UNL     1       4.405   6.170  17.445  0.00  0.00    +0.000 C 
ATOM     20  O   UNL     1       5.413   6.880  17.411  0.00  0.00    +0.000 OA
BRANCH  19  21
ATOM     21  C   UNL     1       4.533   4.643  17.268  0.00  0.00    +0.000 C 
ATOM     22  C   UNL     1       5.165   4.295  15.924  0.00  0.00    +0.000 C 
ATOM     23  C   UNL     1       5.370   4.033  18.398  0.00  0.00    +0.000 C 
ENDBRANCH  19  21
BRANCH  18  24
ATOM     24  C   UNL     1       1.923   5.933  17.797  0.00  0.00    +0.000 C 
BRANCH  24  25
ATOM     25  C   UNL     1       1.890   4.971  18.974  0.00  0.00    +0.000 A 
ATOM     26  C   UNL     1       2.339   5.282  20.268  0.00  0.00    +0.000 A 
ATOM     27  C   UNL     1       2.202   4.358  21.310  0.00  0.00    +0.000 A 
ATOM     28  C   UNL     1       1.626   3.118  21.064  0.00  0.00    +0.000 A 
ATOM     29  F   UNL     1       1.462   2.250  22.071  0.00  0.00    +0.000 F 
ATOM     30  C   UNL     1       1.211   2.770  19.788  0.00  0.00    +0.000 A 
ATOM     31  C   UNL     1       1.349   3.691  18.746  0.00  0.00    +0.000 A 
ENDBRANCH  24  25
ENDBRANCH  18  24
ENDBRANCH  17  18
ENDBRANCH   2  17
TORSDOF 7
ENDMDL
MODEL 2
REMARK VINA RESULT:      -7.4      1.966      2.636
REMARK  Name = 
REMARK  11 active torsions:
REMARK  status: ('A' for Active; 'I' for Inactive)
REMARK    1  A    between atoms: C_1  and  C_2
REMARK    2  A    between atoms: C_4  and  N_5
REMARK    3  A    between atoms: C_6  and  C_8
REMARK    4  A    between atoms: C_8  and  N_9
REMARK    5  A    between atoms: N_9  and  C_10
REMARK    6  A    between atoms: C_10  and  C_11
REMARK    7  A    between atoms: C_18  and  C_20
REMARK    8  A    between atoms: C_20  and  C_21
REMARK    9  A    between atoms: C_20  and  C_22
REMARK   10  A    between atoms: C_23  and  C_24
REMARK   11  A    between atoms: C_27  and  C_28
REMARK                            x       y       z     vdW  Elec       q    Type
REMARK                         _______ _______ _______ _____ _____    ______ ____
ROOT
ATOM      1  N   UNL     1       0.796   9.187  18.614  0.00  0.00    +0.000 N 
ATOM      2  C   UNL     1       2.048   9.405  18.060  0.00  0.00    +0.000 C 
ATOM      3  O   UNL     1       2.652  10.479  18.092  0.00  0.00    +0.000 OA
ATOM      4  H   UNL     1       0.169   8.608  18.053  0.00  0.00    +0.000 HD
ENDROOT
BRANCH   1   8
ATOM      5  C   UNL     1      -1.025  11.576  22.834  0.00  0.00    +0.000 C 
ATOM      6  C   UNL     1      -0.705  11.263  21.407  0.00  0.00    +0.000 A 
ATOM      7  S   UNL     1       0.658  10.310  21.026  0.00  0.00    +0.000 S 
ATOM      8  C   UNL     1       0.162  10.141  19.411  0.00  0.00    +0.000 A 
ATOM      9  C   UNL     1      -0.945  10.918  19.105  0.00  0.00    +0.000 A 
ATOM     10  C   UNL     1      -1.421  11.645  20.278  0.00  0.00    +0.000 A 
ATOM     11  C   UNL     1      -2.606  12.562  20.377  0.00  0.00    +0.000 C 
BRANCH   9  12
ATOM     12  C   UNL     1      -1.490  10.905  17.753  0.00  0.00    +0.000 C 
ATOM     13  N   UNL     1      -1.655  12.103  17.123  0.00  0.00    +0.000 N 
ATOM     14  O   UNL     1      -1.749   9.866  17.147  0.00  0.00    +0.000 OA
ATOM     15  H   UNL     1      -1.154  12.924  17.433  0.00  0.00    +0.000 HD
ATOM     16  H   UNL     1      -1.897  12.057  16.141  0.00  0.00    +0.000 HD
ENDBRANCH   9  12
ENDBRANCH   1   8
BRANCH   2  17
ATOM     17  C   UNL     1       2.571   8.250  17.170  0.00  0.00    +0.000 C 
BRANCH  17  18
ATOM     18  N   UNL     1       3.413   7.194  17.779  0.00  0.00    +0.000 N 
ATOM     19  C   UNL     1       4.658   6.926  17.205  0.00  0.00    +0.000 C 
ATOM     20  O   UNL     1       4.977   7.423  16.122  0.00  0.00    +0.000 OA
BRANCH  19  21
ATOM     21  C   UNL     1       5.632   5.980  17.935  0.00  0.00    +0.000 C 
ATOM     22  C   UNL     1       5.542   4.561  17.380  0.00  0.00    +0.000 C 
ATOM     23  C   UNL     1       7.074   6.484  17.813  0.00  0.00    +0.000 C 
ENDBRANCH  19  21
BRANCH  18  24
ATOM     24  C   UNL     1       3.024   6.735  19.112  0.00  0.00    +0.000 C 
BRANCH  24  25
ATOM     25  C   UNL     1       2.241   5.433  19.188  0.00  0.00    +0.000 A 
ATOM     26  C   UNL     1       1.934   4.624  18.082  0.00  0.00    +0.000 A 
ATOM     27  C   UNL     1       1.273   3.402  18.255  0.00  0.00    +0.000 A 
ATOM     28  C   UNL     1       0.907   2.989  19.530  0.00  0.00    +0.000 A 
ATOM     29  F   UNL     1       0.308   1.802  19.696  0.00  0.00    +0.000 F 
ATOM     30  C   UNL     1       1.162   3.787  20.634  0.00  0.00    +0.000 A 
ATOM     31  C   UNL     1       1.820   5.007  20.462  0.00  0.00    +0.000 A 
ENDBRANCH  24  25
ENDBRANCH  18  24
ENDBRANCH  17  18
ENDBRANCH   2  17
TORSDOF 7
ENDMDL
MODEL 3
REMARK VINA RESULT:      -7.4      1.840      2.066
REMARK  Name = 
REMARK  11 active torsions:
REMARK  status: ('A' for Active; 'I' for Inactive)
REMARK    1  A    between atoms: C_1  and  C_2
REMARK    2  A    between atoms: C_4  and  N_5
REMARK    3  A    between atoms: C_6  and  C_8
REMARK    4  A    between atoms: C_8  and  N_9
REMARK    5  A    between atoms: N_9  and  C_10
REMARK    6  A    between atoms: C_10  and  C_11
REMARK    7  A    between atoms: C_18  and  C_20
REMARK    8  A    between atoms: C_20  and  C_21
REMARK    9  A    between atoms: C_20  and  C_22
REMARK   10  A    between atoms: C_23  and  C_24
REMARK   11  A    between atoms: C_27  and  C_28
REMARK                            x       y       z     vdW  Elec       q    Type
REMARK                         _______ _______ _______ _____ _____    ______ ____
ROOT
ATOM      1  N   UNL     1       1.752   8.263  19.894  0.00  0.00    +0.000 N 
ATOM      2  C   UNL     1       2.440   7.834  18.769  0.00  0.00    +0.000 C 
ATOM      3  O   UNL     1       2.191   8.190  17.616  0.00  0.00    +0.000 OA
ATOM      4  H   UNL     1       1.570   7.541  20.592  0.00  0.00    +0.000 HD
ENDROOT
BRANCH   1   8
ATOM      5  C   UNL     1      -0.881  12.379  18.173  0.00  0.00    +0.000 C 
ATOM      6  C   UNL     1      -0.438  11.231  19.025  0.00  0.00    +0.000 A 
ATOM      7  S   UNL     1       0.367   9.903  18.317  0.00  0.00    +0.000 S 
ATOM      8  C   UNL     1       0.799   9.280  19.836  0.00  0.00    +0.000 A 
ATOM      9  C   UNL     1       0.219   9.975  20.886  0.00  0.00    +0.000 A 
ATOM     10  C   UNL     1      -0.578  11.097  20.401  0.00  0.00    +0.000 A 
ATOM     11  C   UNL     1      -1.336  12.109  21.211  0.00  0.00    +0.000 C 
BRANCH   9  12
ATOM     12  C   UNL     1       0.471   9.558  22.260  0.00  0.00    +0.000 C 
ATOM     13  N   UNL     1      -0.600   9.197  23.022  0.00  0.00    +0.000 N 
ATOM     14  O   UNL     1       1.604   9.467  22.733  0.00  0.00    +0.000 OA
ATOM     15  H   UNL     1      -1.476   8.934  22.592  0.00  0.00    +0.000 HD
ATOM     16  H   UNL     1      -0.386   8.778  23.917  0.00  0.00    +0.000 HD
ENDBRANCH   9  12
ENDBRANCH   1   8
BRANCH   2  17
ATOM     17  C   UNL     1       3.426   6.666  19.020  0.00  0.00    +0.000 C 
BRANCH  17  18
ATOM     18  N   UNL     1       3.805   5.786  17.890  0.00  0.00    +0.000 N 
ATOM     19  C   UNL     1       5.041   5.994  17.274  0.00  0.00    +0.000 C 
ATOM     20  O   UNL     1       5.722   6.988  17.539  0.00  0.00    +0.000 OA
BRANCH  19  21
ATOM     21  C   UNL     1       5.543   4.970  16.236  0.00  0.00    +0.000 C 
ATOM     22  C   UNL     1       5.466   5.537  14.821  0.00  0.00    +0.000 C 
ATOM     23  C   UNL     1       6.986   4.552  16.539  0.00  0.00    +0.000 C 
ENDBRANCH  19  21
BRANCH  18  24
ATOM     24  C   UNL     1       3.008   4.573  17.710  0.00  0.00    +0.000 C 
BRANCH  24  25
ATOM     25  C   UNL     1       2.550   3.859  18.972  0.00  0.00    +0.000 A 
ATOM     26  C   UNL     1       3.412   3.247  19.897  0.00  0.00    +0.000 A 
ATOM     27  C   UNL     1       2.907   2.676  21.071  0.00  0.00    +0.000 A 
ATOM     28  C   UNL     1       1.541   2.705  21.322  0.00  0.00    +0.000 A 
ATOM     29  F   UNL     1       1.064   2.192  22.464  0.00  0.00    +0.000 F 
ATOM     30  C   UNL     1       0.664   3.267  20.407  0.00  0.00    +0.000 A 
ATOM     31  C   UNL     1       1.166   3.835  19.234  0.00  0.00    +0.000 A 
ENDBRANCH  24  25
ENDBRANCH  18  24
ENDBRANCH  17  18
ENDBRANCH   2  17
TORSDOF 7
ENDMDL
MODEL 4
REMARK VINA RESULT:      -7.3      2.292      2.849
REMARK  Name = 
REMARK  11 active torsions:
REMARK  status: ('A' for Active; 'I' for Inactive)
REMARK    1  A    between atoms: C_1  and  C_2
REMARK    2  A    between atoms: C_4  and  N_5
REMARK    3  A    between atoms: C_6  and  C_8
REMARK    4  A    between atoms: C_8  and  N_9
REMARK    5  A    between atoms: N_9  and  C_10
REMARK    6  A    between atoms: C_10  and  C_11
REMARK    7  A    between atoms: C_18  and  C_20
REMARK    8  A    between atoms: C_20  and  C_21
REMARK    9  A    between atoms: C_20  and  C_22
REMARK   10  A    between atoms: C_23  and  C_24
REMARK   11  A    between atoms: C_27  and  C_28
REMARK                            x       y       z     vdW  Elec       q    Type
REMARK                         _______ _______ _______ _____ _____    ______ ____
ROOT
ATOM      1  N   UNL     1       1.621   8.138  19.207  0.00  0.00    +0.000 N 
ATOM      2  C   UNL     1       2.597   8.538  18.308  0.00  0.00    +0.000 C 
ATOM      3  O   UNL     1       2.923   9.708  18.101  0.00  0.00    +0.000 OA
ATOM      4  H   UNL     1       1.020   7.378  18.884  0.00  0.00    +0.000 HD
ENDROOT
BRANCH   1   8
ATOM      5  C   UNL     1      -0.575   9.996  23.515  0.00  0.00    +0.000 C 
ATOM      6  C   UNL     1      -0.030   9.905  22.125  0.00  0.00    +0.000 A 
ATOM      7  S   UNL     1       1.192   8.772  21.758  0.00  0.00    +0.000 S 
ATOM      8  C   UNL     1       1.015   9.032  20.090  0.00  0.00    +0.000 A 
ATOM      9  C   UNL     1       0.149  10.075  19.798  0.00  0.00    +0.000 A 
ATOM     10  C   UNL     1      -0.421  10.645  21.015  0.00  0.00    +0.000 A 
ATOM     11  C   UNL     1      -1.420  11.759  21.131  0.00  0.00    +0.000 C 
BRANCH   9  12
ATOM     12  C   UNL     1      -0.101  10.444  18.410  0.00  0.00    +0.000 C 
ATOM     13  N   UNL     1       0.379  11.644  17.976  0.00  0.00    +0.000 N 
ATOM     14  O   UNL     1      -0.670   9.699  17.613  0.00  0.00    +0.000 OA
ATOM     15  H   UNL     1       1.120  12.116  18.473  0.00  0.00    +0.000 HD
ATOM     16  H   UNL     1       0.317  11.811  16.979  0.00  0.00    +0.000 HD
ENDBRANCH   9  12
ENDBRANCH   1   8
BRANCH   2  17
ATOM     17  C   UNL     1       3.121   7.414  17.380  0.00  0.00    +0.000 C 
BRANCH  17  18
ATOM     18  N   UNL     1       4.188   6.511  17.870  0.00  0.00    +0.000 N 
ATOM     19  C   UNL     1       5.454   6.604  17.288  0.00  0.00    +0.000 C 
ATOM     20  O   UNL     1       5.639   7.288  16.278  0.00  0.00    +0.000 OA
BRANCH  19  21
ATOM     21  C   UNL     1       6.627   5.822  17.914  0.00  0.00    +0.000 C 
ATOM     22  C   UNL     1       7.116   4.720  16.979  0.00  0.00    +0.000 C 
ATOM     23  C   UNL     1       7.791   6.763  18.247  0.00  0.00    +0.000 C 
ENDBRANCH  19  21
BRANCH  18  24
ATOM     24  C   UNL     1       3.929   5.817  19.131  0.00  0.00    +0.000 C 
BRANCH  24  25
ATOM     25  C   UNL     1       2.920   4.681  19.095  0.00  0.00    +0.000 A 
ATOM     26  C   UNL     1       1.847   4.541  19.990  0.00  0.00    +0.000 A 
ATOM     27  C   UNL     1       0.921   3.502  19.836  0.00  0.00    +0.000 A 
ATOM     28  C   UNL     1       1.068   2.594  18.795  0.00  0.00    +0.000 A 
ATOM     29  F   UNL     1       0.160   1.624  18.627  0.00  0.00    +0.000 F 
ATOM     30  C   UNL     1       2.141   2.685  17.921  0.00  0.00    +0.000 A 
ATOM     31  C   UNL     1       3.066   3.720  18.075  0.00  0.00    +0.000 A 
ENDBRANCH  24  25
ENDBRANCH  18  24
ENDBRANCH  17  18
ENDBRANCH   2  17
TORSDOF 7
ENDMDL
MODEL 5
REMARK VINA RESULT:      -7.1      2.171      2.525
REMARK  Name = 
REMARK  11 active torsions:
REMARK  status: ('A' for Active; 'I' for Inactive)
REMARK    1  A    between atoms: C_1  and  C_2
REMARK    2  A    between atoms: C_4  and  N_5
REMARK    3  A    between atoms: C_6  and  C_8
REMARK    4  A    between atoms: C_8  and  N_9
REMARK    5  A    between atoms: N_9  and  C_10
REMARK    6  A    between atoms: C_10  and  C_11
REMARK    7  A    between atoms: C_18  and  C_20
REMARK    8  A    between atoms: C_20  and  C_21
REMARK    9  A    between atoms: C_20  and  C_22
REMARK   10  A    between atoms: C_23  and  C_24
REMARK   11  A    between atoms: C_27  and  C_28
REMARK                            x       y       z     vdW  Elec       q    Type
REMARK                         _______ _______ _______ _____ _____    ______ ____
ROOT
ATOM      1  N   UNL     1       1.788   8.442  18.610  0.00  0.00    +0.000 N 
ATOM      2  C   UNL     1       2.482   7.247  18.719  0.00  0.00    +0.000 C 
ATOM      3  O   UNL     1       2.910   6.778  19.775  0.00  0.00    +0.000 OA
ATOM      4  H   UNL     1       2.034   9.014  17.801  0.00  0.00    +0.000 HD
ENDROOT
BRANCH   1   8
ATOM      5  C   UNL     1      -0.475   9.495  23.149  0.00  0.00    +0.000 C 
ATOM      6  C   UNL     1       0.287   9.655  21.871  0.00  0.00    +0.000 A 
ATOM      7  S   UNL     1       1.075   8.312  21.173  0.00  0.00    +0.000 S 
ATOM      8  C   UNL     1       1.365   9.158  19.730  0.00  0.00    +0.000 A 
ATOM      9  C   UNL     1       1.010  10.496  19.812  0.00  0.00    +0.000 A 
ATOM     10  C   UNL     1       0.432  10.811  21.114  0.00  0.00    +0.000 A 
ATOM     11  C   UNL     1      -0.106  12.130  21.590  0.00  0.00    +0.000 C 
BRANCH   9  12
ATOM     12  C   UNL     1       1.212  11.372  18.664  0.00  0.00    +0.000 C 
ATOM     13  N   UNL     1       0.120  12.007  18.150  0.00  0.00    +0.000 N 
ATOM     14  O   UNL     1       2.322  11.600  18.185  0.00  0.00    +0.000 OA
ATOM     15  H   UNL     1      -0.720  12.119  18.700  0.00  0.00    +0.000 HD
ATOM     16  H   UNL     1       0.308  12.714  17.451  0.00  0.00    +0.000 HD
ENDBRANCH   9  12
ENDBRANCH   1   8
BRANCH   2  17
ATOM     17  C   UNL     1       2.906   6.620  17.368  0.00  0.00    +0.000 C 
BRANCH  17  18
ATOM     18  N   UNL     1       3.972   5.591  17.352  0.00  0.00    +0.000 N 
ATOM     19  C   UNL     1       5.281   5.990  17.626  0.00  0.00    +0.000 C 
ATOM     20  O   UNL     1       5.578   7.185  17.703  0.00  0.00    +0.000 OA
BRANCH  19  21
ATOM     21  C   UNL     1       6.369   4.913  17.814  0.00  0.00    +0.000 C 
ATOM     22  C   UNL     1       7.019   4.547  16.482  0.00  0.00    +0.000 C 
ATOM     23  C   UNL     1       7.448   5.395  18.791  0.00  0.00    +0.000 C 
ENDBRANCH  19  21
BRANCH  18  24
ATOM     24  C   UNL     1       3.534   4.195  17.367  0.00  0.00    +0.000 C 
BRANCH  24  25
ATOM     25  C   UNL     1       2.918   3.682  18.659  0.00  0.00    +0.000 A 
ATOM     26  C   UNL     1       3.654   3.274  19.784  0.00  0.00    +0.000 A 
ATOM     27  C   UNL     1       3.000   2.886  20.959  0.00  0.00    +0.000 A 
ATOM     28  C   UNL     1       1.612   2.894  21.014  0.00  0.00    +0.000 A 
ATOM     29  F   UNL     1       0.991   2.558  22.152  0.00  0.00    +0.000 F 
ATOM     30  C   UNL     1       0.862   3.253  19.906  0.00  0.00    +0.000 A 
ATOM     31  C   UNL     1       1.512   3.639  18.732  0.00  0.00    +0.000 A 
ENDBRANCH  24  25
ENDBRANCH  18  24
ENDBRANCH  17  18
ENDBRANCH   2  17
TORSDOF 7
ENDMDL
MODEL 6
REMARK VINA RESULT:      -7.1      0.632      1.108
REMARK  Name = 
REMARK  11 active torsions:
REMARK  status: ('A' for Active; 'I' for Inactive)
REMARK    1  A    between atoms: C_1  and  C_2
REMARK    2  A    between atoms: C_4  and  N_5
REMARK    3  A    between atoms: C_6  and  C_8
REMARK    4  A    between atoms: C_8  and  N_9
REMARK    5  A    between atoms: N_9  and  C_10
REMARK    6  A    between atoms: C_10  and  C_11
REMARK    7  A    between atoms: C_18  and  C_20
REMARK    8  A    between atoms: C_20  and  C_21
REMARK    9  A    between atoms: C_20  and  C_22
REMARK   10  A    between atoms: C_23  and  C_24
REMARK   11  A    between atoms: C_27  and  C_28
REMARK                            x       y       z     vdW  Elec       q    Type
REMARK                         _______ _______ _______ _____ _____    ______ ____
ROOT
ATOM      1  N   UNL     1       1.093   9.693  17.945  0.00  0.00    +0.000 N 
ATOM      2  C   UNL     1       1.728   8.713  18.691  0.00  0.00    +0.000 C 
ATOM      3  O   UNL     1       1.430   8.409  19.848  0.00  0.00    +0.000 OA
ATOM      4  H   UNL     1       1.712  10.275  17.378  0.00  0.00    +0.000 HD
ENDROOT
BRANCH   1   8
ATOM      5  C   UNL     1      -3.723  11.600  17.934  0.00  0.00    +0.000 C 
ATOM      6  C   UNL     1      -2.341  11.235  18.377  0.00  0.00    +0.000 A 
ATOM      7  S   UNL     1      -1.551   9.889  17.688  0.00  0.00    +0.000 S 
ATOM      8  C   UNL     1      -0.068  10.327  18.388  0.00  0.00    +0.000 A 
ATOM      9  C   UNL     1      -0.182  11.397  19.264  0.00  0.00    +0.000 A 
ATOM     10  C   UNL     1      -1.553  11.895  19.313  0.00  0.00    +0.000 A 
ATOM     11  C   UNL     1      -2.086  13.053  20.106  0.00  0.00    +0.000 C 
BRANCH   9  12
ATOM     12  C   UNL     1       0.996  11.889  19.966  0.00  0.00    +0.000 C 
ATOM     13  N   UNL     1       1.777  12.809  19.331  0.00  0.00    +0.000 N 
ATOM     14  O   UNL     1       1.276  11.554  21.117  0.00  0.00    +0.000 OA
ATOM     15  H   UNL     1       1.414  13.351  18.560  0.00  0.00    +0.000 HD
ATOM     16  H   UNL     1       2.501  13.238  19.893  0.00  0.00    +0.000 HD
ENDBRANCH   9  12
ENDBRANCH   1   8
BRANCH   2  17
ATOM     17  C   UNL     1       3.027   8.156  18.057  0.00  0.00    +0.000 C 
BRANCH  17  18
ATOM     18  N   UNL     1       3.091   6.724  17.685  0.00  0.00    +0.000 N 
ATOM     19  C   UNL     1       4.347   6.128  17.557  0.00  0.00    +0.000 C 
ATOM     20  O   UNL     1       5.376   6.807  17.577  0.00  0.00    +0.000 OA
BRANCH  19  21
ATOM     21  C   UNL     1       4.436   4.600  17.370  0.00  0.00    +0.000 C 
ATOM     22  C   UNL     1       5.047   4.245  16.017  0.00  0.00    +0.000 C 
ATOM     23  C   UNL     1       5.270   3.963  18.487  0.00  0.00    +0.000 C 
ENDBRANCH  19  21
BRANCH  18  24
ATOM     24  C   UNL     1       1.845   5.965  17.789  0.00  0.00    +0.000 C 
BRANCH  24  25
ATOM     25  C   UNL     1       1.768   4.919  18.890  0.00  0.00    +0.000 A 
ATOM     26  C   UNL     1       1.348   3.593  18.699  0.00  0.00    +0.000 A 
ATOM     27  C   UNL     1       1.380   2.677  19.758  0.00  0.00    +0.000 A 
ATOM     28  C   UNL     1       1.821   3.083  21.011  0.00  0.00    +0.000 A 
ATOM     29  F   UNL     1       1.886   2.195  22.012  0.00  0.00    +0.000 F 
ATOM     30  C   UNL     1       2.203   4.396  21.236  0.00  0.00    +0.000 A 
ATOM     31  C   UNL     1       2.169   5.311  20.182  0.00  0.00    +0.000 A 
ENDBRANCH  24  25
ENDBRANCH  18  24
ENDBRANCH  17  18
ENDBRANCH   2  17
TORSDOF 7
ENDMDL
MODEL 7
REMARK VINA RESULT:      -7.1      1.856      2.519
REMARK  Name = 
REMARK  11 active torsions:
REMARK  status: ('A' for Active; 'I' for Inactive)
REMARK    1  A    between atoms: C_1  and  C_2
REMARK    2  A    between atoms: C_4  and  N_5
REMARK    3  A    between atoms: C_6  and  C_8
REMARK    4  A    between atoms: C_8  and  N_9
REMARK    5  A    between atoms: N_9  and  C_10
REMARK    6  A    between atoms: C_10  and  C_11
REMARK    7  A    between atoms: C_18  and  C_20
REMARK    8  A    between atoms: C_20  and  C_21
REMARK    9  A    between atoms: C_20  and  C_22
REMARK   10  A    between atoms: C_23  and  C_24
REMARK   11  A    between atoms: C_27  and  C_28
REMARK                            x       y       z     vdW  Elec       q    Type
REMARK                         _______ _______ _______ _____ _____    ______ ____
ROOT
ATOM      1  N   UNL     1       1.235  10.359  18.074  0.00  0.00    +0.000 N 
ATOM      2  C   UNL     1       1.650   9.115  18.524  0.00  0.00    +0.000 C 
ATOM      3  O   UNL     1       1.471   8.687  19.666  0.00  0.00    +0.000 OA
ATOM      4  H   UNL     1       1.899  10.844  17.468  0.00  0.00    +0.000 HD
ENDROOT
BRANCH   1   8
ATOM      5  C   UNL     1      -0.609  12.931  22.174  0.00  0.00    +0.000 C 
ATOM      6  C   UNL     1      -0.452  12.399  20.785  0.00  0.00    +0.000 A 
ATOM      7  S   UNL     1       1.088  11.935  20.216  0.00  0.00    +0.000 S 
ATOM      8  C   UNL     1       0.422  11.192  18.843  0.00  0.00    +0.000 A 
ATOM      9  C   UNL     1      -0.942  11.414  18.720  0.00  0.00    +0.000 A 
ATOM     10  C   UNL     1      -1.453  12.196  19.841  0.00  0.00    +0.000 A 
ATOM     11  C   UNL     1      -2.870  12.620  20.100  0.00  0.00    +0.000 C 
BRANCH   9  12
ATOM     12  C   UNL     1      -1.668  10.861  17.583  0.00  0.00    +0.000 C 
ATOM     13  N   UNL     1      -2.063  11.721  16.602  0.00  0.00    +0.000 N 
ATOM     14  O   UNL     1      -1.885   9.657  17.451  0.00  0.00    +0.000 OA
ATOM     15  H   UNL     1      -1.625  12.626  16.500  0.00  0.00    +0.000 HD
ATOM     16  H   UNL     1      -2.435  11.295  15.763  0.00  0.00    +0.000 HD
ENDBRANCH   9  12
ENDBRANCH   1   8
BRANCH   2  17
ATOM     17  C   UNL     1       2.583   8.353  17.551  0.00  0.00    +0.000 C 
BRANCH  17  18
ATOM     18  N   UNL     1       3.279   7.133  18.024  0.00  0.00    +0.000 N 
ATOM     19  C   UNL     1       4.470   6.764  17.397  0.00  0.00    +0.000 C 
ATOM     20  O   UNL     1       4.845   7.328  16.366  0.00  0.00    +0.000 OA
BRANCH  19  21
ATOM     21  C   UNL     1       5.312   5.621  18.000  0.00  0.00    +0.000 C 
ATOM     22  C   UNL     1       5.277   4.382  17.110  0.00  0.00    +0.000 C 
ATOM     23  C   UNL     1       6.766   6.065  18.199  0.00  0.00    +0.000 C 
ENDBRANCH  19  21
BRANCH  18  24
ATOM     24  C   UNL     1       2.841   6.589  19.309  0.00  0.00    +0.000 C 
BRANCH  24  25
ATOM     25  C   UNL     1       2.224   5.199  19.292  0.00  0.00    +0.000 A 
ATOM     26  C   UNL     1       2.006   4.411  20.434  0.00  0.00    +0.000 A 
ATOM     27  C   UNL     1       1.362   3.172  20.331  0.00  0.00    +0.000 A 
ATOM     28  C   UNL     1       0.944   2.711  19.090  0.00  0.00    +0.000 A 
ATOM     29  F   UNL     1       0.295   1.542  19.000  0.00  0.00    +0.000 F 
ATOM     30  C   UNL     1       1.183   3.450  17.942  0.00  0.00    +0.000 A 
ATOM     31  C   UNL     1       1.826   4.685  18.042  0.00  0.00    +0.000 A 
ENDBRANCH  24  25
ENDBRANCH  18  24
ENDBRANCH  17  18
ENDBRANCH   2  17
TORSDOF 7
ENDMDL
MODEL 8
REMARK VINA RESULT:      -6.9      1.830      2.367
REMARK  Name = 
REMARK  11 active torsions:
REMARK  status: ('A' for Active; 'I' for Inactive)
REMARK    1  A    between atoms: C_1  and  C_2
REMARK    2  A    between atoms: C_4  and  N_5
REMARK    3  A    between atoms: C_6  and  C_8
REMARK    4  A    between atoms: C_8  and  N_9
REMARK    5  A    between atoms: N_9  and  C_10
REMARK    6  A    between atoms: C_10  and  C_11
REMARK    7  A    between atoms: C_18  and  C_20
REMARK    8  A    between atoms: C_20  and  C_21
REMARK    9  A    between atoms: C_20  and  C_22
REMARK   10  A    between atoms: C_23  and  C_24
REMARK   11  A    between atoms: C_27  and  C_28
REMARK                            x       y       z     vdW  Elec       q    Type
REMARK                         _______ _______ _______ _____ _____    ______ ____
ROOT
ATOM      1  N   UNL     1       0.990   8.847  18.633  0.00  0.00    +0.000 N 
ATOM      2  C   UNL     1       2.199   9.224  18.068  0.00  0.00    +0.000 C 
ATOM      3  O   UNL     1       2.655  10.369  18.086  0.00  0.00    +0.000 OA
ATOM      4  H   UNL     1       0.442   8.185  18.081  0.00  0.00    +0.000 HD
ENDROOT
BRANCH   1   8
ATOM      5  C   UNL     1      -1.450  13.142  20.189  0.00  0.00    +0.000 C 
ATOM      6  C   UNL     1      -0.904  11.750  20.163  0.00  0.00    +0.000 A 
ATOM      7  S   UNL     1      -0.613  10.974  18.672  0.00  0.00    +0.000 S 
ATOM      8  C   UNL     1       0.241   9.715  19.427  0.00  0.00    +0.000 A 
ATOM      9  C   UNL     1       0.186   9.784  20.811  0.00  0.00    +0.000 A 
ATOM     10  C   UNL     1      -0.558  10.959  21.252  0.00  0.00    +0.000 A 
ATOM     11  C   UNL     1      -0.816  11.411  22.661  0.00  0.00    +0.000 C 
BRANCH   9  12
ATOM     12  C   UNL     1       0.852   8.766  21.615  0.00  0.00    +0.000 C 
ATOM     13  N   UNL     1       1.759   9.183  22.543  0.00  0.00    +0.000 N 
ATOM     14  O   UNL     1       0.587   7.567  21.527  0.00  0.00    +0.000 OA
ATOM     15  H   UNL     1       1.755  10.136  22.879  0.00  0.00    +0.000 HD
ATOM     16  H   UNL     1       2.097   8.474  23.181  0.00  0.00    +0.000 HD
ENDBRANCH   9  12
ENDBRANCH   1   8
BRANCH   2  17
ATOM     17  C   UNL     1       2.865   8.142  17.182  0.00  0.00    +0.000 C 
BRANCH  17  18
ATOM     18  N   UNL     1       3.662   7.072  17.827  0.00  0.00    +0.000 N 
ATOM     19  C   UNL     1       4.933   6.796  17.320  0.00  0.00    +0.000 C 
ATOM     20  O   UNL     1       5.316   7.298  16.260  0.00  0.00    +0.000 OA
BRANCH  19  21
ATOM     21  C   UNL     1       5.857   5.834  18.094  0.00  0.00    +0.000 C 
ATOM     22  C   UNL     1       5.834   4.436  17.482  0.00  0.00    +0.000 C 
ATOM     23  C   UNL     1       7.297   6.359  18.112  0.00  0.00    +0.000 C 
ENDBRANCH  19  21
BRANCH  18  24
ATOM     24  C   UNL     1       3.196   6.606  19.133  0.00  0.00    +0.000 C 
BRANCH  24  25
ATOM     25  C   UNL     1       2.440   5.287  19.161  0.00  0.00    +0.000 A 
ATOM     26  C   UNL     1       2.012   4.641  20.332  0.00  0.00    +0.000 A 
ATOM     27  C   UNL     1       1.256   3.465  20.260  0.00  0.00    +0.000 A 
ATOM     28  C   UNL     1       0.933   2.925  19.022  0.00  0.00    +0.000 A 
ATOM     29  F   UNL     1       0.177   1.820  18.956  0.00  0.00    +0.000 F 
ATOM     30  C   UNL     1       1.377   3.520  17.852  0.00  0.00    +0.000 A 
ATOM     31  C   UNL     1       2.133   4.692  17.922  0.00  0.00    +0.000 A 
ENDBRANCH  24  25
ENDBRANCH  18  24
ENDBRANCH  17  18
ENDBRANCH   2  17
TORSDOF 7
ENDMDL
MODEL 9
REMARK VINA RESULT:      -6.9      1.995      2.526
REMARK  Name = 
REMARK  11 active torsions:
REMARK  status: ('A' for Active; 'I' for Inactive)
REMARK    1  A    between atoms: C_1  and  C_2
REMARK    2  A    between atoms: C_4  and  N_5
REMARK    3  A    between atoms: C_6  and  C_8
REMARK    4  A    between atoms: C_8  and  N_9
REMARK    5  A    between atoms: N_9  and  C_10
REMARK    6  A    between atoms: C_10  and  C_11
REMARK    7  A    between atoms: C_18  and  C_20
REMARK    8  A    between atoms: C_20  and  C_21
REMARK    9  A    between atoms: C_20  and  C_22
REMARK   10  A    between atoms: C_23  and  C_24
REMARK   11  A    between atoms: C_27  and  C_28
REMARK                            x       y       z     vdW  Elec       q    Type
REMARK                         _______ _______ _______ _____ _____    ______ ____
ROOT
ATOM      1  N   UNL     1       2.132   9.688  18.839  0.00  0.00    +0.000 N 
ATOM      2  C   UNL     1       1.961   8.659  17.926  0.00  0.00    +0.000 C 
ATOM      3  O   UNL     1       0.902   8.057  17.737  0.00  0.00    +0.000 OA
ATOM      4  H   UNL     1       3.012   9.667  19.356  0.00  0.00    +0.000 HD
ENDROOT
BRANCH   1   8
ATOM      5  C   UNL     1      -1.319  13.204  20.439  0.00  0.00    +0.000 C 
ATOM      6  C   UNL     1      -0.566  11.920  20.288  0.00  0.00    +0.000 A 
ATOM      7  S   UNL     1       0.254  11.577  18.831  0.00  0.00    +0.000 S 
ATOM      8  C   UNL     1       1.058  10.254  19.527  0.00  0.00    +0.000 A 
ATOM      9  C   UNL     1       0.609   9.965  20.807  0.00  0.00    +0.000 A 
ATOM     10  C   UNL     1      -0.412  10.915  21.236  0.00  0.00    +0.000 A 
ATOM     11  C   UNL     1      -1.123  10.971  22.557  0.00  0.00    +0.000 C 
BRANCH   9  12
ATOM     12  C   UNL     1       1.182   8.844  21.541  0.00  0.00    +0.000 C 
ATOM     13  N   UNL     1       1.899   9.122  22.667  0.00  0.00    +0.000 N 
ATOM     14  O   UNL     1       0.997   7.670  21.220  0.00  0.00    +0.000 OA
ATOM     15  H   UNL     1       1.792  10.005  23.144  0.00  0.00    +0.000 HD
ATOM     16  H   UNL     1       2.162   8.324  23.233  0.00  0.00    +0.000 HD
ENDBRANCH   9  12
ENDBRANCH   1   8
BRANCH   2  17
ATOM     17  C   UNL     1       3.273   8.130  17.295  0.00  0.00    +0.000 C 
BRANCH  17  18
ATOM     18  N   UNL     1       3.945   6.957  17.901  0.00  0.00    +0.000 N 
ATOM     19  C   UNL     1       5.241   6.647  17.485  0.00  0.00    +0.000 C 
ATOM     20  O   UNL     1       5.750   7.219  16.517  0.00  0.00    +0.000 OA
BRANCH  19  21
ATOM     21  C   UNL     1       6.032   5.561  18.241  0.00  0.00    +0.000 C 
ATOM     22  C   UNL     1       6.122   4.275  17.424  0.00  0.00    +0.000 C 
ATOM     23  C   UNL     1       7.445   6.051  18.576  0.00  0.00    +0.000 C 
ENDBRANCH  19  21
BRANCH  18  24
ATOM     24  C   UNL     1       3.331   6.405  19.108  0.00  0.00    +0.000 C 
BRANCH  24  25
ATOM     25  C   UNL     1       2.485   5.153  18.937  0.00  0.00    +0.000 A 
ATOM     26  C   UNL     1       2.365   4.432  17.738  0.00  0.00    +0.000 A 
ATOM     27  C   UNL     1       1.621   3.246  17.692  0.00  0.00    +0.000 A 
ATOM     28  C   UNL     1       0.989   2.781  18.838  0.00  0.00    +0.000 A 
ATOM     29  F   UNL     1       0.310   1.627  18.800  0.00  0.00    +0.000 F 
ATOM     30  C   UNL     1       1.059   3.495  20.025  0.00  0.00    +0.000 A 
ATOM     31  C   UNL     1       1.798   4.679  20.072  0.00  0.00    +0.000 A 
ENDBRANCH  24  25
ENDBRANCH  18  24
ENDBRANCH  17  18
ENDBRANCH   2  17
TORSDOF 7
ENDMDL
