MODEL 1
REMARK VINA RESULT:      -8.0      0.000      0.000
REMARK  Name = 
REMARK  7 active torsions:
REMARK  status: ('A' for Active; 'I' for Inactive)
REMARK    1  A    between atoms: C_1  and  C_2
REMARK    2  A    between atoms: C_2  and  C_3
REMARK    3  A    between atoms: C_2  and  N_4
REMARK    4  A    between atoms: C_7  and  C_8
REMARK    5  A    between atoms: C_10  and  N_11
REMARK    6  A    between atoms: N_11  and  C_12
REMARK    7  A    between atoms: C_18  and  C_19
REMARK                            x       y       z     vdW  Elec       q    Type
REMARK                         _______ _______ _______ _____ _____    ______ ____
ROOT
ATOM      1  C   UNL     1       0.851   8.711  19.982  0.00  0.00    +0.000 A 
ATOM      2  N   UNL     1       1.331   7.649  20.529  0.00  0.00    +0.000 NA
ATOM      3  C   UNL     1       2.300   6.912  19.893  0.00  0.00    +0.000 A 
ATOM      4  C   UNL     1       2.857   7.297  18.715  0.00  0.00    +0.000 A 
ATOM      5  C   UNL     1       2.368   8.589  18.146  0.00  0.00    +0.000 A 
ATOM      6  O   UNL     1       2.880   9.141  17.181  0.00  0.00    +0.000 OA
ATOM      7  N   UNL     1       1.320   9.180  18.797  0.00  0.00    +0.000 N 
ATOM      8  H   UNL     1       0.998  10.051  18.393  0.00  0.00    +0.000 HD
ENDROOT
BRANCH   4   9
ATOM      9  C   UNL     1       3.835   6.571  17.963  0.00  0.00    +0.000 A 
ATOM     10  N   UNL     1       3.606   5.432  17.329  0.00  0.00    +0.000 NA
ATOM     11  C   UNL     1       4.696   5.037  16.572  0.00  0.00    +0.000 A 
ATOM     12  C   UNL     1       4.761   3.890  15.741  0.00  0.00    +0.000 A 
ATOM     13  C   UNL     1       5.930   3.587  15.037  0.00  0.00    +0.000 A 
ATOM     14  C   UNL     1       7.043   4.414  15.144  0.00  0.00    +0.000 A 
ATOM     15  C   UNL     1       7.002   5.561  15.944  0.00  0.00    +0.000 A 
ATOM     16  C   UNL     1       5.818   5.863  16.648  0.00  0.00    +0.000 A 
ATOM     17  S   UNL     1       5.433   7.195  17.692  0.00  0.00    +0.000 S 
ENDBRANCH   4   9
BRANCH   1  21
ATOM     18  N   UNL     1       0.276  12.357  19.993  0.00  0.00    +0.000 NA
ATOM     19  C   UNL     1      -0.331  11.442  19.017  0.00  0.00    +0.000 C 
ATOM     20  C   UNL     1      -1.126  10.303  19.658  0.00  0.00    +0.000 C 
ATOM     21  C   UNL     1      -0.272   9.518  20.652  0.00  0.00    +0.000 C 
ATOM     22  C   UNL     1       0.242  10.507  21.703  0.00  0.00    +0.000 C 
ATOM     23  C   UNL     1       1.008  11.674  21.073  0.00  0.00    +0.000 C 
BRANCH  18  25
ATOM     24  C   UNL     1       2.142  12.892  18.327  0.00  0.00    +0.000 C 
ATOM     25  C   UNL     1       1.129  13.403  19.368  0.00  0.00    +0.000 C 
ATOM     26  C   UNL     1       0.281  14.520  18.750  0.00  0.00    +0.000 C 
ENDBRANCH  18  25
ENDBRANCH   1  21
BRANCH   3  27
ATOM     27  N   UNL     1       2.671   5.764  20.590  0.00  0.00    +0.000 N 
ATOM     28  H   UNL     1       3.053   6.073  21.486  0.00  0.00    +0.000 HD
BRANCH  27  29
ATOM     29  C   UNL     1       1.709   4.685  20.906  0.00  0.00    +0.000 C 
ATOM     30  C   UNL     1       2.339   3.525  21.691  0.00  0.00    +0.000 C 
ATOM     31  C   UNL     1       3.214   2.577  20.867  0.00  0.00    +0.000 C 
ATOM     32  C   UNL     1       2.789   2.335  19.420  0.00  0.00    +0.000 C 
ATOM     33  N   UNL     1       2.075   3.416  18.752  0.00  0.00    +0.000 NA
ATOM     34  C   UNL     1       1.107   4.124  19.600  0.00  0.00    +0.000 C 
ATOM     35  H   UNL     1       1.576   3.026  17.950  0.00  0.00    +0.000 HD
ENDBRANCH  27  29
ENDBRANCH   3  27
TORSDOF 5
ENDMDL
MODEL 2
REMARK VINA RESULT:      -7.8      4.610      7.816
REMARK  Name = 
REMARK  7 active torsions:
REMARK  status: ('A' for Active; 'I' for Inactive)
REMARK    1  A    between atoms: C_1  and  C_2
REMARK    2  A    between atoms: C_2  and  C_3
REMARK    3  A    between atoms: C_2  and  N_4
REMARK    4  A    between atoms: C_7  and  C_8
REMARK    5  A    between atoms: C_10  and  N_11
REMARK    6  A    between atoms: N_11  and  C_12
REMARK    7  A    between atoms: C_18  and  C_19
REMARK                            x       y       z     vdW  Elec       q    Type
REMARK                         _______ _______ _______ _____ _____    ______ ____
ROOT
ATOM      1  C   UNL     1      -2.490  14.120  21.490  0.00  0.00    +0.000 A 
ATOM      2  N   UNL     1      -2.749  13.611  20.335  0.00  0.00    +0.000 NA
ATOM      3  C   UNL     1      -2.058  12.512  19.886  0.00  0.00    +0.000 A 
ATOM      4  C   UNL     1      -1.142  11.859  20.649  0.00  0.00    +0.000 A 
ATOM      5  C   UNL     1      -0.933  12.396  22.028  0.00  0.00    +0.000 A 
ATOM      6  O   UNL     1      -0.263  11.828  22.880  0.00  0.00    +0.000 OA
ATOM      7  N   UNL     1      -1.582  13.562  22.331  0.00  0.00    +0.000 N 
ATOM      8  H   UNL     1      -1.422  13.913  23.267  0.00  0.00    +0.000 HD
ENDROOT
BRANCH   4   9
ATOM      9  C   UNL     1      -0.348  10.739  20.247  0.00  0.00    +0.000 A 
ATOM     10  N   UNL     1       0.285  10.641  19.089  0.00  0.00    +0.000 NA
ATOM     11  C   UNL     1       1.087   9.513  19.036  0.00  0.00    +0.000 A 
ATOM     12  C   UNL     1       1.928   9.139  17.958  0.00  0.00    +0.000 A 
ATOM     13  C   UNL     1       2.679   7.961  18.017  0.00  0.00    +0.000 A 
ATOM     14  C   UNL     1       2.610   7.146  19.141  0.00  0.00    +0.000 A 
ATOM     15  C   UNL     1       1.800   7.498  20.226  0.00  0.00    +0.000 A 
ATOM     16  C   UNL     1       1.048   8.689  20.162  0.00  0.00    +0.000 A 
ATOM     17  S   UNL     1      -0.019   9.415  21.321  0.00  0.00    +0.000 S 
ENDBRANCH   4   9
BRANCH   1  21
ATOM     18  N   UNL     1      -5.709  14.425  23.270  0.00  0.00    +0.000 NA
ATOM     19  C   UNL     1      -4.410  14.337  23.949  0.00  0.00    +0.000 C 
ATOM     20  C   UNL     1      -3.411  15.406  23.501  0.00  0.00    +0.000 C 
ATOM     21  C   UNL     1      -3.212  15.381  21.986  0.00  0.00    +0.000 C 
ATOM     22  C   UNL     1      -4.585  15.586  21.337  0.00  0.00    +0.000 C 
ATOM     23  C   UNL     1      -5.607  14.546  21.806  0.00  0.00    +0.000 C 
BRANCH  18  25
ATOM     24  C   UNL     1      -7.916  13.762  24.380  0.00  0.00    +0.000 C 
ATOM     25  C   UNL     1      -6.641  13.325  23.636  0.00  0.00    +0.000 C 
ATOM     26  C   UNL     1      -7.027  12.489  22.409  0.00  0.00    +0.000 C 
ENDBRANCH  18  25
ENDBRANCH   1  21
BRANCH   3  27
ATOM     27  N   UNL     1      -2.416  12.120  18.597  0.00  0.00    +0.000 N 
ATOM     28  H   UNL     1      -1.567  11.774  18.147  0.00  0.00    +0.000 HD
BRANCH  27  29
ATOM     29  C   UNL     1      -3.459  11.103  18.341  0.00  0.00    +0.000 C 
ATOM     30  C   UNL     1      -2.906   9.816  17.711  0.00  0.00    +0.000 C 
ATOM     31  C   UNL     1      -2.558   9.913  16.223  0.00  0.00    +0.000 C 
ATOM     32  C   UNL     1      -3.441  10.822  15.371  0.00  0.00    +0.000 C 
ATOM     33  N   UNL     1      -4.056  11.962  16.040  0.00  0.00    +0.000 NA
ATOM     34  C   UNL     1      -4.537  11.684  17.401  0.00  0.00    +0.000 C 
ATOM     35  H   UNL     1      -4.848  12.278  15.478  0.00  0.00    +0.000 HD
ENDBRANCH  27  29
ENDBRANCH   3  27
TORSDOF 5
ENDMDL
MODEL 3
REMARK VINA RESULT:      -7.7      4.553      7.683
REMARK  Name = 
REMARK  7 active torsions:
REMARK  status: ('A' for Active; 'I' for Inactive)
REMARK    1  A    between atoms: C_1  and  C_2
REMARK    2  A    between atoms: C_2  and  C_3
REMARK    3  A    between atoms: C_2  and  N_4
REMARK    4  A    between atoms: C_7  and  C_8
REMARK    5  A    between atoms: C_10  and  N_11
REMARK    6  A    between atoms: N_11  and  C_12
REMARK    7  A    between atoms: C_18  and  C_19
REMARK                            x       y       z     vdW  Elec       q    Type
REMARK                         _______ _______ _______ _____ _____    ______ ____
ROOT
ATOM      1  C   UNL     1      -3.111  13.647  21.644  0.00  0.00    +0.000 A 
ATOM      2  N   UNL     1      -3.237  13.238  20.429  0.00  0.00    +0.000 NA
ATOM      3  C   UNL     1      -2.334  12.352  19.893  0.00  0.00    +0.000 A 
ATOM      4  C   UNL     1      -1.326  11.802  20.621  0.00  0.00    +0.000 A 
ATOM      5  C   UNL     1      -1.259  12.202  22.059  0.00  0.00    +0.000 A 
ATOM      6  O   UNL     1      -0.511  11.677  22.873  0.00  0.00    +0.000 OA
ATOM      7  N   UNL     1      -2.131  13.178  22.459  0.00  0.00    +0.000 N 
ATOM      8  H   UNL     1      -2.065  13.440  23.435  0.00  0.00    +0.000 HD
ENDROOT
BRANCH   4   9
ATOM      9  C   UNL     1      -0.319  10.911  20.134  0.00  0.00    +0.000 A 
ATOM     10  N   UNL     1       0.053   9.792  20.734  0.00  0.00    +0.000 NA
ATOM     11  C   UNL     1       0.943   9.065  19.962  0.00  0.00    +0.000 A 
ATOM     12  C   UNL     1       1.497   7.803  20.294  0.00  0.00    +0.000 A 
ATOM     13  C   UNL     1       2.404   7.175  19.435  0.00  0.00    +0.000 A 
ATOM     14  C   UNL     1       2.769   7.785  18.240  0.00  0.00    +0.000 A 
ATOM     15  C   UNL     1       2.226   9.023  17.879  0.00  0.00    +0.000 A 
ATOM     16  C   UNL     1       1.309   9.649  18.748  0.00  0.00    +0.000 A 
ATOM     17  S   UNL     1       0.450  11.149  18.595  0.00  0.00    +0.000 S 
ENDBRANCH   4   9
BRANCH   1  21
ATOM     18  N   UNL     1      -6.791  13.811  21.420  0.00  0.00    +0.000 NA
ATOM     19  C   UNL     1      -6.073  13.155  22.521  0.00  0.00    +0.000 C 
ATOM     20  C   UNL     1      -5.073  14.070  23.231  0.00  0.00    +0.000 C 
ATOM     21  C   UNL     1      -4.077  14.678  22.244  0.00  0.00    +0.000 C 
ATOM     22  C   UNL     1      -4.883  15.439  21.185  0.00  0.00    +0.000 C 
ATOM     23  C   UNL     1      -5.915  14.544  20.492  0.00  0.00    +0.000 C 
BRANCH  18  25
ATOM     24  C   UNL     1      -7.521  12.910  19.140  0.00  0.00    +0.000 C 
ATOM     25  C   UNL     1      -7.688  12.890  20.671  0.00  0.00    +0.000 C 
ATOM     26  C   UNL     1      -7.561  11.449  21.179  0.00  0.00    +0.000 C 
ENDBRANCH  18  25
ENDBRANCH   1  21
BRANCH   3  27
ATOM     27  N   UNL     1      -2.578  12.054  18.553  0.00  0.00    +0.000 N 
ATOM     28  H   UNL     1      -1.693  11.730  18.158  0.00  0.00    +0.000 HD
BRANCH  27  29
ATOM     29  C   UNL     1      -3.600  11.069  18.136  0.00  0.00    +0.000 C 
ATOM     30  C   UNL     1      -3.008   9.695  17.791  0.00  0.00    +0.000 C 
ATOM     31  C   UNL     1      -2.295   9.610  16.439  0.00  0.00    +0.000 C 
ATOM     32  C   UNL     1      -2.866  10.464  15.309  0.00  0.00    +0.000 C 
ATOM     33  N   UNL     1      -3.538  11.700  15.690  0.00  0.00    +0.000 NA
ATOM     34  C   UNL     1      -4.361  11.599  16.902  0.00  0.00    +0.000 C 
ATOM     35  H   UNL     1      -4.138  11.993  14.916  0.00  0.00    +0.000 HD
ENDBRANCH  27  29
ENDBRANCH   3  27
TORSDOF 5
ENDMDL
MODEL 4
REMARK VINA RESULT:      -7.5      3.615      7.171
REMARK  Name = 
REMARK  7 active torsions:
REMARK  status: ('A' for Active; 'I' for Inactive)
REMARK    1  A    between atoms: C_1  and  C_2
REMARK    2  A    between atoms: C_2  and  C_3
REMARK    3  A    between atoms: C_2  and  N_4
REMARK    4  A    between atoms: C_7  and  C_8
REMARK    5  A    between atoms: C_10  and  N_11
REMARK    6  A    between atoms: N_11  and  C_12
REMARK    7  A    between atoms: C_18  and  C_19
REMARK                            x       y       z     vdW  Elec       q    Type
REMARK                         _______ _______ _______ _____ _____    ______ ____
ROOT
ATOM      1  C   UNL     1       0.247  15.186  19.240  0.00  0.00    +0.000 A 
ATOM      2  N   UNL     1      -0.510  14.415  18.539  0.00  0.00    +0.000 NA
ATOM      3  C   UNL     1      -0.295  13.059  18.515  0.00  0.00    +0.000 A 
ATOM      4  C   UNL     1       0.653  12.454  19.277  0.00  0.00    +0.000 A 
ATOM      5  C   UNL     1       1.450  13.349  20.169  0.00  0.00    +0.000 A 
ATOM      6  O   UNL     1       2.227  12.938  21.021  0.00  0.00    +0.000 OA
ATOM      7  N   UNL     1       1.237  14.693  20.027  0.00  0.00    +0.000 N 
ATOM      8  H   UNL     1       1.791  15.283  20.635  0.00  0.00    +0.000 HD
ENDROOT
BRANCH   4   9
ATOM      9  C   UNL     1       0.974  11.059  19.281  0.00  0.00    +0.000 A 
ATOM     10  N   UNL     1       1.582  10.423  18.292  0.00  0.00    +0.000 NA
ATOM     11  C   UNL     1       1.888   9.116  18.633  0.00  0.00    +0.000 A 
ATOM     12  C   UNL     1       2.576   8.182  17.819  0.00  0.00    +0.000 A 
ATOM     13  C   UNL     1       2.811   6.880  18.272  0.00  0.00    +0.000 A 
ATOM     14  C   UNL     1       2.372   6.491  19.532  0.00  0.00    +0.000 A 
ATOM     15  C   UNL     1       1.704   7.396  20.363  0.00  0.00    +0.000 A 
ATOM     16  C   UNL     1       1.474   8.708  19.903  0.00  0.00    +0.000 A 
ATOM     17  S   UNL     1       0.708  10.060  20.676  0.00  0.00    +0.000 S 
ENDBRANCH   4   9
BRANCH   1  21
ATOM     18  N   UNL     1      -1.609  17.317  21.614  0.00  0.00    +0.000 NA
ATOM     19  C   UNL     1      -0.174  17.030  21.731  0.00  0.00    +0.000 C 
ATOM     20  C   UNL     1       0.627  17.392  20.479  0.00  0.00    +0.000 C 
ATOM     21  C   UNL     1       0.057  16.710  19.237  0.00  0.00    +0.000 C 
ATOM     22  C   UNL     1      -1.410  17.135  19.109  0.00  0.00    +0.000 C 
ATOM     23  C   UNL     1      -2.217  16.814  20.371  0.00  0.00    +0.000 C 
BRANCH  18  25
ATOM     24  C   UNL     1      -1.568  16.359  23.986  0.00  0.00    +0.000 C 
ATOM     25  C   UNL     1      -2.398  16.872  22.794  0.00  0.00    +0.000 C 
ATOM     26  C   UNL     1      -3.354  17.971  23.274  0.00  0.00    +0.000 C 
ENDBRANCH  18  25
ENDBRANCH   1  21
BRANCH   3  27
ATOM     27  N   UNL     1      -1.163  12.374  17.665  0.00  0.00    +0.000 N 
ATOM     28  H   UNL     1      -0.597  12.013  16.895  0.00  0.00    +0.000 HD
BRANCH  27  29
ATOM     29  C   UNL     1      -1.995  11.243  18.129  0.00  0.00    +0.000 C 
ATOM     30  C   UNL     1      -1.905  10.012  17.215  0.00  0.00    +0.000 C 
ATOM     31  C   UNL     1      -2.682  10.115  15.900  0.00  0.00    +0.000 C 
ATOM     32  C   UNL     1      -3.990  10.904  15.938  0.00  0.00    +0.000 C 
ATOM     33  N   UNL     1      -4.084  11.982  16.914  0.00  0.00    +0.000 NA
ATOM     34  C   UNL     1      -3.472  11.682  18.216  0.00  0.00    +0.000 C 
ATOM     35  H   UNL     1      -5.071  12.197  17.064  0.00  0.00    +0.000 HD
ENDBRANCH  27  29
ENDBRANCH   3  27
TORSDOF 5
ENDMDL
MODEL 5
REMARK VINA RESULT:      -7.4      2.074      7.146
REMARK  Name = 
REMARK  7 active torsions:
REMARK  status: ('A' for Active; 'I' for Inactive)
REMARK    1  A    between atoms: C_1  and  C_2
REMARK    2  A    between atoms: C_2  and  C_3
REMARK    3  A    between atoms: C_2  and  N_4
REMARK    4  A    between atoms: C_7  and  C_8
REMARK    5  A    between atoms: C_10  and  N_11
REMARK    6  A    between atoms: N_11  and  C_12
REMARK    7  A    between atoms: C_18  and  C_19
REMARK                            x       y       z     vdW  Elec       q    Type
REMARK                         _______ _______ _______ _____ _____    ______ ____
ROOT
ATOM      1  C   UNL     1       3.834   6.106  17.383  0.00  0.00    +0.000 A 
ATOM      2  N   UNL     1       3.400   5.598  18.485  0.00  0.00    +0.000 NA
ATOM      3  C   UNL     1       2.588   6.328  19.318  0.00  0.00    +0.000 A 
ATOM      4  C   UNL     1       2.135   7.569  18.998  0.00  0.00    +0.000 A 
ATOM      5  C   UNL     1       2.557   8.100  17.667  0.00  0.00    +0.000 A 
ATOM      6  O   UNL     1       2.108   9.127  17.175  0.00  0.00    +0.000 OA
ATOM      7  N   UNL     1       3.461   7.345  16.971  0.00  0.00    +0.000 N 
ATOM      8  H   UNL     1       3.740   7.725  16.075  0.00  0.00    +0.000 HD
ENDROOT
BRANCH   4   9
ATOM      9  C   UNL     1       1.326   8.414  19.822  0.00  0.00    +0.000 A 
ATOM     10  N   UNL     1       1.035   8.175  21.091  0.00  0.00    +0.000 NA
ATOM     11  C   UNL     1       0.356   9.233  21.670  0.00  0.00    +0.000 A 
ATOM     12  C   UNL     1      -0.061   9.315  23.023  0.00  0.00    +0.000 A 
ATOM     13  C   UNL     1      -0.759  10.434  23.486  0.00  0.00    +0.000 A 
ATOM     14  C   UNL     1      -1.048  11.483  22.620  0.00  0.00    +0.000 A 
ATOM     15  C   UNL     1      -0.636  11.436  21.284  0.00  0.00    +0.000 A 
ATOM     16  C   UNL     1       0.071  10.307  20.824  0.00  0.00    +0.000 A 
ATOM     17  S   UNL     1       0.733   9.947  19.261  0.00  0.00    +0.000 S 
ENDBRANCH   4   9
BRANCH   1  21
ATOM     18  N   UNL     1       7.491   5.676  17.634  0.00  0.00    +0.000 NA
ATOM     19  C   UNL     1       6.522   4.731  18.202  0.00  0.00    +0.000 C 
ATOM     20  C   UNL     1       5.520   4.192  17.179  0.00  0.00    +0.000 C 
ATOM     21  C   UNL     1       4.788   5.327  16.465  0.00  0.00    +0.000 C 
ATOM     22  C   UNL     1       5.847   6.215  15.803  0.00  0.00    +0.000 C 
ATOM     23  C   UNL     1       6.880   6.731  16.810  0.00  0.00    +0.000 C 
BRANCH  18  25
ATOM     24  C   UNL     1       8.403   7.811  18.709  0.00  0.00    +0.000 C 
ATOM     25  C   UNL     1       8.399   6.272  18.651  0.00  0.00    +0.000 C 
ATOM     26  C   UNL     1       8.117   5.709  20.050  0.00  0.00    +0.000 C 
ENDBRANCH  18  25
ENDBRANCH   1  21
BRANCH   3  27
ATOM     27  N   UNL     1       2.253   5.657  20.493  0.00  0.00    +0.000 N 
ATOM     28  H   UNL     1       1.925   6.365  21.153  0.00  0.00    +0.000 HD
BRANCH  27  29
ATOM     29  C   UNL     1       1.250   4.570  20.525  0.00  0.00    +0.000 C 
ATOM     30  C   UNL     1       1.538   3.514  21.602  0.00  0.00    +0.000 C 
ATOM     31  C   UNL     1       2.668   2.535  21.272  0.00  0.00    +0.000 C 
ATOM     32  C   UNL     1       2.831   2.146  19.804  0.00  0.00    +0.000 C 
ATOM     33  N   UNL     1       2.421   3.130  18.810  0.00  0.00    +0.000 NA
ATOM     34  C   UNL     1       1.197   3.868  19.151  0.00  0.00    +0.000 C 
ATOM     35  H   UNL     1       2.269   2.648  17.922  0.00  0.00    +0.000 HD
ENDBRANCH  27  29
ENDBRANCH   3  27
TORSDOF 5
ENDMDL
MODEL 6
REMARK VINA RESULT:      -7.4      1.049      1.406
REMARK  Name = 
REMARK  7 active torsions:
REMARK  status: ('A' for Active; 'I' for Inactive)
REMARK    1  A    between atoms: C_1  and  C_2
REMARK    2  A    between atoms: C_2  and  C_3
REMARK    3  A    between atoms: C_2  and  N_4
REMARK    4  A    between atoms: C_7  and  C_8
REMARK    5  A    between atoms: C_10  and  N_11
REMARK    6  A    between atoms: N_11  and  C_12
REMARK    7  A    between atoms: C_18  and  C_19
REMARK                            x       y       z     vdW  Elec       q    Type
REMARK                         _______ _______ _______ _____ _____    ______ ____
ROOT
ATOM      1  C   UNL     1       1.397   8.030  20.092  0.00  0.00    +0.000 A 
ATOM      2  N   UNL     1       2.001   6.963  20.490  0.00  0.00    +0.000 NA
ATOM      3  C   UNL     1       2.930   6.346  19.689  0.00  0.00    +0.000 A 
ATOM      4  C   UNL     1       3.321   6.858  18.492  0.00  0.00    +0.000 A 
ATOM      5  C   UNL     1       2.694   8.154  18.094  0.00  0.00    +0.000 A 
ATOM      6  O   UNL     1       3.055   8.812  17.128  0.00  0.00    +0.000 OA
ATOM      7  N   UNL     1       1.696   8.620  18.906  0.00  0.00    +0.000 N 
ATOM      8  H   UNL     1       1.279   9.496  18.616  0.00  0.00    +0.000 HD
ENDROOT
BRANCH   4   9
ATOM      9  C   UNL     1       4.245   6.261  17.577  0.00  0.00    +0.000 A 
ATOM     10  N   UNL     1       3.955   5.265  16.755  0.00  0.00    +0.000 NA
ATOM     11  C   UNL     1       5.001   4.991  15.890  0.00  0.00    +0.000 A 
ATOM     12  C   UNL     1       4.997   4.017  14.860  0.00  0.00    +0.000 A 
ATOM     13  C   UNL     1       6.128   3.822  14.061  0.00  0.00    +0.000 A 
ATOM     14  C   UNL     1       7.269   4.588  14.269  0.00  0.00    +0.000 A 
ATOM     15  C   UNL     1       7.296   5.567  15.268  0.00  0.00    +0.000 A 
ATOM     16  C   UNL     1       6.152   5.762  16.068  0.00  0.00    +0.000 A 
ATOM     17  S   UNL     1       5.850   6.886  17.355  0.00  0.00    +0.000 S 
ENDBRANCH   4   9
BRANCH   1  21
ATOM     18  N   UNL     1       0.275  11.546  20.104  0.00  0.00    +0.000 NA
ATOM     19  C   UNL     1      -0.360  10.493  19.301  0.00  0.00    +0.000 C 
ATOM     20  C   UNL     1      -0.828   9.292  20.125  0.00  0.00    +0.000 C 
ATOM     21  C   UNL     1       0.316   8.703  20.949  0.00  0.00    +0.000 C 
ATOM     22  C   UNL     1       0.864   9.821  21.843  0.00  0.00    +0.000 C 
ATOM     23  C   UNL     1       1.301  11.046  21.034  0.00  0.00    +0.000 C 
BRANCH  18  25
ATOM     24  C   UNL     1       1.987  12.295  18.356  0.00  0.00    +0.000 C 
ATOM     25  C   UNL     1       0.817  12.664  19.287  0.00  0.00    +0.000 C 
ATOM     26  C   UNL     1      -0.288  13.347  18.471  0.00  0.00    +0.000 C 
ENDBRANCH  18  25
ENDBRANCH   1  21
BRANCH   3  27
ATOM     27  N   UNL     1       3.447   5.175  20.240  0.00  0.00    +0.000 N 
ATOM     28  H   UNL     1       3.116   5.133  21.206  0.00  0.00    +0.000 HD
BRANCH  27  29
ATOM     29  C   UNL     1       3.181   3.842  19.657  0.00  0.00    +0.000 C 
ATOM     30  C   UNL     1       1.710   3.637  19.265  0.00  0.00    +0.000 C 
ATOM     31  C   UNL     1       0.753   3.377  20.431  0.00  0.00    +0.000 C 
ATOM     32  C   UNL     1       1.312   2.588  21.614  0.00  0.00    +0.000 C 
ATOM     33  N   UNL     1       2.742   2.707  21.871  0.00  0.00    +0.000 NA
ATOM     34  C   UNL     1       3.578   2.742  20.664  0.00  0.00    +0.000 C 
ATOM     35  H   UNL     1       3.034   1.912  22.443  0.00  0.00    +0.000 HD
ENDBRANCH  27  29
ENDBRANCH   3  27
TORSDOF 5
ENDMDL
MODEL 7
REMARK VINA RESULT:      -7.3      3.545      6.953
REMARK  Name = 
REMARK  7 active torsions:
REMARK  status: ('A' for Active; 'I' for Inactive)
REMARK    1  A    between atoms: C_1  and  C_2
REMARK    2  A    between atoms: C_2  and  C_3
REMARK    3  A    between atoms: C_2  and  N_4
REMARK    4  A    between atoms: C_7  and  C_8
REMARK    5  A    between atoms: C_10  and  N_11
REMARK    6  A    between atoms: N_11  and  C_12
REMARK    7  A    between atoms: C_18  and  C_19
REMARK                            x       y       z     vdW  Elec       q    Type
REMARK                         _______ _______ _______ _____ _____    ______ ____
ROOT
ATOM      1  C   UNL     1       0.012  14.984  19.379  0.00  0.00    +0.000 A 
ATOM      2  N   UNL     1      -0.667  14.212  18.602  0.00  0.00    +0.000 NA
ATOM      3  C   UNL     1      -0.392  12.867  18.539  0.00  0.00    +0.000 A 
ATOM      4  C   UNL     1       0.534  12.271  19.336  0.00  0.00    +0.000 A 
ATOM      5  C   UNL     1       1.235  13.160  20.310  0.00  0.00    +0.000 A 
ATOM      6  O   UNL     1       1.975  12.747  21.192  0.00  0.00    +0.000 OA
ATOM      7  N   UNL     1       0.973  14.499  20.207  0.00  0.00    +0.000 N 
ATOM      8  H   UNL     1       1.463  15.086  20.871  0.00  0.00    +0.000 HD
ENDROOT
BRANCH   4   9
ATOM      9  C   UNL     1       0.915  10.892  19.305  0.00  0.00    +0.000 A 
ATOM     10  N   UNL     1       1.547  10.306  18.301  0.00  0.00    +0.000 NA
ATOM     11  C   UNL     1       1.909   9.006  18.611  0.00  0.00    +0.000 A 
ATOM     12  C   UNL     1       2.635   8.122  17.773  0.00  0.00    +0.000 A 
ATOM     13  C   UNL     1       2.926   6.820  18.194  0.00  0.00    +0.000 A 
ATOM     14  C   UNL     1       2.507   6.383  19.446  0.00  0.00    +0.000 A 
ATOM     15  C   UNL     1       1.802   7.238  20.299  0.00  0.00    +0.000 A 
ATOM     16  C   UNL     1       1.516   8.550  19.870  0.00  0.00    +0.000 A 
ATOM     17  S   UNL     1       0.695   9.849  20.677  0.00  0.00    +0.000 S 
ENDBRANCH   4   9
BRANCH   1  21
ATOM     18  N   UNL     1       2.369  17.734  20.086  0.00  0.00    +0.000 NA
ATOM     19  C   UNL     1       2.066  17.253  18.732  0.00  0.00    +0.000 C 
ATOM     20  C   UNL     1       0.574  17.277  18.394  0.00  0.00    +0.000 C 
ATOM     21  C   UNL     1      -0.244  16.497  19.422  0.00  0.00    +0.000 C 
ATOM     22  C   UNL     1       0.033  17.116  20.797  0.00  0.00    +0.000 C 
ATOM     23  C   UNL     1       1.527  17.133  21.133  0.00  0.00    +0.000 C 
BRANCH  18  25
ATOM     24  C   UNL     1       4.100  17.447  21.948  0.00  0.00    +0.000 C 
ATOM     25  C   UNL     1       3.808  17.614  20.445  0.00  0.00    +0.000 C 
ATOM     26  C   UNL     1       4.487  16.482  19.664  0.00  0.00    +0.000 C 
ENDBRANCH  18  25
ENDBRANCH   1  21
BRANCH   3  27
ATOM     27  N   UNL     1      -1.175  12.184  17.611  0.00  0.00    +0.000 N 
ATOM     28  H   UNL     1      -0.537  11.807  16.907  0.00  0.00    +0.000 HD
BRANCH  27  29
ATOM     29  C   UNL     1      -2.065  11.067  17.997  0.00  0.00    +0.000 C 
ATOM     30  C   UNL     1      -1.952   9.853  17.062  0.00  0.00    +0.000 C 
ATOM     31  C   UNL     1      -2.644  10.007  15.705  0.00  0.00    +0.000 C 
ATOM     32  C   UNL     1      -3.930  10.832  15.681  0.00  0.00    +0.000 C 
ATOM     33  N   UNL     1      -4.054  11.891  16.674  0.00  0.00    +0.000 NA
ATOM     34  C   UNL     1      -3.532  11.546  18.003  0.00  0.00    +0.000 C 
ATOM     35  H   UNL     1      -5.042  12.131  16.769  0.00  0.00    +0.000 HD
ENDBRANCH  27  29
ENDBRANCH   3  27
TORSDOF 5
ENDMDL
MODEL 8
REMARK VINA RESULT:      -7.2      4.287      7.390
REMARK  Name = 
REMARK  7 active torsions:
REMARK  status: ('A' for Active; 'I' for Inactive)
REMARK    1  A    between atoms: C_1  and  C_2
REMARK    2  A    between atoms: C_2  and  C_3
REMARK    3  A    between atoms: C_2  and  N_4
REMARK    4  A    between atoms: C_7  and  C_8
REMARK    5  A    between atoms: C_10  and  N_11
REMARK    6  A    between atoms: N_11  and  C_12
REMARK    7  A    between atoms: C_18  and  C_19
REMARK                            x       y       z     vdW  Elec       q    Type
REMARK                         _______ _______ _______ _____ _____    ______ ____
ROOT
ATOM      1  C   UNL     1      -2.314  13.680  21.266  0.00  0.00    +0.000 A 
ATOM      2  N   UNL     1      -2.534  13.149  20.113  0.00  0.00    +0.000 NA
ATOM      3  C   UNL     1      -1.723  12.146  19.640  0.00  0.00    +0.000 A 
ATOM      4  C   UNL     1      -0.716  11.609  20.378  0.00  0.00    +0.000 A 
ATOM      5  C   UNL     1      -0.543  12.160  21.756  0.00  0.00    +0.000 A 
ATOM      6  O   UNL     1       0.211  11.676  22.589  0.00  0.00    +0.000 OA
ATOM      7  N   UNL     1      -1.324  13.235  22.082  0.00  0.00    +0.000 N 
ATOM      8  H   UNL     1      -1.188  13.598  23.017  0.00  0.00    +0.000 HD
ENDROOT
BRANCH   4   9
ATOM      9  C   UNL     1       0.202  10.598  19.949  0.00  0.00    +0.000 A 
ATOM     10  N   UNL     1       0.475   9.493  20.624  0.00  0.00    +0.000 NA
ATOM     11  C   UNL     1       1.289   8.637  19.900  0.00  0.00    +0.000 A 
ATOM     12  C   UNL     1       1.729   7.355  20.316  0.00  0.00    +0.000 A 
ATOM     13  C   UNL     1       2.567   6.590  19.498  0.00  0.00    +0.000 A 
ATOM     14  C   UNL     1       2.974   7.082  18.263  0.00  0.00    +0.000 A 
ATOM     15  C   UNL     1       2.543   8.338  17.821  0.00  0.00    +0.000 A 
ATOM     16  C   UNL     1       1.695   9.102  18.648  0.00  0.00    +0.000 A 
ATOM     17  S   UNL     1       0.975  10.660  18.395  0.00  0.00    +0.000 S 
ENDBRANCH   4   9
BRANCH   1  21
ATOM     18  N   UNL     1      -5.829  13.660  22.391  0.00  0.00    +0.000 NA
ATOM     19  C   UNL     1      -4.686  13.489  23.296  0.00  0.00    +0.000 C 
ATOM     20  C   UNL     1      -3.667  14.628  23.219  0.00  0.00    +0.000 C 
ATOM     21  C   UNL     1      -3.176  14.839  21.788  0.00  0.00    +0.000 C 
ATOM     22  C   UNL     1      -4.403  15.121  20.914  0.00  0.00    +0.000 C 
ATOM     23  C   UNL     1      -5.449  14.006  21.011  0.00  0.00    +0.000 C 
BRANCH  18  25
ATOM     24  C   UNL     1      -7.916  12.592  23.415  0.00  0.00    +0.000 C 
ATOM     25  C   UNL     1      -6.764  12.503  22.397  0.00  0.00    +0.000 C 
ATOM     26  C   UNL     1      -7.338  12.241  20.999  0.00  0.00    +0.000 C 
ENDBRANCH  18  25
ENDBRANCH   1  21
BRANCH   3  27
ATOM     27  N   UNL     1      -2.059  11.720  18.356  0.00  0.00    +0.000 N 
ATOM     28  H   UNL     1      -1.260  11.189  18.003  0.00  0.00    +0.000 HD
BRANCH  27  29
ATOM     29  C   UNL     1      -3.254  10.890  18.086  0.00  0.00    +0.000 C 
ATOM     30  C   UNL     1      -2.911   9.502  17.525  0.00  0.00    +0.000 C 
ATOM     31  C   UNL     1      -2.494   9.478  16.052  0.00  0.00    +0.000 C 
ATOM     32  C   UNL     1      -3.169  10.492  15.131  0.00  0.00    +0.000 C 
ATOM     33  N   UNL     1      -3.600  11.748  15.734  0.00  0.00    +0.000 NA
ATOM     34  C   UNL     1      -4.174  11.613  17.079  0.00  0.00    +0.000 C 
ATOM     35  H   UNL     1      -4.301  12.174  15.126  0.00  0.00    +0.000 HD
ENDBRANCH  27  29
ENDBRANCH   3  27
TORSDOF 5
ENDMDL
MODEL 9
REMARK VINA RESULT:      -7.2      3.113      6.430
REMARK  Name = 
REMARK  7 active torsions:
REMARK  status: ('A' for Active; 'I' for Inactive)
REMARK    1  A    between atoms: C_1  and  C_2
REMARK    2  A    between atoms: C_2  and  C_3
REMARK    3  A    between atoms: C_2  and  N_4
REMARK    4  A    between atoms: C_7  and  C_8
REMARK    5  A    between atoms: C_10  and  N_11
REMARK    6  A    between atoms: N_11  and  C_12
REMARK    7  A    between atoms: C_18  and  C_19
REMARK                            x       y       z     vdW  Elec       q    Type
REMARK                         _______ _______ _______ _____ _____    ______ ____
ROOT
ATOM      1  C   UNL     1      -0.457  13.887  19.743  0.00  0.00    +0.000 A 
ATOM      2  N   UNL     1      -0.917  13.154  18.788  0.00  0.00    +0.000 NA
ATOM      3  C   UNL     1      -0.457  11.873  18.607  0.00  0.00    +0.000 A 
ATOM      4  C   UNL     1       0.429  11.285  19.454  0.00  0.00    +0.000 A 
ATOM      5  C   UNL     1       0.870  12.109  20.619  0.00  0.00    +0.000 A 
ATOM      6  O   UNL     1       1.537  11.669  21.546  0.00  0.00    +0.000 OA
ATOM      7  N   UNL     1       0.445  13.410  20.639  0.00  0.00    +0.000 N 
ATOM      8  H   UNL     1       0.760  13.953  21.433  0.00  0.00    +0.000 HD
ENDROOT
BRANCH   4   9
ATOM      9  C   UNL     1       0.993   9.978  19.316  0.00  0.00    +0.000 A 
ATOM     10  N   UNL     1       1.704   9.569  18.277  0.00  0.00    +0.000 NA
ATOM     11  C   UNL     1       2.238   8.308  18.484  0.00  0.00    +0.000 A 
ATOM     12  C   UNL     1       3.081   7.604  17.588  0.00  0.00    +0.000 A 
ATOM     13  C   UNL     1       3.544   6.323  17.905  0.00  0.00    +0.000 A 
ATOM     14  C   UNL     1       3.182   5.729  19.109  0.00  0.00    +0.000 A 
ATOM     15  C   UNL     1       2.364   6.407  20.018  0.00  0.00    +0.000 A 
ATOM     16  C   UNL     1       1.904   7.700  19.695  0.00  0.00    +0.000 A 
ATOM     17  S   UNL     1       0.910   8.803  20.593  0.00  0.00    +0.000 S 
ENDBRANCH   4   9
BRANCH   1  21
ATOM     18  N   UNL     1       1.536  16.993  19.730  0.00  0.00    +0.000 NA
ATOM     19  C   UNL     1       0.876  16.447  18.538  0.00  0.00    +0.000 C 
ATOM     20  C   UNL     1      -0.627  16.225  18.718  0.00  0.00    +0.000 C 
ATOM     21  C   UNL     1      -0.918  15.340  19.928  0.00  0.00    +0.000 C 
ATOM     22  C   UNL     1      -0.298  16.017  21.155  0.00  0.00    +0.000 C 
ATOM     23  C   UNL     1       1.200  16.281  20.974  0.00  0.00    +0.000 C 
BRANCH  18  25
ATOM     24  C   UNL     1       3.839  16.514  20.736  0.00  0.00    +0.000 C 
ATOM     25  C   UNL     1       3.011  17.114  19.584  0.00  0.00    +0.000 C 
ATOM     26  C   UNL     1       3.491  16.525  18.251  0.00  0.00    +0.000 C 
ENDBRANCH  18  25
ENDBRANCH   1  21
BRANCH   3  27
ATOM     27  N   UNL     1      -1.012  11.236  17.498  0.00  0.00    +0.000 N 
ATOM     28  H   UNL     1      -0.246  10.764  17.015  0.00  0.00    +0.000 HD
BRANCH  27  29
ATOM     29  C   UNL     1      -2.096  10.236  17.622  0.00  0.00    +0.000 C 
ATOM     30  C   UNL     1      -2.664   9.790  16.266  0.00  0.00    +0.000 C 
ATOM     31  C   UNL     1      -3.595  10.795  15.585  0.00  0.00    +0.000 C 
ATOM     32  C   UNL     1      -4.473  11.646  16.501  0.00  0.00    +0.000 C 
ATOM     33  N   UNL     1      -3.953  11.937  17.831  0.00  0.00    +0.000 NA
ATOM     34  C   UNL     1      -3.249  10.817  18.469  0.00  0.00    +0.000 C 
ATOM     35  H   UNL     1      -4.734  12.210  18.430  0.00  0.00    +0.000 HD
ENDBRANCH  27  29
ENDBRANCH   3  27
TORSDOF 5
ENDMDL
