MODEL 1
REMARK VINA RESULT:      -7.0      0.000      0.000
REMARK  Name = 
REMARK  6 active torsions:
REMARK  status: ('A' for Active; 'I' for Inactive)
REMARK    1  A    between atoms: C_1  and  C_2
REMARK    2  A    between atoms: C_2  and  C_3
REMARK    3  A    between atoms: C_2  and  C_4
REMARK    4  A    between atoms: C_2  and  O_5
REMARK    5  A    between atoms: O_5  and  C_6
REMARK    6  A    between atoms: N_11  and  C_12
REMARK                            x       y       z     vdW  Elec       q    Type
REMARK                         _______ _______ _______ _____ _____    ______ ____
ROOT
ATOM      1  C   UNL     1      -0.126  11.288  21.761  0.00  0.00    +0.000 C 
ATOM      2  O   UNL     1      -0.264  11.215  22.975  0.00  0.00    +0.000 OA
ATOM      3  N   UNL     1       0.655  10.402  21.059  0.00  0.00    +0.000 N 
ATOM      4  C   UNL     1       1.320   9.319  21.789  0.00  0.00    +0.000 C 
ATOM      5  C   UNL     1       1.219   7.988  21.026  0.00  0.00    +0.000 C 
ATOM      6  N   UNL     1       1.744   8.191  19.669  0.00  0.00    +0.000 N 
ATOM      7  C   UNL     1       1.042   9.236  18.896  0.00  0.00    +0.000 C 
ATOM      8  C   UNL     1       1.072  10.573  19.664  0.00  0.00    +0.000 C 
ENDROOT
BRANCH   6   9
ATOM      9  C   UNL     1       2.475   7.221  19.015  0.00  0.00    +0.000 A 
ATOM     10  C   UNL     1       2.312   5.874  19.378  0.00  0.00    +0.000 A 
ATOM     11  C   UNL     1       2.975   4.843  18.710  0.00  0.00    +0.000 A 
ATOM     12  C   UNL     1       3.846   5.152  17.675  0.00  0.00    +0.000 A 
ATOM     13  C   UNL     1       4.036   6.478  17.282  0.00  0.00    +0.000 A 
ATOM     14  C   UNL     1       3.334   7.500  17.942  0.00  0.00    +0.000 A 
ATOM     15  C   UNL     1       4.909   6.764  16.092  0.00  0.00    +0.000 C 
ATOM     16  C   UNL     1       6.042   5.754  16.004  0.00  0.00    +0.000 C 
ATOM     17  C   UNL     1       5.534   4.337  16.112  0.00  0.00    +0.000 C 
ATOM     18  O   UNL     1       6.059   3.399  15.516  0.00  0.00    +0.000 OA
ATOM     19  N   UNL     1       4.517   4.126  17.008  0.00  0.00    +0.000 N 
ATOM     20  H   UNL     1       4.273   3.159  17.181  0.00  0.00    +0.000 HD
ENDBRANCH   6   9
BRANCH   1  21
ATOM     21  O   UNL     1      -0.757  12.208  20.977  0.00  0.00    +0.000 OA
BRANCH  21  23
ATOM     22  C   UNL     1       1.021  13.858  21.373  0.00  0.00    +0.000 C 
ATOM     23  C   UNL     1      -0.485  13.618  21.206  0.00  0.00    +0.000 C 
ATOM     24  C   UNL     1      -1.307  14.164  22.384  0.00  0.00    +0.000 C 
ATOM     25  C   UNL     1      -0.944  14.359  19.938  0.00  0.00    +0.000 C 
ENDBRANCH  21  23
ENDBRANCH   1  21
TORSDOF 3
ENDMDL
MODEL 2
REMARK VINA RESULT:      -7.0      1.961      3.303
REMARK  Name = 
REMARK  6 active torsions:
REMARK  status: ('A' for Active; 'I' for Inactive)
REMARK    1  A    between atoms: C_1  and  C_2
REMARK    2  A    between atoms: C_2  and  C_3
REMARK    3  A    between atoms: C_2  and  C_4
REMARK    4  A    between atoms: C_2  and  O_5
REMARK    5  A    between atoms: O_5  and  C_6
REMARK    6  A    between atoms: N_11  and  C_12
REMARK                            x       y       z     vdW  Elec       q    Type
REMARK                         _______ _______ _______ _____ _____    ______ ____
ROOT
ATOM      1  C   UNL     1      -0.913  11.868  19.173  0.00  0.00    +0.000 C 
ATOM      2  O   UNL     1      -1.185  12.380  18.095  0.00  0.00    +0.000 OA
ATOM      3  N   UNL     1      -0.302  10.642  19.266  0.00  0.00    +0.000 N 
ATOM      4  C   UNL     1       0.060   9.940  18.030  0.00  0.00    +0.000 C 
ATOM      5  C   UNL     1       1.459   9.311  18.135  0.00  0.00    +0.000 C 
ATOM      6  N   UNL     1       1.495   8.457  19.329  0.00  0.00    +0.000 N 
ATOM      7  C   UNL     1       1.196   9.163  20.592  0.00  0.00    +0.000 C 
ATOM      8  C   UNL     1      -0.178   9.857  20.497  0.00  0.00    +0.000 C 
ENDROOT
BRANCH   6   9
ATOM      9  C   UNL     1       2.184   7.261  19.351  0.00  0.00    +0.000 A 
ATOM     10  C   UNL     1       3.227   7.049  18.435  0.00  0.00    +0.000 A 
ATOM     11  C   UNL     1       4.001   5.888  18.453  0.00  0.00    +0.000 A 
ATOM     12  C   UNL     1       3.718   4.895  19.378  0.00  0.00    +0.000 A 
ATOM     13  C   UNL     1       2.690   5.065  20.307  0.00  0.00    +0.000 A 
ATOM     14  C   UNL     1       1.944   6.255  20.299  0.00  0.00    +0.000 A 
ATOM     15  C   UNL     1       2.479   4.012  21.359  0.00  0.00    +0.000 C 
ATOM     16  C   UNL     1       2.815   2.634  20.810  0.00  0.00    +0.000 C 
ATOM     17  C   UNL     1       4.164   2.617  20.134  0.00  0.00    +0.000 C 
ATOM     18  O   UNL     1       4.900   1.633  20.150  0.00  0.00    +0.000 OA
ATOM     19  N   UNL     1       4.484   3.728  19.395  0.00  0.00    +0.000 N 
ATOM     20  H   UNL     1       5.322   3.659  18.832  0.00  0.00    +0.000 HD
ENDBRANCH   6   9
BRANCH   1  21
ATOM     21  O   UNL     1      -1.136  12.466  20.377  0.00  0.00    +0.000 OA
BRANCH  21  23
ATOM     22  C   UNL     1      -0.893  14.904  20.174  0.00  0.00    +0.000 C 
ATOM     23  C   UNL     1      -0.313  13.606  20.750  0.00  0.00    +0.000 C 
ATOM     24  C   UNL     1       1.157  13.388  20.357  0.00  0.00    +0.000 C 
ATOM     25  C   UNL     1      -0.374  13.701  22.284  0.00  0.00    +0.000 C 
ENDBRANCH  21  23
ENDBRANCH   1  21
TORSDOF 3
ENDMDL
MODEL 3
REMARK VINA RESULT:      -6.8      0.932      1.659
REMARK  Name = 
REMARK  6 active torsions:
REMARK  status: ('A' for Active; 'I' for Inactive)
REMARK    1  A    between atoms: C_1  and  C_2
REMARK    2  A    between atoms: C_2  and  C_3
REMARK    3  A    between atoms: C_2  and  C_4
REMARK    4  A    between atoms: C_2  and  O_5
REMARK    5  A    between atoms: O_5  and  C_6
REMARK    6  A    between atoms: N_11  and  C_12
REMARK                            x       y       z     vdW  Elec       q    Type
REMARK                         _______ _______ _______ _____ _____    ______ ____
ROOT
ATOM      1  C   UNL     1      -0.559  11.027  22.274  0.00  0.00    +0.000 C 
ATOM      2  O   UNL     1      -0.573  10.833  23.483  0.00  0.00    +0.000 OA
ATOM      3  N   UNL     1       0.273  10.332  21.432  0.00  0.00    +0.000 N 
ATOM      4  C   UNL     1       1.153   9.306  22.000  0.00  0.00    +0.000 C 
ATOM      5  C   UNL     1       1.176   8.043  21.123  0.00  0.00    +0.000 C 
ATOM      6  N   UNL     1       1.538   8.437  19.755  0.00  0.00    +0.000 N 
ATOM      7  C   UNL     1       0.625   9.423  19.142  0.00  0.00    +0.000 C 
ATOM      8  C   UNL     1       0.532  10.680  20.031  0.00  0.00    +0.000 C 
ENDROOT
BRANCH   6   9
ATOM      9  C   UNL     1       2.339   7.647  18.955  0.00  0.00    +0.000 A 
ATOM     10  C   UNL     1       3.003   8.224  17.860  0.00  0.00    +0.000 A 
ATOM     11  C   UNL     1       3.876   7.491  17.055  0.00  0.00    +0.000 A 
ATOM     12  C   UNL     1       4.075   6.144  17.318  0.00  0.00    +0.000 A 
ATOM     13  C   UNL     1       3.436   5.530  18.396  0.00  0.00    +0.000 A 
ATOM     14  C   UNL     1       2.588   6.292  19.218  0.00  0.00    +0.000 A 
ATOM     15  C   UNL     1       3.755   4.096  18.710  0.00  0.00    +0.000 C 
ATOM     16  C   UNL     1       4.049   3.322  17.435  0.00  0.00    +0.000 C 
ATOM     17  C   UNL     1       5.056   4.037  16.569  0.00  0.00    +0.000 C 
ATOM     18  O   UNL     1       5.870   3.440  15.868  0.00  0.00    +0.000 OA
ATOM     19  N   UNL     1       4.942   5.404  16.512  0.00  0.00    +0.000 N 
ATOM     20  H   UNL     1       5.524   5.868  15.827  0.00  0.00    +0.000 HD
ENDBRANCH   6   9
BRANCH   1  21
ATOM     21  O   UNL     1      -1.387  11.902  21.635  0.00  0.00    +0.000 OA
BRANCH  21  23
ATOM     22  C   UNL     1       0.135  13.787  22.051  0.00  0.00    +0.000 C 
ATOM     23  C   UNL     1      -1.321  13.309  21.996  0.00  0.00    +0.000 C 
ATOM     24  C   UNL     1      -2.087  13.590  23.299  0.00  0.00    +0.000 C 
ATOM     25  C   UNL     1      -2.029  14.079  20.867  0.00  0.00    +0.000 C 
ENDBRANCH  21  23
ENDBRANCH   1  21
TORSDOF 3
ENDMDL
MODEL 4
REMARK VINA RESULT:      -6.8      2.278      8.937
REMARK  Name = 
REMARK  6 active torsions:
REMARK  status: ('A' for Active; 'I' for Inactive)
REMARK    1  A    between atoms: C_1  and  C_2
REMARK    2  A    between atoms: C_2  and  C_3
REMARK    3  A    between atoms: C_2  and  C_4
REMARK    4  A    between atoms: C_2  and  O_5
REMARK    5  A    between atoms: O_5  and  C_6
REMARK    6  A    between atoms: N_11  and  C_12
REMARK                            x       y       z     vdW  Elec       q    Type
REMARK                         _______ _______ _______ _____ _____    ______ ____
ROOT
ATOM      1  C   UNL     1       4.269   5.899  18.656  0.00  0.00    +0.000 C 
ATOM      2  O   UNL     1       4.392   5.027  19.506  0.00  0.00    +0.000 OA
ATOM      3  N   UNL     1       3.217   6.781  18.661  0.00  0.00    +0.000 N 
ATOM      4  C   UNL     1       2.227   6.690  19.738  0.00  0.00    +0.000 C 
ATOM      5  C   UNL     1       1.843   8.082  20.264  0.00  0.00    +0.000 C 
ATOM      6  N   UNL     1       1.401   8.901  19.127  0.00  0.00    +0.000 N 
ATOM      7  C   UNL     1       2.412   9.057  18.060  0.00  0.00    +0.000 C 
ATOM      8  C   UNL     1       2.863   7.673  17.553  0.00  0.00    +0.000 C 
ENDROOT
BRANCH   6   9
ATOM      9  C   UNL     1       0.367   9.807  19.237  0.00  0.00    +0.000 A 
ATOM     10  C   UNL     1      -0.437  10.075  18.117  0.00  0.00    +0.000 A 
ATOM     11  C   UNL     1      -1.537  10.932  18.184  0.00  0.00    +0.000 A 
ATOM     12  C   UNL     1      -1.833  11.566  19.382  0.00  0.00    +0.000 A 
ATOM     13  C   UNL     1      -1.061  11.328  20.519  0.00  0.00    +0.000 A 
ATOM     14  C   UNL     1       0.021  10.435  20.443  0.00  0.00    +0.000 A 
ATOM     15  C   UNL     1      -1.473  11.954  21.822  0.00  0.00    +0.000 C 
ATOM     16  C   UNL     1      -2.112  13.313  21.584  0.00  0.00    +0.000 C 
ATOM     17  C   UNL     1      -3.185  13.246  20.526  0.00  0.00    +0.000 C 
ATOM     18  O   UNL     1      -4.191  13.953  20.557  0.00  0.00    +0.000 OA
ATOM     19  N   UNL     1      -2.927  12.430  19.453  0.00  0.00    +0.000 N 
ATOM     20  H   UNL     1      -3.580  12.492  18.683  0.00  0.00    +0.000 HD
ENDBRANCH   6   9
BRANCH   1  21
ATOM     21  O   UNL     1       5.170   6.120  17.657  0.00  0.00    +0.000 OA
BRANCH  21  23
ATOM     22  C   UNL     1       4.314   4.000  16.753  0.00  0.00    +0.000 C 
ATOM     23  C   UNL     1       5.434   5.048  16.711  0.00  0.00    +0.000 C 
ATOM     24  C   UNL     1       6.826   4.435  16.931  0.00  0.00    +0.000 C 
ATOM     25  C   UNL     1       5.427   5.691  15.313  0.00  0.00    +0.000 C 
ENDBRANCH  21  23
ENDBRANCH   1  21
TORSDOF 3
ENDMDL
MODEL 5
REMARK VINA RESULT:      -6.8      1.946      2.663
REMARK  Name = 
REMARK  6 active torsions:
REMARK  status: ('A' for Active; 'I' for Inactive)
REMARK    1  A    between atoms: C_1  and  C_2
REMARK    2  A    between atoms: C_2  and  C_3
REMARK    3  A    between atoms: C_2  and  C_4
REMARK    4  A    between atoms: C_2  and  O_5
REMARK    5  A    between atoms: O_5  and  C_6
REMARK    6  A    between atoms: N_11  and  C_12
REMARK                            x       y       z     vdW  Elec       q    Type
REMARK                         _______ _______ _______ _____ _____    ______ ____
ROOT
ATOM      1  C   UNL     1       0.165  12.133  19.846  0.00  0.00    +0.000 C 
ATOM      2  O   UNL     1       0.061  12.785  18.815  0.00  0.00    +0.000 OA
ATOM      3  N   UNL     1       0.439  10.788  19.836  0.00  0.00    +0.000 N 
ATOM      4  C   UNL     1       0.642  10.121  18.546  0.00  0.00    +0.000 C 
ATOM      5  C   UNL     1       1.831   9.147  18.602  0.00  0.00    +0.000 C 
ATOM      6  N   UNL     1       1.616   8.217  19.718  0.00  0.00    +0.000 N 
ATOM      7  C   UNL     1       1.473   8.869  21.036  0.00  0.00    +0.000 C 
ATOM      8  C   UNL     1       0.326   9.899  20.996  0.00  0.00    +0.000 C 
ENDROOT
BRANCH   6   9
ATOM      9  C   UNL     1       1.975   6.887  19.640  0.00  0.00    +0.000 A 
ATOM     10  C   UNL     1       1.749   6.046  20.743  0.00  0.00    +0.000 A 
ATOM     11  C   UNL     1       2.031   4.680  20.700  0.00  0.00    +0.000 A 
ATOM     12  C   UNL     1       2.580   4.134  19.550  0.00  0.00    +0.000 A 
ATOM     13  C   UNL     1       2.820   4.933  18.431  0.00  0.00    +0.000 A 
ATOM     14  C   UNL     1       2.497   6.300  18.479  0.00  0.00    +0.000 A 
ATOM     15  C   UNL     1       3.321   4.287  17.170  0.00  0.00    +0.000 C 
ATOM     16  C   UNL     1       4.226   3.109  17.496  0.00  0.00    +0.000 C 
ATOM     17  C   UNL     1       3.588   2.176  18.496  0.00  0.00    +0.000 C 
ATOM     18  O   UNL     1       3.774   0.961  18.481  0.00  0.00    +0.000 OA
ATOM     19  N   UNL     1       2.871   2.769  19.505  0.00  0.00    +0.000 N 
ATOM     20  H   UNL     1       2.563   2.157  20.248  0.00  0.00    +0.000 HD
ENDBRANCH   6   9
BRANCH   1  21
ATOM     21  O   UNL     1       0.070  12.668  21.097  0.00  0.00    +0.000 OA
BRANCH  21  23
ATOM     22  C   UNL     1      -2.369  12.498  20.841  0.00  0.00    +0.000 C 
ATOM     23  C   UNL     1      -1.203  13.232  21.516  0.00  0.00    +0.000 C 
ATOM     24  C   UNL     1      -1.247  14.751  21.285  0.00  0.00    +0.000 C 
ATOM     25  C   UNL     1      -1.307  12.990  23.032  0.00  0.00    +0.000 C 
ENDBRANCH  21  23
ENDBRANCH   1  21
TORSDOF 3
ENDMDL
MODEL 6
REMARK VINA RESULT:      -6.8      1.793      3.079
REMARK  Name = 
REMARK  6 active torsions:
REMARK  status: ('A' for Active; 'I' for Inactive)
REMARK    1  A    between atoms: C_1  and  C_2
REMARK    2  A    between atoms: C_2  and  C_3
REMARK    3  A    between atoms: C_2  and  C_4
REMARK    4  A    between atoms: C_2  and  O_5
REMARK    5  A    between atoms: O_5  and  C_6
REMARK    6  A    between atoms: N_11  and  C_12
REMARK                            x       y       z     vdW  Elec       q    Type
REMARK                         _______ _______ _______ _____ _____    ______ ____
ROOT
ATOM      1  C   UNL     1       0.191  11.819  19.813  0.00  0.00    +0.000 C 
ATOM      2  O   UNL     1       0.045  12.599  18.882  0.00  0.00    +0.000 OA
ATOM      3  N   UNL     1       0.567  10.512  19.620  0.00  0.00    +0.000 N 
ATOM      4  C   UNL     1       0.829  10.050  18.254  0.00  0.00    +0.000 C 
ATOM      5  C   UNL     1       2.088   9.170  18.194  0.00  0.00    +0.000 C 
ATOM      6  N   UNL     1       1.937   8.078  19.165  0.00  0.00    +0.000 N 
ATOM      7  C   UNL     1       1.737   8.527  20.559  0.00  0.00    +0.000 C 
ATOM      8  C   UNL     1       0.514   9.463  20.642  0.00  0.00    +0.000 C 
ENDROOT
BRANCH   6   9
ATOM      9  C   UNL     1       2.397   6.803  18.909  0.00  0.00    +0.000 A 
ATOM     10  C   UNL     1       3.428   6.617  17.974  0.00  0.00    +0.000 A 
ATOM     11  C   UNL     1       3.979   5.360  17.721  0.00  0.00    +0.000 A 
ATOM     12  C   UNL     1       3.477   4.251  18.386  0.00  0.00    +0.000 A 
ATOM     13  C   UNL     1       2.453   4.391  19.323  0.00  0.00    +0.000 A 
ATOM     14  C   UNL     1       1.935   5.668  19.592  0.00  0.00    +0.000 A 
ATOM     15  C   UNL     1       2.005   3.182  20.097  0.00  0.00    +0.000 C 
ATOM     16  C   UNL     1       2.114   1.929  19.241  0.00  0.00    +0.000 C 
ATOM     17  C   UNL     1       3.469   1.818  18.586  0.00  0.00    +0.000 C 
ATOM     18  O   UNL     1       4.014   0.737  18.373  0.00  0.00    +0.000 OA
ATOM     19  N   UNL     1       4.019   2.990  18.131  0.00  0.00    +0.000 N 
ATOM     20  H   UNL     1       4.856   2.897  17.572  0.00  0.00    +0.000 HD
ENDBRANCH   6   9
BRANCH   1  21
ATOM     21  O   UNL     1       0.047  12.163  21.124  0.00  0.00    +0.000 OA
BRANCH  21  23
ATOM     22  C   UNL     1      -1.610  11.703  22.880  0.00  0.00    +0.000 C 
ATOM     23  C   UNL     1      -1.281  12.500  21.612  0.00  0.00    +0.000 C 
ATOM     24  C   UNL     1      -2.342  12.329  20.513  0.00  0.00    +0.000 C 
ATOM     25  C   UNL     1      -1.240  13.991  21.988  0.00  0.00    +0.000 C 
ENDBRANCH  21  23
ENDBRANCH   1  21
TORSDOF 3
ENDMDL
MODEL 7
REMARK VINA RESULT:      -6.6      2.009      8.768
REMARK  Name = 
REMARK  6 active torsions:
REMARK  status: ('A' for Active; 'I' for Inactive)
REMARK    1  A    between atoms: C_1  and  C_2
REMARK    2  A    between atoms: C_2  and  C_3
REMARK    3  A    between atoms: C_2  and  C_4
REMARK    4  A    between atoms: C_2  and  O_5
REMARK    5  A    between atoms: O_5  and  C_6
REMARK    6  A    between atoms: N_11  and  C_12
REMARK                            x       y       z     vdW  Elec       q    Type
REMARK                         _______ _______ _______ _____ _____    ______ ____
ROOT
ATOM      1  C   UNL     1       3.991   4.869  18.567  0.00  0.00    +0.000 C 
ATOM      2  O   UNL     1       4.054   3.916  19.333  0.00  0.00    +0.000 OA
ATOM      3  N   UNL     1       3.100   5.897  18.751  0.00  0.00    +0.000 N 
ATOM      4  C   UNL     1       2.215   5.860  19.920  0.00  0.00    +0.000 C 
ATOM      5  C   UNL     1       2.111   7.243  20.584  0.00  0.00    +0.000 C 
ATOM      6  N   UNL     1       1.699   8.217  19.565  0.00  0.00    +0.000 N 
ATOM      7  C   UNL     1       2.615   8.313  18.410  0.00  0.00    +0.000 C 
ATOM      8  C   UNL     1       2.789   6.927  17.756  0.00  0.00    +0.000 C 
ENDROOT
BRANCH   6   9
ATOM      9  C   UNL     1       0.838   9.256  19.853  0.00  0.00    +0.000 A 
ATOM     10  C   UNL     1       0.301  10.018  18.802  0.00  0.00    +0.000 A 
ATOM     11  C   UNL     1      -0.624  11.038  19.026  0.00  0.00    +0.000 A 
ATOM     12  C   UNL     1      -1.007  11.336  20.326  0.00  0.00    +0.000 A 
ATOM     13  C   UNL     1      -0.498  10.604  21.400  0.00  0.00    +0.000 A 
ATOM     14  C   UNL     1       0.406   9.557  21.153  0.00  0.00    +0.000 A 
ATOM     15  C   UNL     1      -1.012  10.890  22.782  0.00  0.00    +0.000 C 
ATOM     16  C   UNL     1      -1.349  12.365  22.934  0.00  0.00    +0.000 C 
ATOM     17  C   UNL     1      -2.218  12.857  21.803  0.00  0.00    +0.000 C 
ATOM     18  O   UNL     1      -3.072  13.728  21.954  0.00  0.00    +0.000 OA
ATOM     19  N   UNL     1      -1.926  12.361  20.556  0.00  0.00    +0.000 N 
ATOM     20  H   UNL     1      -2.414  12.794  19.783  0.00  0.00    +0.000 HD
ENDBRANCH   6   9
BRANCH   1  21
ATOM     21  O   UNL     1       4.816   5.039  17.495  0.00  0.00    +0.000 OA
BRANCH  21  23
ATOM     22  C   UNL     1       6.540   5.393  19.212  0.00  0.00    +0.000 C 
ATOM     23  C   UNL     1       6.168   5.521  17.729  0.00  0.00    +0.000 C 
ATOM     24  C   UNL     1       6.355   6.949  17.193  0.00  0.00    +0.000 C 
ATOM     25  C   UNL     1       7.102   4.598  16.926  0.00  0.00    +0.000 C 
ENDBRANCH  21  23
ENDBRANCH   1  21
TORSDOF 3
ENDMDL
MODEL 8
REMARK VINA RESULT:      -6.6      1.902      3.218
REMARK  Name = 
REMARK  6 active torsions:
REMARK  status: ('A' for Active; 'I' for Inactive)
REMARK    1  A    between atoms: C_1  and  C_2
REMARK    2  A    between atoms: C_2  and  C_3
REMARK    3  A    between atoms: C_2  and  C_4
REMARK    4  A    between atoms: C_2  and  O_5
REMARK    5  A    between atoms: O_5  and  C_6
REMARK    6  A    between atoms: N_11  and  C_12
REMARK                            x       y       z     vdW  Elec       q    Type
REMARK                         _______ _______ _______ _____ _____    ______ ____
ROOT
ATOM      1  C   UNL     1      -0.481  12.335  20.377  0.00  0.00    +0.000 C 
ATOM      2  O   UNL     1      -0.552  13.150  19.466  0.00  0.00    +0.000 OA
ATOM      3  N   UNL     1      -0.064  11.044  20.172  0.00  0.00    +0.000 N 
ATOM      4  C   UNL     1       0.337  10.640  18.821  0.00  0.00    +0.000 C 
ATOM      5  C   UNL     1       1.613   9.782  18.850  0.00  0.00    +0.000 C 
ATOM      6  N   UNL     1       1.389   8.651  19.760  0.00  0.00    +0.000 N 
ATOM      7  C   UNL     1       1.047   9.041  21.144  0.00  0.00    +0.000 C 
ATOM      8  C   UNL     1      -0.195   9.954  21.144  0.00  0.00    +0.000 C 
ENDROOT
BRANCH   6   9
ATOM      9  C   UNL     1       1.896   7.393  19.502  0.00  0.00    +0.000 A 
ATOM     10  C   UNL     1       2.604   7.167  18.310  0.00  0.00    +0.000 A 
ATOM     11  C   UNL     1       3.195   5.936  18.024  0.00  0.00    +0.000 A 
ATOM     12  C   UNL     1       3.057   4.889  18.923  0.00  0.00    +0.000 A 
ATOM     13  C   UNL     1       2.361   5.071  20.120  0.00  0.00    +0.000 A 
ATOM     14  C   UNL     1       1.803   6.327  20.408  0.00  0.00    +0.000 A 
ATOM     15  C   UNL     1       2.320   3.944  21.114  0.00  0.00    +0.000 C 
ATOM     16  C   UNL     1       2.307   2.601  20.401  0.00  0.00    +0.000 C 
ATOM     17  C   UNL     1       3.398   2.512  19.363  0.00  0.00    +0.000 C 
ATOM     18  O   UNL     1       3.976   1.460  19.097  0.00  0.00    +0.000 OA
ATOM     19  N   UNL     1       3.639   3.653  18.638  0.00  0.00    +0.000 N 
ATOM     20  H   UNL     1       4.269   3.554  17.853  0.00  0.00    +0.000 HD
ENDBRANCH   6   9
BRANCH   1  21
ATOM     21  O   UNL     1      -0.757  12.626  21.680  0.00  0.00    +0.000 OA
BRANCH  21  23
ATOM     22  C   UNL     1      -3.076  12.711  20.869  0.00  0.00    +0.000 C 
ATOM     23  C   UNL     1      -2.121  12.982  22.038  0.00  0.00    +0.000 C 
ATOM     24  C   UNL     1      -2.207  14.428  22.551  0.00  0.00    +0.000 C 
ATOM     25  C   UNL     1      -2.521  12.054  23.199  0.00  0.00    +0.000 C 
ENDBRANCH  21  23
ENDBRANCH   1  21
TORSDOF 3
ENDMDL
MODEL 9
REMARK VINA RESULT:      -6.6      1.937      2.884
REMARK  Name = 
REMARK  6 active torsions:
REMARK  status: ('A' for Active; 'I' for Inactive)
REMARK    1  A    between atoms: C_1  and  C_2
REMARK    2  A    between atoms: C_2  and  C_3
REMARK    3  A    between atoms: C_2  and  C_4
REMARK    4  A    between atoms: C_2  and  O_5
REMARK    5  A    between atoms: O_5  and  C_6
REMARK    6  A    between atoms: N_11  and  C_12
REMARK                            x       y       z     vdW  Elec       q    Type
REMARK                         _______ _______ _______ _____ _____    ______ ____
ROOT
ATOM      1  C   UNL     1      -0.147  12.166  21.907  0.00  0.00    +0.000 C 
ATOM      2  O   UNL     1      -0.704  12.229  22.995  0.00  0.00    +0.000 OA
ATOM      3  N   UNL     1       0.471  11.021  21.468  0.00  0.00    +0.000 N 
ATOM      4  C   UNL     1       0.435   9.830  22.323  0.00  0.00    +0.000 C 
ATOM      5  C   UNL     1       0.150   8.562  21.502  0.00  0.00    +0.000 C 
ATOM      6  N   UNL     1       1.139   8.479  20.419  0.00  0.00    +0.000 N 
ATOM      7  C   UNL     1       1.145   9.643  19.509  0.00  0.00    +0.000 C 
ATOM      8  C   UNL     1       1.368  10.941  20.312  0.00  0.00    +0.000 C 
ENDROOT
BRANCH   6   9
ATOM      9  C   UNL     1       1.669   7.275  20.003  0.00  0.00    +0.000 A 
ATOM     10  C   UNL     1       2.504   7.242  18.874  0.00  0.00    +0.000 A 
ATOM     11  C   UNL     1       3.120   6.066  18.445  0.00  0.00    +0.000 A 
ATOM     12  C   UNL     1       2.882   4.883  19.130  0.00  0.00    +0.000 A 
ATOM     13  C   UNL     1       2.060   4.871  20.258  0.00  0.00    +0.000 A 
ATOM     14  C   UNL     1       1.476   6.071  20.697  0.00  0.00    +0.000 A 
ATOM     15  C   UNL     1       1.907   3.593  21.032  0.00  0.00    +0.000 C 
ATOM     16  C   UNL     1       1.971   2.392  20.101  0.00  0.00    +0.000 C 
ATOM     17  C   UNL     1       3.169   2.460  19.187  0.00  0.00    +0.000 C 
ATOM     18  O   UNL     1       3.770   1.456  18.808  0.00  0.00    +0.000 OA
ATOM     19  N   UNL     1       3.490   3.702  18.701  0.00  0.00    +0.000 N 
ATOM     20  H   UNL     1       4.203   3.726  17.983  0.00  0.00    +0.000 HD
ENDBRANCH   6   9
BRANCH   1  21
ATOM     21  O   UNL     1      -0.120  13.188  21.005  0.00  0.00    +0.000 OA
BRANCH  21  23
ATOM     22  C   UNL     1      -1.929  14.798  20.585  0.00  0.00    +0.000 C 
ATOM     23  C   UNL     1      -1.310  13.445  20.211  0.00  0.00    +0.000 C 
ATOM     24  C   UNL     1      -2.314  12.286  20.314  0.00  0.00    +0.000 C 
ATOM     25  C   UNL     1      -0.845  13.526  18.747  0.00  0.00    +0.000 C 
ENDBRANCH  21  23
ENDBRANCH   1  21
TORSDOF 3
ENDMDL
