MODEL 1
REMARK VINA RESULT:      -5.6      0.000      0.000
REMARK  Name = 
REMARK  3 active torsions:
REMARK  status: ('A' for Active; 'I' for Inactive)
REMARK    1  A    between atoms: C_2  and  C_3
REMARK    2  A    between atoms: C_8  and  C_9
REMARK    3  A    between atoms: C_9  and  O_11
REMARK                            x       y       z     vdW  Elec       q    Type
REMARK                         _______ _______ _______ _____ _____    ______ ____
ROOT
ATOM      1  C   UNL     1       1.778   4.127  20.308  0.00  0.00    +0.000 A 
ATOM      2  C   UNL     1       2.152   5.445  20.625  0.00  0.00    +0.000 A 
ATOM      3  C   UNL     1       2.435   6.367  19.618  0.00  0.00    +0.000 A 
ATOM      4  C   UNL     1       2.365   5.983  18.283  0.00  0.00    +0.000 A 
ATOM      5  C   UNL     1       2.011   4.673  17.954  0.00  0.00    +0.000 A 
ATOM      6  C   UNL     1       1.695   3.739  18.960  0.00  0.00    +0.000 A 
ENDROOT
BRANCH   1   8
ATOM      7  O   UNL     1       2.351   2.601  22.020  0.00  0.00    +0.000 OA
ATOM      8  C   UNL     1       1.465   3.227  21.446  0.00  0.00    +0.000 C 
ENDBRANCH   1   8
BRANCH   6   9
ATOM      9  C   UNL     1       1.351   2.351  18.561  0.00  0.00    +0.000 C 
ATOM     10  O   UNL     1       0.208   1.972  18.382  0.00  0.00    +0.000 OA
BRANCH   9  11
ATOM     11  O   UNL     1       2.417   1.537  18.405  0.00  0.00    +0.000 OA
ATOM     12  H   UNL     1       3.058   1.506  19.139  0.00  0.00    +0.000 HD
ENDBRANCH   9  11
ENDBRANCH   6   9
TORSDOF 3
ENDMDL
MODEL 2
REMARK VINA RESULT:      -5.3      2.387      3.126
REMARK  Name = 
REMARK  3 active torsions:
REMARK  status: ('A' for Active; 'I' for Inactive)
REMARK    1  A    between atoms: C_2  and  C_3
REMARK    2  A    between atoms: C_8  and  C_9
REMARK    3  A    between atoms: C_9  and  O_11
REMARK                            x       y       z     vdW  Elec       q    Type
REMARK                         _______ _______ _______ _____ _____    ______ ____
ROOT
ATOM      1  C   UNL     1       3.731   4.445  19.452  0.00  0.00    +0.000 A 
ATOM      2  C   UNL     1       2.959   5.551  19.847  0.00  0.00    +0.000 A 
ATOM      3  C   UNL     1       1.735   5.373  20.490  0.00  0.00    +0.000 A 
ATOM      4  C   UNL     1       1.257   4.090  20.735  0.00  0.00    +0.000 A 
ATOM      5  C   UNL     1       2.005   2.981  20.333  0.00  0.00    +0.000 A 
ATOM      6  C   UNL     1       3.257   3.147  19.707  0.00  0.00    +0.000 A 
ENDROOT
BRANCH   1   8
ATOM      7  O   UNL     1       6.092   4.551  19.400  0.00  0.00    +0.000 OA
ATOM      8  C   UNL     1       5.034   4.734  18.803  0.00  0.00    +0.000 C 
ENDBRANCH   1   8
BRANCH   6   9
ATOM      9  C   UNL     1       4.002   1.938  19.274  0.00  0.00    +0.000 C 
ATOM     10  O   UNL     1       3.668   1.252  18.325  0.00  0.00    +0.000 OA
BRANCH   9  11
ATOM     11  O   UNL     1       5.094   1.662  20.019  0.00  0.00    +0.000 OA
ATOM     12  H   UNL     1       5.295   0.721  20.173  0.00  0.00    +0.000 HD
ENDBRANCH   9  11
ENDBRANCH   6   9
TORSDOF 3
ENDMDL
MODEL 3
REMARK VINA RESULT:      -5.3      0.344      1.018
REMARK  Name = 
REMARK  3 active torsions:
REMARK  status: ('A' for Active; 'I' for Inactive)
REMARK    1  A    between atoms: C_2  and  C_3
REMARK    2  A    between atoms: C_8  and  C_9
REMARK    3  A    between atoms: C_9  and  O_11
REMARK                            x       y       z     vdW  Elec       q    Type
REMARK                         _______ _______ _______ _____ _____    ______ ____
ROOT
ATOM      1  C   UNL     1       1.823   4.136  20.251  0.00  0.00    +0.000 A 
ATOM      2  C   UNL     1       1.947   5.491  20.605  0.00  0.00    +0.000 A 
ATOM      3  C   UNL     1       2.264   6.452  19.646  0.00  0.00    +0.000 A 
ATOM      4  C   UNL     1       2.476   6.074  18.325  0.00  0.00    +0.000 A 
ATOM      5  C   UNL     1       2.373   4.729  17.962  0.00  0.00    +0.000 A 
ATOM      6  C   UNL     1       2.027   3.751  18.914  0.00  0.00    +0.000 A 
ENDROOT
BRANCH   1   8
ATOM      7  O   UNL     1       2.309   2.678  22.048  0.00  0.00    +0.000 OA
ATOM      8  C   UNL     1       1.452   3.190  21.333  0.00  0.00    +0.000 C 
ENDBRANCH   1   8
BRANCH   6   9
ATOM      9  C   UNL     1       1.956   2.331  18.485  0.00  0.00    +0.000 C 
ATOM     10  O   UNL     1       2.941   1.632  18.329  0.00  0.00    +0.000 OA
BRANCH   9  11
ATOM     11  O   UNL     1       0.702   1.872  18.288  0.00  0.00    +0.000 OA
ATOM     12  H   UNL     1       0.026   2.147  18.934  0.00  0.00    +0.000 HD
ENDBRANCH   9  11
ENDBRANCH   6   9
TORSDOF 3
ENDMDL
MODEL 4
REMARK VINA RESULT:      -5.3      1.513      1.754
REMARK  Name = 
REMARK  3 active torsions:
REMARK  status: ('A' for Active; 'I' for Inactive)
REMARK    1  A    between atoms: C_2  and  C_3
REMARK    2  A    between atoms: C_8  and  C_9
REMARK    3  A    between atoms: C_9  and  O_11
REMARK                            x       y       z     vdW  Elec       q    Type
REMARK                         _______ _______ _______ _____ _____    ______ ____
ROOT
ATOM      1  C   UNL     1       2.401   4.024  20.352  0.00  0.00    +0.000 A 
ATOM      2  C   UNL     1       1.938   5.340  20.529  0.00  0.00    +0.000 A 
ATOM      3  C   UNL     1       2.372   6.367  19.691  0.00  0.00    +0.000 A 
ATOM      4  C   UNL     1       3.284   6.099  18.677  0.00  0.00    +0.000 A 
ATOM      5  C   UNL     1       3.765   4.800  18.499  0.00  0.00    +0.000 A 
ATOM      6  C   UNL     1       3.315   3.747  19.320  0.00  0.00    +0.000 A 
ENDROOT
BRANCH   1   8
ATOM      7  O   UNL     1       2.448   2.694  22.305  0.00  0.00    +0.000 OA
ATOM      8  C   UNL     1       1.858   2.993  21.271  0.00  0.00    +0.000 C 
ENDBRANCH   1   8
BRANCH   6   9
ATOM      9  C   UNL     1       3.876   2.389  19.110  0.00  0.00    +0.000 C 
ATOM     10  O   UNL     1       3.368   1.565  18.372  0.00  0.00    +0.000 OA
BRANCH   9  11
ATOM     11  O   UNL     1       5.008   2.143  19.803  0.00  0.00    +0.000 OA
ATOM     12  H   UNL     1       4.959   1.459  20.497  0.00  0.00    +0.000 HD
ENDBRANCH   9  11
ENDBRANCH   6   9
TORSDOF 3
ENDMDL
MODEL 5
REMARK VINA RESULT:      -5.2      1.876      2.355
REMARK  Name = 
REMARK  3 active torsions:
REMARK  status: ('A' for Active; 'I' for Inactive)
REMARK    1  A    between atoms: C_2  and  C_3
REMARK    2  A    between atoms: C_8  and  C_9
REMARK    3  A    between atoms: C_9  and  O_11
REMARK                            x       y       z     vdW  Elec       q    Type
REMARK                         _______ _______ _______ _____ _____    ______ ____
ROOT
ATOM      1  C   UNL     1       2.420   3.418  19.815  0.00  0.00    +0.000 A 
ATOM      2  C   UNL     1       1.729   4.574  19.411  0.00  0.00    +0.000 A 
ATOM      3  C   UNL     1       2.169   5.323  18.321  0.00  0.00    +0.000 A 
ATOM      4  C   UNL     1       3.311   4.939  17.627  0.00  0.00    +0.000 A 
ATOM      5  C   UNL     1       4.018   3.802  18.027  0.00  0.00    +0.000 A 
ATOM      6  C   UNL     1       3.569   3.020  19.109  0.00  0.00    +0.000 A 
ENDROOT
BRANCH   1   8
ATOM      7  O   UNL     1       2.183   2.941  22.118  0.00  0.00    +0.000 OA
ATOM      8  C   UNL     1       1.859   2.667  20.966  0.00  0.00    +0.000 C 
ENDBRANCH   1   8
BRANCH   6   9
ATOM      9  C   UNL     1       4.369   1.836  19.513  0.00  0.00    +0.000 C 
ATOM     10  O   UNL     1       5.072   1.813  20.507  0.00  0.00    +0.000 OA
BRANCH   9  11
ATOM     11  O   UNL     1       4.248   0.776  18.686  0.00  0.00    +0.000 OA
ATOM     12  H   UNL     1       4.722  -0.037  18.939  0.00  0.00    +0.000 HD
ENDBRANCH   9  11
ENDBRANCH   6   9
TORSDOF 3
ENDMDL
MODEL 6
REMARK VINA RESULT:      -5.2      1.780      2.833
REMARK  Name = 
REMARK  3 active torsions:
REMARK  status: ('A' for Active; 'I' for Inactive)
REMARK    1  A    between atoms: C_2  and  C_3
REMARK    2  A    between atoms: C_8  and  C_9
REMARK    3  A    between atoms: C_9  and  O_11
REMARK                            x       y       z     vdW  Elec       q    Type
REMARK                         _______ _______ _______ _____ _____    ______ ____
ROOT
ATOM      1  C   UNL     1       3.456   3.927  19.445  0.00  0.00    +0.000 A 
ATOM      2  C   UNL     1       3.990   4.856  18.535  0.00  0.00    +0.000 A 
ATOM      3  C   UNL     1       3.547   6.178  18.523  0.00  0.00    +0.000 A 
ATOM      4  C   UNL     1       2.556   6.588  19.407  0.00  0.00    +0.000 A 
ATOM      5  C   UNL     1       2.003   5.672  20.306  0.00  0.00    +0.000 A 
ATOM      6  C   UNL     1       2.461   4.341  20.348  0.00  0.00    +0.000 A 
ENDROOT
BRANCH   1   8
ATOM      7  O   UNL     1       4.917   2.213  20.162  0.00  0.00    +0.000 OA
ATOM      8  C   UNL     1       4.012   2.552  19.405  0.00  0.00    +0.000 C 
ENDBRANCH   1   8
BRANCH   6   9
ATOM      9  C   UNL     1       1.824   3.398  21.302  0.00  0.00    +0.000 C 
ATOM     10  O   UNL     1       2.324   3.090  22.369  0.00  0.00    +0.000 OA
BRANCH   9  11
ATOM     11  O   UNL     1       0.633   2.913  20.892  0.00  0.00    +0.000 OA
ATOM     12  H   UNL     1       0.297   3.235  20.036  0.00  0.00    +0.000 HD
ENDBRANCH   9  11
ENDBRANCH   6   9
TORSDOF 3
ENDMDL
MODEL 7
REMARK VINA RESULT:      -5.2      2.234      3.436
REMARK  Name = 
REMARK  3 active torsions:
REMARK  status: ('A' for Active; 'I' for Inactive)
REMARK    1  A    between atoms: C_2  and  C_3
REMARK    2  A    between atoms: C_8  and  C_9
REMARK    3  A    between atoms: C_9  and  O_11
REMARK                            x       y       z     vdW  Elec       q    Type
REMARK                         _______ _______ _______ _____ _____    ______ ____
ROOT
ATOM      1  C   UNL     1       2.578   3.118  18.913  0.00  0.00    +0.000 A 
ATOM      2  C   UNL     1       1.341   3.072  19.579  0.00  0.00    +0.000 A 
ATOM      3  C   UNL     1       0.935   4.121  20.403  0.00  0.00    +0.000 A 
ATOM      4  C   UNL     1       1.763   5.223  20.584  0.00  0.00    +0.000 A 
ATOM      5  C   UNL     1       3.002   5.276  19.942  0.00  0.00    +0.000 A 
ATOM      6  C   UNL     1       3.413   4.235  19.086  0.00  0.00    +0.000 A 
ENDROOT
BRANCH   1   8
ATOM      7  O   UNL     1       3.721   1.117  18.384  0.00  0.00    +0.000 OA
ATOM      8  C   UNL     1       2.910   1.970  18.033  0.00  0.00    +0.000 C 
ENDBRANCH   1   8
BRANCH   6   9
ATOM      9  C   UNL     1       4.750   4.324  18.447  0.00  0.00    +0.000 C 
ATOM     10  O   UNL     1       4.987   5.042  17.492  0.00  0.00    +0.000 OA
BRANCH   9  11
ATOM     11  O   UNL     1       5.692   3.544  19.019  0.00  0.00    +0.000 OA
ATOM     12  H   UNL     1       5.723   3.533  19.993  0.00  0.00    +0.000 HD
ENDBRANCH   9  11
ENDBRANCH   6   9
TORSDOF 3
ENDMDL
MODEL 8
REMARK VINA RESULT:      -5.2      2.796      3.547
REMARK  Name = 
REMARK  3 active torsions:
REMARK  status: ('A' for Active; 'I' for Inactive)
REMARK    1  A    between atoms: C_2  and  C_3
REMARK    2  A    between atoms: C_8  and  C_9
REMARK    3  A    between atoms: C_9  and  O_11
REMARK                            x       y       z     vdW  Elec       q    Type
REMARK                         _______ _______ _______ _____ _____    ______ ____
ROOT
ATOM      1  C   UNL     1       3.345   3.003  19.624  0.00  0.00    +0.000 A 
ATOM      2  C   UNL     1       2.012   2.593  19.450  0.00  0.00    +0.000 A 
ATOM      3  C   UNL     1       1.203   3.187  18.482  0.00  0.00    +0.000 A 
ATOM      4  C   UNL     1       1.709   4.209  17.685  0.00  0.00    +0.000 A 
ATOM      5  C   UNL     1       3.026   4.639  17.857  0.00  0.00    +0.000 A 
ATOM      6  C   UNL     1       3.863   4.028  18.812  0.00  0.00    +0.000 A 
ENDROOT
BRANCH   1   8
ATOM      7  O   UNL     1       5.120   1.621  20.350  0.00  0.00    +0.000 OA
ATOM      8  C   UNL     1       4.137   2.290  20.656  0.00  0.00    +0.000 C 
ENDBRANCH   1   8
BRANCH   6   9
ATOM      9  C   UNL     1       5.247   4.537  18.977  0.00  0.00    +0.000 C 
ATOM     10  O   UNL     1       5.520   5.527  19.632  0.00  0.00    +0.000 OA
BRANCH   9  11
ATOM     11  O   UNL     1       6.188   3.805  18.343  0.00  0.00    +0.000 OA
ATOM     12  H   UNL     1       6.180   2.843  18.504  0.00  0.00    +0.000 HD
ENDBRANCH   9  11
ENDBRANCH   6   9
TORSDOF 3
ENDMDL
MODEL 9
REMARK VINA RESULT:      -5.1      1.177      2.913
REMARK  Name = 
REMARK  3 active torsions:
REMARK  status: ('A' for Active; 'I' for Inactive)
REMARK    1  A    between atoms: C_2  and  C_3
REMARK    2  A    between atoms: C_8  and  C_9
REMARK    3  A    between atoms: C_9  and  O_11
REMARK                            x       y       z     vdW  Elec       q    Type
REMARK                         _______ _______ _______ _____ _____    ______ ____
ROOT
ATOM      1  C   UNL     1       2.582   3.581  18.782  0.00  0.00    +0.000 A 
ATOM      2  C   UNL     1       2.852   4.544  17.795  0.00  0.00    +0.000 A 
ATOM      3  C   UNL     1       2.883   5.902  18.112  0.00  0.00    +0.000 A 
ATOM      4  C   UNL     1       2.630   6.317  19.415  0.00  0.00    +0.000 A 
ATOM      5  C   UNL     1       2.343   5.373  20.403  0.00  0.00    +0.000 A 
ATOM      6  C   UNL     1       2.336   3.997  20.102  0.00  0.00    +0.000 A 
ENDROOT
BRANCH   1   8
ATOM      7  O   UNL     1       3.642   1.507  18.376  0.00  0.00    +0.000 OA
ATOM      8  C   UNL     1       2.602   2.159  18.356  0.00  0.00    +0.000 C 
ENDBRANCH   1   8
BRANCH   6   9
ATOM      9  C   UNL     1       2.000   3.033  21.180  0.00  0.00    +0.000 C 
ATOM     10  O   UNL     1       2.828   2.570  21.943  0.00  0.00    +0.000 OA
BRANCH   9  11
ATOM     11  O   UNL     1       0.689   2.716  21.252  0.00  0.00    +0.000 OA
ATOM     12  H   UNL     1       0.053   3.411  21.002  0.00  0.00    +0.000 HD
ENDBRANCH   9  11
ENDBRANCH   6   9
TORSDOF 3
ENDMDL
