MODEL 1
REMARK VINA RESULT:      -7.6      0.000      0.000
REMARK  Name = 
REMARK  4 active torsions:
REMARK  status: ('A' for Active; 'I' for Inactive)
REMARK    1  A    between atoms: C_2  and  C_13
REMARK    2  A    between atoms: N_3  and  O_4
REMARK    3  A    between atoms: O_4  and  C_5
REMARK    4  A    between atoms: C_5  and  C_6
REMARK                            x       y       z     vdW  Elec       q    Type
REMARK                         _______ _______ _______ _____ _____    ______ ____
ROOT
ATOM      1  O   UNL     1       7.835   5.249  17.698  0.00  0.00    +0.000 OA
ATOM      2  C   UNL     1       6.895   4.685  17.148  0.00  0.00    +0.000 C 
ATOM      3  N   UNL     1       5.823   4.134  17.808  0.00  0.00    +0.000 N 
ATOM      4  H   UNL     1       5.133   3.556  17.354  0.00  0.00    +0.000 HD
ENDROOT
BRANCH   2   5
ATOM      5  C   UNL     1       6.840   4.540  15.707  0.00  0.00    +0.000 A 
ATOM      6  C   UNL     1       6.099   3.699  14.884  0.00  0.00    +0.000 A 
ATOM      7  C   UNL     1       6.431   4.007  13.546  0.00  0.00    +0.000 A 
ATOM      8 BR   UNL     1       5.658   3.133  12.079  0.00  0.00    +0.000 Br
ATOM      9  C   UNL     1       7.358   5.014  13.565  0.00  0.00    +0.000 A 
ATOM     10 BR   UNL     1       8.169   5.838  12.105  0.00  0.00    +0.000 Br
ATOM     11  N   UNL     1       7.598   5.338  14.869  0.00  0.00    +0.000 N 
ATOM     12  H   UNL     1       8.231   6.058  15.193  0.00  0.00    +0.000 HD
ENDBRANCH   2   5
BRANCH   3  13
ATOM     13  O   UNL     1       5.851   4.187  19.218  0.00  0.00    +0.000 OA
BRANCH  13  14
ATOM     14  C   UNL     1       4.717   4.913  19.703  0.00  0.00    +0.000 C 
BRANCH  14  15
ATOM     15  C   UNL     1       3.446   4.159  19.402  0.00  0.00    +0.000 A 
ATOM     16  C   UNL     1       2.542   4.621  18.431  0.00  0.00    +0.000 A 
ATOM     17  C   UNL     1       1.379   3.906  18.146  0.00  0.00    +0.000 A 
ATOM     18  C   UNL     1       1.122   2.719  18.820  0.00  0.00    +0.000 A 
ATOM     19  F   UNL     1       0.006   2.033  18.546  0.00  0.00    +0.000 F 
ATOM     20  C   UNL     1       2.009   2.232  19.772  0.00  0.00    +0.000 A 
ATOM     21  C   UNL     1       3.174   2.947  20.060  0.00  0.00    +0.000 A 
ENDBRANCH  14  15
ENDBRANCH  13  14
ENDBRANCH   3  13
TORSDOF 4
ENDMDL
MODEL 2
REMARK VINA RESULT:      -7.5      0.291      1.143
REMARK  Name = 
REMARK  4 active torsions:
REMARK  status: ('A' for Active; 'I' for Inactive)
REMARK    1  A    between atoms: C_2  and  C_13
REMARK    2  A    between atoms: N_3  and  O_4
REMARK    3  A    between atoms: O_4  and  C_5
REMARK    4  A    between atoms: C_5  and  C_6
REMARK                            x       y       z     vdW  Elec       q    Type
REMARK                         _______ _______ _______ _____ _____    ______ ____
ROOT
ATOM      1  O   UNL     1       8.010   4.543  17.746  0.00  0.00    +0.000 OA
ATOM      2  C   UNL     1       6.927   4.558  17.169  0.00  0.00    +0.000 C 
ATOM      3  N   UNL     1       5.711   4.657  17.799  0.00  0.00    +0.000 N 
ATOM      4  H   UNL     1       4.831   4.528  17.324  0.00  0.00    +0.000 HD
ENDROOT
BRANCH   2   5
ATOM      5  C   UNL     1       6.840   4.459  15.726  0.00  0.00    +0.000 A 
ATOM      6  C   UNL     1       6.063   3.660  14.894  0.00  0.00    +0.000 A 
ATOM      7  C   UNL     1       6.374   4.003  13.558  0.00  0.00    +0.000 A 
ATOM      8 BR   UNL     1       5.552   3.192  12.082  0.00  0.00    +0.000 Br
ATOM      9  C   UNL     1       7.325   4.988  13.588  0.00  0.00    +0.000 A 
ATOM     10 BR   UNL     1       8.124   5.839  12.138  0.00  0.00    +0.000 Br
ATOM     11  N   UNL     1       7.599   5.266  14.897  0.00  0.00    +0.000 N 
ATOM     12  H   UNL     1       8.254   5.961  15.230  0.00  0.00    +0.000 HD
ENDBRANCH   2   5
BRANCH   3  13
ATOM     13  O   UNL     1       5.727   4.691  19.210  0.00  0.00    +0.000 OA
BRANCH  13  14
ATOM     14  C   UNL     1       4.516   5.275  19.700  0.00  0.00    +0.000 C 
BRANCH  14  15
ATOM     15  C   UNL     1       3.340   4.386  19.375  0.00  0.00    +0.000 A 
ATOM     16  C   UNL     1       3.050   3.255  20.157  0.00  0.00    +0.000 A 
ATOM     17  C   UNL     1       1.949   2.452  19.861  0.00  0.00    +0.000 A 
ATOM     18  C   UNL     1       1.126   2.784  18.793  0.00  0.00    +0.000 A 
ATOM     19  F   UNL     1       0.069   2.013  18.509  0.00  0.00    +0.000 F 
ATOM     20  C   UNL     1       1.382   3.908  18.017  0.00  0.00    +0.000 A 
ATOM     21  C   UNL     1       2.484   4.713  18.310  0.00  0.00    +0.000 A 
ENDBRANCH  14  15
ENDBRANCH  13  14
ENDBRANCH   3  13
TORSDOF 4
ENDMDL
MODEL 3
REMARK VINA RESULT:      -7.1      1.722      2.291
REMARK  Name = 
REMARK  4 active torsions:
REMARK  status: ('A' for Active; 'I' for Inactive)
REMARK    1  A    between atoms: C_2  and  C_13
REMARK    2  A    between atoms: N_3  and  O_4
REMARK    3  A    between atoms: O_4  and  C_5
REMARK    4  A    between atoms: C_5  and  C_6
REMARK                            x       y       z     vdW  Elec       q    Type
REMARK                         _______ _______ _______ _____ _____    ______ ____
ROOT
ATOM      1  O   UNL     1       7.112   5.636  15.372  0.00  0.00    +0.000 OA
ATOM      2  C   UNL     1       6.452   4.604  15.305  0.00  0.00    +0.000 C 
ATOM      3  N   UNL     1       6.049   3.867  16.392  0.00  0.00    +0.000 N 
ATOM      4  H   UNL     1       5.629   2.953  16.314  0.00  0.00    +0.000 HD
ENDROOT
BRANCH   2   5
ATOM      5  C   UNL     1       6.038   4.055  14.031  0.00  0.00    +0.000 A 
ATOM      6  C   UNL     1       4.866   4.192  13.295  0.00  0.00    +0.000 A 
ATOM      7  C   UNL     1       5.017   3.445  12.104  0.00  0.00    +0.000 A 
ATOM      8 BR   UNL     1       3.687   3.351  10.787  0.00  0.00    +0.000 Br
ATOM      9  C   UNL     1       6.258   2.866  12.127  0.00  0.00    +0.000 A 
ATOM     10 BR   UNL     1       7.021   1.768  10.832  0.00  0.00    +0.000 Br
ATOM     11  N   UNL     1       6.874   3.241  13.287  0.00  0.00    +0.000 N 
ATOM     12  H   UNL     1       7.807   2.975  13.573  0.00  0.00    +0.000 HD
ENDBRANCH   2   5
BRANCH   3  13
ATOM     13  O   UNL     1       6.476   4.317  17.659  0.00  0.00    +0.000 OA
BRANCH  13  14
ATOM     14  C   UNL     1       5.436   5.074  18.287  0.00  0.00    +0.000 C 
BRANCH  14  15
ATOM     15  C   UNL     1       4.160   4.270  18.332  0.00  0.00    +0.000 A 
ATOM     16  C   UNL     1       4.091   3.060  19.042  0.00  0.00    +0.000 A 
ATOM     17  C   UNL     1       2.901   2.335  19.095  0.00  0.00    +0.000 A 
ATOM     18  C   UNL     1       1.772   2.823  18.450  0.00  0.00    +0.000 A 
ATOM     19  F   UNL     1       0.630   2.126  18.500  0.00  0.00    +0.000 F 
ATOM     20  C   UNL     1       1.811   4.026  17.756  0.00  0.00    +0.000 A 
ATOM     21  C   UNL     1       3.002   4.753  17.701  0.00  0.00    +0.000 A 
ENDBRANCH  14  15
ENDBRANCH  13  14
ENDBRANCH   3  13
TORSDOF 4
ENDMDL
MODEL 4
REMARK VINA RESULT:      -7.0      5.193      7.253
REMARK  Name = 
REMARK  4 active torsions:
REMARK  status: ('A' for Active; 'I' for Inactive)
REMARK    1  A    between atoms: C_2  and  C_13
REMARK    2  A    between atoms: N_3  and  O_4
REMARK    3  A    between atoms: O_4  and  C_5
REMARK    4  A    between atoms: C_5  and  C_6
REMARK                            x       y       z     vdW  Elec       q    Type
REMARK                         _______ _______ _______ _____ _____    ______ ____
ROOT
ATOM      1  O   UNL     1       3.854   4.801  19.989  0.00  0.00    +0.000 OA
ATOM      2  C   UNL     1       3.304   5.428  19.089  0.00  0.00    +0.000 C 
ATOM      3  N   UNL     1       3.277   5.036  17.772  0.00  0.00    +0.000 N 
ATOM      4  H   UNL     1       2.944   5.628  17.027  0.00  0.00    +0.000 HD
ENDROOT
BRANCH   2   5
ATOM      5  C   UNL     1       2.623   6.680  19.347  0.00  0.00    +0.000 A 
ATOM      6  C   UNL     1       2.336   7.769  18.531  0.00  0.00    +0.000 A 
ATOM      7  C   UNL     1       1.626   8.711  19.308  0.00  0.00    +0.000 A 
ATOM      8 BR   UNL     1       1.009  10.341  18.618  0.00  0.00    +0.000 Br
ATOM      9  C   UNL     1       1.491   8.198  20.571  0.00  0.00    +0.000 A 
ATOM     10 BR   UNL     1       0.647   8.985  22.032  0.00  0.00    +0.000 Br
ATOM     11  N   UNL     1       2.088   6.970  20.589  0.00  0.00    +0.000 N 
ATOM     12  H   UNL     1       2.136   6.348  21.386  0.00  0.00    +0.000 HD
ENDBRANCH   2   5
BRANCH   3  13
ATOM     13  O   UNL     1       3.979   3.855  17.446  0.00  0.00    +0.000 OA
BRANCH  13  14
ATOM     14  C   UNL     1       5.041   4.153  16.535  0.00  0.00    +0.000 C 
BRANCH  14  15
ATOM     15  C   UNL     1       6.005   5.133  17.158  0.00  0.00    +0.000 A 
ATOM     16  C   UNL     1       6.894   4.731  18.169  0.00  0.00    +0.000 A 
ATOM     17  C   UNL     1       7.795   5.639  18.725  0.00  0.00    +0.000 A 
ATOM     18  C   UNL     1       7.822   6.947  18.262  0.00  0.00    +0.000 A 
ATOM     19  F   UNL     1       8.687   7.819  18.795  0.00  0.00    +0.000 F 
ATOM     20  C   UNL     1       6.966   7.364  17.250  0.00  0.00    +0.000 A 
ATOM     21  C   UNL     1       6.062   6.457  16.693  0.00  0.00    +0.000 A 
ENDBRANCH  14  15
ENDBRANCH  13  14
ENDBRANCH   3  13
TORSDOF 4
ENDMDL
MODEL 5
REMARK VINA RESULT:      -6.9      1.682      2.115
REMARK  Name = 
REMARK  4 active torsions:
REMARK  status: ('A' for Active; 'I' for Inactive)
REMARK    1  A    between atoms: C_2  and  C_13
REMARK    2  A    between atoms: N_3  and  O_4
REMARK    3  A    between atoms: O_4  and  C_5
REMARK    4  A    between atoms: C_5  and  C_6
REMARK                            x       y       z     vdW  Elec       q    Type
REMARK                         _______ _______ _______ _____ _____    ______ ____
ROOT
ATOM      1  O   UNL     1       5.399   4.217  17.893  0.00  0.00    +0.000 OA
ATOM      2  C   UNL     1       5.181   4.965  16.945  0.00  0.00    +0.000 C 
ATOM      3  N   UNL     1       4.409   6.100  17.012  0.00  0.00    +0.000 N 
ATOM      4  H   UNL     1       4.127   6.624  16.198  0.00  0.00    +0.000 HD
ENDROOT
BRANCH   2   5
ATOM      5  C   UNL     1       5.729   4.699  15.631  0.00  0.00    +0.000 A 
ATOM      6  C   UNL     1       5.391   3.772  14.652  0.00  0.00    +0.000 A 
ATOM      7  C   UNL     1       6.253   3.977  13.551  0.00  0.00    +0.000 A 
ATOM      8 BR   UNL     1       6.153   2.962  11.978  0.00  0.00    +0.000 Br
ATOM      9  C   UNL     1       7.098   5.008  13.866  0.00  0.00    +0.000 A 
ATOM     10 BR   UNL     1       8.451   5.729  12.810  0.00  0.00    +0.000 Br
ATOM     11  N   UNL     1       6.775   5.445  15.118  0.00  0.00    +0.000 N 
ATOM     12  H   UNL     1       7.223   6.207  15.612  0.00  0.00    +0.000 HD
ENDBRANCH   2   5
BRANCH   3  13
ATOM     13  O   UNL     1       3.794   6.378  18.251  0.00  0.00    +0.000 OA
BRANCH  13  14
ATOM     14  C   UNL     1       2.409   6.021  18.201  0.00  0.00    +0.000 C 
BRANCH  14  15
ATOM     15  C   UNL     1       2.104   4.966  19.237  0.00  0.00    +0.000 A 
ATOM     16  C   UNL     1       2.564   5.094  20.558  0.00  0.00    +0.000 A 
ATOM     17  C   UNL     1       2.260   4.124  21.513  0.00  0.00    +0.000 A 
ATOM     18  C   UNL     1       1.483   3.030  21.154  0.00  0.00    +0.000 A 
ATOM     19  F   UNL     1       1.191   2.099  22.070  0.00  0.00    +0.000 F 
ATOM     20  C   UNL     1       1.001   2.891  19.858  0.00  0.00    +0.000 A 
ATOM     21  C   UNL     1       1.306   3.860  18.900  0.00  0.00    +0.000 A 
ENDBRANCH  14  15
ENDBRANCH  13  14
ENDBRANCH   3  13
TORSDOF 4
ENDMDL
MODEL 6
REMARK VINA RESULT:      -6.8      4.812      5.841
REMARK  Name = 
REMARK  4 active torsions:
REMARK  status: ('A' for Active; 'I' for Inactive)
REMARK    1  A    between atoms: C_2  and  C_13
REMARK    2  A    between atoms: N_3  and  O_4
REMARK    3  A    between atoms: O_4  and  C_5
REMARK    4  A    between atoms: C_5  and  C_6
REMARK                            x       y       z     vdW  Elec       q    Type
REMARK                         _______ _______ _______ _____ _____    ______ ____
ROOT
ATOM      1  O   UNL     1       8.158   6.794  18.946  0.00  0.00    +0.000 OA
ATOM      2  C   UNL     1       8.077   7.631  18.052  0.00  0.00    +0.000 C 
ATOM      3  N   UNL     1       7.641   7.366  16.776  0.00  0.00    +0.000 N 
ATOM      4  H   UNL     1       7.712   8.030  16.020  0.00  0.00    +0.000 HD
ENDROOT
BRANCH   2   5
ATOM      5  C   UNL     1       8.456   9.011  18.273  0.00  0.00    +0.000 A 
ATOM      6  C   UNL     1       8.211  10.171  17.546  0.00  0.00    +0.000 A 
ATOM      7  C   UNL     1       8.804  11.248  18.244  0.00  0.00    +0.000 A 
ATOM      8 BR   UNL     1       8.714  13.022  17.645  0.00  0.00    +0.000 Br
ATOM      9  C   UNL     1       9.399  10.742  19.370  0.00  0.00    +0.000 A 
ATOM     10 BR   UNL     1      10.335  11.679  20.677  0.00  0.00    +0.000 Br
ATOM     11  N   UNL     1       9.181   9.394  19.387  0.00  0.00    +0.000 N 
ATOM     12  H   UNL     1       9.493   8.754  20.107  0.00  0.00    +0.000 HD
ENDBRANCH   2   5
BRANCH   3  13
ATOM     13  O   UNL     1       7.318   6.025  16.481  0.00  0.00    +0.000 OA
BRANCH  13  14
ATOM     14  C   UNL     1       5.950   5.930  16.070  0.00  0.00    +0.000 C 
BRANCH  14  15
ATOM     15  C   UNL     1       5.151   5.154  17.089  0.00  0.00    +0.000 A 
ATOM     16  C   UNL     1       4.849   5.707  18.345  0.00  0.00    +0.000 A 
ATOM     17  C   UNL     1       4.093   4.990  19.272  0.00  0.00    +0.000 A 
ATOM     18  C   UNL     1       3.624   3.726  18.942  0.00  0.00    +0.000 A 
ATOM     19  F   UNL     1       2.898   3.038  19.832  0.00  0.00    +0.000 F 
ATOM     20  C   UNL     1       3.894   3.166  17.700  0.00  0.00    +0.000 A 
ATOM     21  C   UNL     1       4.652   3.881  16.770  0.00  0.00    +0.000 A 
ENDBRANCH  14  15
ENDBRANCH  13  14
ENDBRANCH   3  13
TORSDOF 4
ENDMDL
MODEL 7
REMARK VINA RESULT:      -6.8      1.901      2.236
REMARK  Name = 
REMARK  4 active torsions:
REMARK  status: ('A' for Active; 'I' for Inactive)
REMARK    1  A    between atoms: C_2  and  C_13
REMARK    2  A    between atoms: N_3  and  O_4
REMARK    3  A    between atoms: O_4  and  C_5
REMARK    4  A    between atoms: C_5  and  C_6
REMARK                            x       y       z     vdW  Elec       q    Type
REMARK                         _______ _______ _______ _____ _____    ______ ____
ROOT
ATOM      1  O   UNL     1       7.341   5.369  15.134  0.00  0.00    +0.000 OA
ATOM      2  C   UNL     1       6.272   4.773  15.052  0.00  0.00    +0.000 C 
ATOM      3  N   UNL     1       5.364   4.661  16.077  0.00  0.00    +0.000 N 
ATOM      4  H   UNL     1       4.559   4.054  16.038  0.00  0.00    +0.000 HD
ENDROOT
BRANCH   2   5
ATOM      5  C   UNL     1       5.869   4.109  13.830  0.00  0.00    +0.000 A 
ATOM      6  C   UNL     1       4.727   4.218  13.044  0.00  0.00    +0.000 A 
ATOM      7  C   UNL     1       4.877   3.341  11.946  0.00  0.00    +0.000 A 
ATOM      8 BR   UNL     1       3.583   3.165  10.601  0.00  0.00    +0.000 Br
ATOM      9  C   UNL     1       6.087   2.713  12.072  0.00  0.00    +0.000 A 
ATOM     10 BR   UNL     1       6.835   1.448  10.929  0.00  0.00    +0.000 Br
ATOM     11  N   UNL     1       6.686   3.182  13.206  0.00  0.00    +0.000 N 
ATOM     12  H   UNL     1       7.597   2.908  13.551  0.00  0.00    +0.000 HD
ENDBRANCH   2   5
BRANCH   3  13
ATOM     13  O   UNL     1       5.728   5.234  17.315  0.00  0.00    +0.000 OA
BRANCH  13  14
ATOM     14  C   UNL     1       5.576   4.272  18.363  0.00  0.00    +0.000 C 
BRANCH  14  15
ATOM     15  C   UNL     1       4.144   3.802  18.438  0.00  0.00    +0.000 A 
ATOM     16  C   UNL     1       3.104   4.694  18.747  0.00  0.00    +0.000 A 
ATOM     17  C   UNL     1       1.782   4.255  18.793  0.00  0.00    +0.000 A 
ATOM     18  C   UNL     1       1.492   2.925  18.517  0.00  0.00    +0.000 A 
ATOM     19  F   UNL     1       0.222   2.502  18.562  0.00  0.00    +0.000 F 
ATOM     20  C   UNL     1       2.501   2.027  18.191  0.00  0.00    +0.000 A 
ATOM     21  C   UNL     1       3.826   2.465  18.145  0.00  0.00    +0.000 A 
ENDBRANCH  14  15
ENDBRANCH  13  14
ENDBRANCH   3  13
TORSDOF 4
ENDMDL
MODEL 8
REMARK VINA RESULT:      -6.8      6.146      8.086
REMARK  Name = 
REMARK  4 active torsions:
REMARK  status: ('A' for Active; 'I' for Inactive)
REMARK    1  A    between atoms: C_2  and  C_13
REMARK    2  A    between atoms: N_3  and  O_4
REMARK    3  A    between atoms: O_4  and  C_5
REMARK    4  A    between atoms: C_5  and  C_6
REMARK                            x       y       z     vdW  Elec       q    Type
REMARK                         _______ _______ _______ _____ _____    ______ ____
ROOT
ATOM      1  O   UNL     1       8.058   5.148  18.944  0.00  0.00    +0.000 OA
ATOM      2  C   UNL     1       7.057   5.733  18.542  0.00  0.00    +0.000 C 
ATOM      3  N   UNL     1       7.027   7.051  18.158  0.00  0.00    +0.000 N 
ATOM      4  H   UNL     1       6.173   7.551  17.964  0.00  0.00    +0.000 HD
ENDROOT
BRANCH   2   5
ATOM      5  C   UNL     1       5.777   5.060  18.445  0.00  0.00    +0.000 A 
ATOM      6  C   UNL     1       4.494   5.533  18.192  0.00  0.00    +0.000 A 
ATOM      7  C   UNL     1       3.620   4.422  18.192  0.00  0.00    +0.000 A 
ATOM      8 BR   UNL     1       1.780   4.576  17.872  0.00  0.00    +0.000 Br
ATOM      9  C   UNL     1       4.366   3.301  18.445  0.00  0.00    +0.000 A 
ATOM     10 BR   UNL     1       3.767   1.543  18.566  0.00  0.00    +0.000 Br
ATOM     11  N   UNL     1       5.667   3.689  18.591  0.00  0.00    +0.000 N 
ATOM     12  H   UNL     1       6.450   3.074  18.773  0.00  0.00    +0.000 HD
ENDBRANCH   2   5
BRANCH   3  13
ATOM     13  O   UNL     1       8.230   7.779  18.290  0.00  0.00    +0.000 OA
BRANCH  13  14
ATOM     14  C   UNL     1       8.113   9.042  17.628  0.00  0.00    +0.000 C 
BRANCH  14  15
ATOM     15  C   UNL     1       8.861  10.105  18.395  0.00  0.00    +0.000 A 
ATOM     16  C   UNL     1       9.249  11.306  17.778  0.00  0.00    +0.000 A 
ATOM     17  C   UNL     1       9.922  12.291  18.500  0.00  0.00    +0.000 A 
ATOM     18  C   UNL     1      10.196  12.086  19.846  0.00  0.00    +0.000 A 
ATOM     19  F   UNL     1      10.841  13.031  20.540  0.00  0.00    +0.000 F 
ATOM     20  C   UNL     1       9.806  10.914  20.484  0.00  0.00    +0.000 A 
ATOM     21  C   UNL     1       9.133   9.926  19.762  0.00  0.00    +0.000 A 
ENDBRANCH  14  15
ENDBRANCH  13  14
ENDBRANCH   3  13
TORSDOF 4
ENDMDL
MODEL 9
REMARK VINA RESULT:      -6.7      2.032      2.420
REMARK  Name = 
REMARK  4 active torsions:
REMARK  status: ('A' for Active; 'I' for Inactive)
REMARK    1  A    between atoms: C_2  and  C_13
REMARK    2  A    between atoms: N_3  and  O_4
REMARK    3  A    between atoms: O_4  and  C_5
REMARK    4  A    between atoms: C_5  and  C_6
REMARK                            x       y       z     vdW  Elec       q    Type
REMARK                         _______ _______ _______ _____ _____    ______ ____
ROOT
ATOM      1  O   UNL     1       7.375   5.020  15.327  0.00  0.00    +0.000 OA
ATOM      2  C   UNL     1       6.219   4.675  15.101  0.00  0.00    +0.000 C 
ATOM      3  N   UNL     1       5.176   4.824  15.983  0.00  0.00    +0.000 N 
ATOM      4  H   UNL     1       4.268   4.412  15.839  0.00  0.00    +0.000 HD
ENDROOT
BRANCH   2   5
ATOM      5  C   UNL     1       5.848   4.051  13.848  0.00  0.00    +0.000 A 
ATOM      6  C   UNL     1       4.715   4.167  13.050  0.00  0.00    +0.000 A 
ATOM      7  C   UNL     1       4.899   3.340  11.920  0.00  0.00    +0.000 A 
ATOM      8 BR   UNL     1       3.628   3.189  10.550  0.00  0.00    +0.000 Br
ATOM      9  C   UNL     1       6.122   2.733  12.038  0.00  0.00    +0.000 A 
ATOM     10 BR   UNL     1       6.913   1.534  10.855  0.00  0.00    +0.000 Br
ATOM     11  N   UNL     1       6.694   3.170  13.199  0.00  0.00    +0.000 N 
ATOM     12  H   UNL     1       7.606   2.902  13.545  0.00  0.00    +0.000 HD
ENDBRANCH   2   5
BRANCH   3  13
ATOM     13  O   UNL     1       5.487   5.368  17.249  0.00  0.00    +0.000 OA
BRANCH  13  14
ATOM     14  C   UNL     1       4.429   6.226  17.686  0.00  0.00    +0.000 C 
BRANCH  14  15
ATOM     15  C   UNL     1       3.391   5.432  18.441  0.00  0.00    +0.000 A 
ATOM     16  C   UNL     1       2.410   4.692  17.761  0.00  0.00    +0.000 A 
ATOM     17  C   UNL     1       1.467   3.945  18.467  0.00  0.00    +0.000 A 
ATOM     18  C   UNL     1       1.511   3.923  19.854  0.00  0.00    +0.000 A 
ATOM     19  F   UNL     1       0.606   3.206  20.533  0.00  0.00    +0.000 F 
ATOM     20  C   UNL     1       2.483   4.632  20.550  0.00  0.00    +0.000 A 
ATOM     21  C   UNL     1       3.427   5.382  19.845  0.00  0.00    +0.000 A 
ENDBRANCH  14  15
ENDBRANCH  13  14
ENDBRANCH   3  13
TORSDOF 4
ENDMDL
