MODEL 1
REMARK VINA RESULT:      -8.1      0.000      0.000
REMARK  Name = 
REMARK  8 active torsions:
REMARK  status: ('A' for Active; 'I' for Inactive)
REMARK    1  A    between atoms: C_1  and  S_2
REMARK    2  A    between atoms: S_2  and  C_3
REMARK    3  A    between atoms: C_3  and  C_4
REMARK    4  A    between atoms: C_4  and  C_5
REMARK    5  A    between atoms: C_5  and  N_6
REMARK    6  A    between atoms: C_5  and  C_21
REMARK    7  A    between atoms: N_23  and  C_24
REMARK    8  A    between atoms: C_24  and  C_25
REMARK                            x       y       z     vdW  Elec       q    Type
REMARK                         _______ _______ _______ _____ _____    ______ ____
ROOT
ATOM      1  C   UNL     1       2.801   5.291  19.064  0.00  0.00    +0.000 C 
ENDROOT
BRANCH   1   2
ATOM      2  N   UNL     1       2.174   6.611  19.078  0.00  0.00    +0.000 N 
ATOM      3  C   UNL     1       2.605   7.666  18.315  0.00  0.00    +0.000 C 
ATOM      4  O   UNL     1       3.449   7.539  17.428  0.00  0.00    +0.000 OA
ATOM      5  N   UNL     1       1.998   8.865  18.575  0.00  0.00    +0.000 N 
ATOM      6  C   UNL     1       2.139  10.088  17.770  0.00  0.00    +0.000 C 
ATOM      7  C   UNL     1       1.489  11.200  18.627  0.00  0.00    +0.000 C 
ATOM      8  N   UNL     1       0.912  10.442  19.722  0.00  0.00    +0.000 N 
ATOM      9  C   UNL     1       1.232   9.124  19.674  0.00  0.00    +0.000 A 
ATOM     10  N   UNL     1       0.804   8.456  20.708  0.00  0.00    +0.000 NA
ATOM     11  C   UNL     1       0.170   9.428  21.468  0.00  0.00    +0.000 A 
ATOM     12  C   UNL     1      -0.478   9.295  22.703  0.00  0.00    +0.000 A 
ATOM     13  C   UNL     1      -1.015  10.437  23.308  0.00  0.00    +0.000 A 
ATOM     14  C   UNL     1      -0.909  11.690  22.697  0.00  0.00    +0.000 A 
ATOM     15  C   UNL     1      -0.274  11.850  21.459  0.00  0.00    +0.000 A 
ATOM     16  C   UNL     1       0.248  10.698  20.870  0.00  0.00    +0.000 A 
ATOM     17  H   UNL     1       1.696   6.886  19.934  0.00  0.00    +0.000 HD
ENDBRANCH   1   2
BRANCH   1  18
ATOM     18  C   UNL     1       4.329   5.443  18.853  0.00  0.00    +0.000 C 
ATOM     19  O   UNL     1       5.102   5.822  19.730  0.00  0.00    +0.000 OA
ATOM     20  N   UNL     1       4.740   5.057  17.594  0.00  0.00    +0.000 N 
ATOM     21  H   UNL     1       4.117   4.392  17.136  0.00  0.00    +0.000 HD
BRANCH  20  22
ATOM     22  C   UNL     1       6.134   4.946  17.250  0.00  0.00    +0.000 C 
BRANCH  22  23
ATOM     23  C   UNL     1       6.299   4.698  15.772  0.00  0.00    +0.000 A 
ATOM     24  C   UNL     1       5.344   3.941  15.074  0.00  0.00    +0.000 A 
ATOM     25  C   UNL     1       5.491   3.701  13.706  0.00  0.00    +0.000 A 
ATOM     26  C   UNL     1       6.599   4.205  13.038  0.00  0.00    +0.000 A 
ATOM     27  F   UNL     1       6.739   3.977  11.725  0.00  0.00    +0.000 F 
ATOM     28  C   UNL     1       7.567   4.940  13.712  0.00  0.00    +0.000 A 
ATOM     29  C   UNL     1       7.422   5.183  15.080  0.00  0.00    +0.000 A 
ENDBRANCH  22  23
ENDBRANCH  20  22
ENDBRANCH   1  18
BRANCH   1  30
ATOM     30  C   UNL     1       2.179   4.440  17.941  0.00  0.00    +0.000 C 
BRANCH  30  31
ATOM     31  C   UNL     1       1.807   3.011  18.343  0.00  0.00    +0.000 C 
BRANCH  31  33
ATOM     32  C   UNL     1       4.026   1.995  19.631  0.00  0.00    +0.000 C 
ATOM     33  S   UNL     1       3.176   1.845  18.043  0.00  0.00    +0.000 S 
ENDBRANCH  31  33
ENDBRANCH  30  31
ENDBRANCH   1  30
TORSDOF 7
ENDMDL
MODEL 2
REMARK VINA RESULT:      -8.1      0.758      1.153
REMARK  Name = 
REMARK  8 active torsions:
REMARK  status: ('A' for Active; 'I' for Inactive)
REMARK    1  A    between atoms: C_1  and  S_2
REMARK    2  A    between atoms: S_2  and  C_3
REMARK    3  A    between atoms: C_3  and  C_4
REMARK    4  A    between atoms: C_4  and  C_5
REMARK    5  A    between atoms: C_5  and  N_6
REMARK    6  A    between atoms: C_5  and  C_21
REMARK    7  A    between atoms: N_23  and  C_24
REMARK    8  A    between atoms: C_24  and  C_25
REMARK                            x       y       z     vdW  Elec       q    Type
REMARK                         _______ _______ _______ _____ _____    ______ ____
ROOT
ATOM      1  C   UNL     1       2.806   5.133  19.135  0.00  0.00    +0.000 C 
ENDROOT
BRANCH   1   2
ATOM      2  N   UNL     1       2.189   6.458  19.123  0.00  0.00    +0.000 N 
ATOM      3  C   UNL     1       2.625   7.493  18.336  0.00  0.00    +0.000 C 
ATOM      4  O   UNL     1       3.464   7.340  17.448  0.00  0.00    +0.000 OA
ATOM      5  N   UNL     1       2.029   8.702  18.572  0.00  0.00    +0.000 N 
ATOM      6  C   UNL     1       2.176   9.906  17.741  0.00  0.00    +0.000 C 
ATOM      7  C   UNL     1       1.538  11.041  18.577  0.00  0.00    +0.000 C 
ATOM      8  N   UNL     1       0.960  10.311  19.690  0.00  0.00    +0.000 N 
ATOM      9  C   UNL     1       1.269   8.991  19.669  0.00  0.00    +0.000 A 
ATOM     10  N   UNL     1       0.841   8.348  20.719  0.00  0.00    +0.000 NA
ATOM     11  C   UNL     1       0.217   9.342  21.460  0.00  0.00    +0.000 A 
ATOM     12  C   UNL     1      -0.426   9.240  22.701  0.00  0.00    +0.000 A 
ATOM     13  C   UNL     1      -0.951  10.400  23.283  0.00  0.00    +0.000 A 
ATOM     14  C   UNL     1      -0.838  11.638  22.646  0.00  0.00    +0.000 A 
ATOM     15  C   UNL     1      -0.207  11.766  21.401  0.00  0.00    +0.000 A 
ATOM     16  C   UNL     1       0.303  10.598  20.835  0.00  0.00    +0.000 A 
ATOM     17  H   UNL     1       1.717   6.755  19.975  0.00  0.00    +0.000 HD
ENDBRANCH   1   2
BRANCH   1  18
ATOM     18  C   UNL     1       4.335   5.270  18.921  0.00  0.00    +0.000 C 
ATOM     19  O   UNL     1       5.110   5.664  19.788  0.00  0.00    +0.000 OA
ATOM     20  N   UNL     1       4.743   4.849  17.672  0.00  0.00    +0.000 N 
ATOM     21  H   UNL     1       4.116   4.177  17.230  0.00  0.00    +0.000 HD
BRANCH  20  22
ATOM     22  C   UNL     1       6.137   4.720  17.331  0.00  0.00    +0.000 C 
BRANCH  22  23
ATOM     23  C   UNL     1       6.306   4.549  15.842  0.00  0.00    +0.000 A 
ATOM     24  C   UNL     1       7.411   5.120  15.189  0.00  0.00    +0.000 A 
ATOM     25  C   UNL     1       7.574   4.973  13.810  0.00  0.00    +0.000 A 
ATOM     26  C   UNL     1       6.626   4.267  13.081  0.00  0.00    +0.000 A 
ATOM     27  F   UNL     1       6.784   4.123  11.758  0.00  0.00    +0.000 F 
ATOM     28  C   UNL     1       5.515   3.709  13.703  0.00  0.00    +0.000 A 
ATOM     29  C   UNL     1       5.351   3.855  15.083  0.00  0.00    +0.000 A 
ENDBRANCH  22  23
ENDBRANCH  20  22
ENDBRANCH   1  18
BRANCH   1  30
ATOM     30  C   UNL     1       2.177   4.265  18.030  0.00  0.00    +0.000 C 
BRANCH  30  31
ATOM     31  C   UNL     1       1.552   2.955  18.514  0.00  0.00    +0.000 C 
BRANCH  31  33
ATOM     32  C   UNL     1       2.297   2.526  21.135  0.00  0.00    +0.000 C 
ATOM     33  S   UNL     1       0.868   3.112  20.196  0.00  0.00    +0.000 S 
ENDBRANCH  31  33
ENDBRANCH  30  31
ENDBRANCH   1  30
TORSDOF 7
ENDMDL
MODEL 3
REMARK VINA RESULT:      -8.0      4.776      9.965
REMARK  Name = 
REMARK  8 active torsions:
REMARK  status: ('A' for Active; 'I' for Inactive)
REMARK    1  A    between atoms: C_1  and  S_2
REMARK    2  A    between atoms: S_2  and  C_3
REMARK    3  A    between atoms: C_3  and  C_4
REMARK    4  A    between atoms: C_4  and  C_5
REMARK    5  A    between atoms: C_5  and  N_6
REMARK    6  A    between atoms: C_5  and  C_21
REMARK    7  A    between atoms: N_23  and  C_24
REMARK    8  A    between atoms: C_24  and  C_25
REMARK                            x       y       z     vdW  Elec       q    Type
REMARK                         _______ _______ _______ _____ _____    ______ ____
ROOT
ATOM      1  C   UNL     1       0.373  10.078  19.526  0.00  0.00    +0.000 C 
ENDROOT
BRANCH   1   2
ATOM      2  N   UNL     1       1.377   9.026  19.371  0.00  0.00    +0.000 N 
ATOM      3  C   UNL     1       2.143   8.866  18.245  0.00  0.00    +0.000 C 
ATOM      4  O   UNL     1       2.170   9.700  17.340  0.00  0.00    +0.000 OA
ATOM      5  N   UNL     1       2.914   7.736  18.215  0.00  0.00    +0.000 N 
ATOM      6  C   UNL     1       3.958   7.437  17.224  0.00  0.00    +0.000 C 
ATOM      7  C   UNL     1       4.322   5.953  17.470  0.00  0.00    +0.000 C 
ATOM      8  N   UNL     1       3.570   5.652  18.674  0.00  0.00    +0.000 N 
ATOM      9  C   UNL     1       2.768   6.675  19.062  0.00  0.00    +0.000 A 
ATOM     10  N   UNL     1       2.014   6.375  20.082  0.00  0.00    +0.000 NA
ATOM     11  C   UNL     1       2.363   5.060  20.353  0.00  0.00    +0.000 A 
ATOM     12  C   UNL     1       1.867   4.205  21.347  0.00  0.00    +0.000 A 
ATOM     13  C   UNL     1       2.345   2.891  21.404  0.00  0.00    +0.000 A 
ATOM     14  C   UNL     1       3.298   2.433  20.489  0.00  0.00    +0.000 A 
ATOM     15  C   UNL     1       3.816   3.269  19.491  0.00  0.00    +0.000 A 
ATOM     16  C   UNL     1       3.331   4.576  19.457  0.00  0.00    +0.000 A 
ATOM     17  H   UNL     1       1.230   8.168  19.898  0.00  0.00    +0.000 HD
ENDBRANCH   1   2
BRANCH   1  18
ATOM     18  C   UNL     1      -0.274   9.976  20.930  0.00  0.00    +0.000 C 
ATOM     19  O   UNL     1      -0.329   8.933  21.579  0.00  0.00    +0.000 OA
ATOM     20  N   UNL     1      -0.731  11.189  21.403  0.00  0.00    +0.000 N 
ATOM     21  H   UNL     1      -0.265  11.999  20.996  0.00  0.00    +0.000 HD
BRANCH  20  22
ATOM     22  C   UNL     1      -1.199  11.351  22.756  0.00  0.00    +0.000 C 
BRANCH  22  23
ATOM     23  C   UNL     1      -2.519  12.077  22.779  0.00  0.00    +0.000 A 
ATOM     24  C   UNL     1      -3.023  12.660  21.604  0.00  0.00    +0.000 A 
ATOM     25  C   UNL     1      -4.242  13.341  21.616  0.00  0.00    +0.000 A 
ATOM     26  C   UNL     1      -4.952  13.450  22.805  0.00  0.00    +0.000 A 
ATOM     27  F   UNL     1      -6.124  14.101  22.816  0.00  0.00    +0.000 F 
ATOM     28  C   UNL     1      -4.465  12.898  23.983  0.00  0.00    +0.000 A 
ATOM     29  C   UNL     1      -3.245  12.216  23.973  0.00  0.00    +0.000 A 
ENDBRANCH  22  23
ENDBRANCH  20  22
ENDBRANCH   1  18
BRANCH   1  30
ATOM     30  C   UNL     1      -0.693   9.935  18.424  0.00  0.00    +0.000 C 
BRANCH  30  31
ATOM     31  C   UNL     1      -1.334  11.248  17.972  0.00  0.00    +0.000 C 
BRANCH  31  33
ATOM     32  C   UNL     1      -2.806  10.809  15.680  0.00  0.00    +0.000 C 
ATOM     33  S   UNL     1      -3.067  11.013  17.456  0.00  0.00    +0.000 S 
ENDBRANCH  31  33
ENDBRANCH  30  31
ENDBRANCH   1  30
TORSDOF 7
ENDMDL
MODEL 4
REMARK VINA RESULT:      -8.0      4.651      9.842
REMARK  Name = 
REMARK  8 active torsions:
REMARK  status: ('A' for Active; 'I' for Inactive)
REMARK    1  A    between atoms: C_1  and  S_2
REMARK    2  A    between atoms: S_2  and  C_3
REMARK    3  A    between atoms: C_3  and  C_4
REMARK    4  A    between atoms: C_4  and  C_5
REMARK    5  A    between atoms: C_5  and  N_6
REMARK    6  A    between atoms: C_5  and  C_21
REMARK    7  A    between atoms: N_23  and  C_24
REMARK    8  A    between atoms: C_24  and  C_25
REMARK                            x       y       z     vdW  Elec       q    Type
REMARK                         _______ _______ _______ _____ _____    ______ ____
ROOT
ATOM      1  C   UNL     1       0.617  10.067  19.865  0.00  0.00    +0.000 C 
ENDROOT
BRANCH   1   2
ATOM      2  N   UNL     1       1.545   8.974  19.579  0.00  0.00    +0.000 N 
ATOM      3  C   UNL     1       2.167   8.802  18.369  0.00  0.00    +0.000 C 
ATOM      4  O   UNL     1       2.128   9.651  17.479  0.00  0.00    +0.000 OA
ATOM      5  N   UNL     1       2.875   7.639  18.234  0.00  0.00    +0.000 N 
ATOM      6  C   UNL     1       3.781   7.313  17.123  0.00  0.00    +0.000 C 
ATOM      7  C   UNL     1       4.102   5.810  17.304  0.00  0.00    +0.000 C 
ATOM      8  N   UNL     1       3.480   5.519  18.583  0.00  0.00    +0.000 N 
ATOM      9  C   UNL     1       2.779   6.569  19.077  0.00  0.00    +0.000 A 
ATOM     10  N   UNL     1       2.134   6.284  20.173  0.00  0.00    +0.000 NA
ATOM     11  C   UNL     1       2.450   4.949  20.383  0.00  0.00    +0.000 A 
ATOM     12  C   UNL     1       2.033   4.099  21.416  0.00  0.00    +0.000 A 
ATOM     13  C   UNL     1       2.452   2.763  21.398  0.00  0.00    +0.000 A 
ATOM     14  C   UNL     1       3.269   2.281  20.371  0.00  0.00    +0.000 A 
ATOM     15  C   UNL     1       3.707   3.111  19.332  0.00  0.00    +0.000 A 
ATOM     16  C   UNL     1       3.284   4.440  19.373  0.00  0.00    +0.000 A 
ATOM     17  H   UNL     1       1.420   8.113  20.108  0.00  0.00    +0.000 HD
ENDBRANCH   1   2
BRANCH   1  18
ATOM     18  C   UNL     1       0.470  10.236  21.398  0.00  0.00    +0.000 C 
ATOM     19  O   UNL     1       1.421  10.229  22.177  0.00  0.00    +0.000 OA
ATOM     20  N   UNL     1      -0.834  10.453  21.795  0.00  0.00    +0.000 N 
ATOM     21  H   UNL     1      -1.430  10.851  21.070  0.00  0.00    +0.000 HD
BRANCH  20  22
ATOM     22  C   UNL     1      -1.167  10.816  23.148  0.00  0.00    +0.000 C 
BRANCH  22  23
ATOM     23  C   UNL     1      -1.824  12.173  23.188  0.00  0.00    +0.000 A 
ATOM     24  C   UNL     1      -3.190  12.285  23.497  0.00  0.00    +0.000 A 
ATOM     25  C   UNL     1      -3.808  13.536  23.530  0.00  0.00    +0.000 A 
ATOM     26  C   UNL     1      -3.066  14.674  23.243  0.00  0.00    +0.000 A 
ATOM     27  F   UNL     1      -3.660  15.876  23.278  0.00  0.00    +0.000 F 
ATOM     28  C   UNL     1      -1.719  14.586  22.917  0.00  0.00    +0.000 A 
ATOM     29  C   UNL     1      -1.097  13.335  22.883  0.00  0.00    +0.000 A 
ENDBRANCH  22  23
ENDBRANCH  20  22
ENDBRANCH   1  18
BRANCH   1  30
ATOM     30  C   UNL     1      -0.747   9.763  19.219  0.00  0.00    +0.000 C 
BRANCH  30  31
ATOM     31  C   UNL     1      -1.208  10.781  18.174  0.00  0.00    +0.000 C 
BRANCH  31  33
ATOM     32  C   UNL     1      -3.897  11.108  17.649  0.00  0.00    +0.000 C 
ATOM     33  S   UNL     1      -2.506  10.098  17.091  0.00  0.00    +0.000 S 
ENDBRANCH  31  33
ENDBRANCH  30  31
ENDBRANCH   1  30
TORSDOF 7
ENDMDL
MODEL 5
REMARK VINA RESULT:      -8.0      4.464      8.849
REMARK  Name = 
REMARK  8 active torsions:
REMARK  status: ('A' for Active; 'I' for Inactive)
REMARK    1  A    between atoms: C_1  and  S_2
REMARK    2  A    between atoms: S_2  and  C_3
REMARK    3  A    between atoms: C_3  and  C_4
REMARK    4  A    between atoms: C_4  and  C_5
REMARK    5  A    between atoms: C_5  and  N_6
REMARK    6  A    between atoms: C_5  and  C_21
REMARK    7  A    between atoms: N_23  and  C_24
REMARK    8  A    between atoms: C_24  and  C_25
REMARK                            x       y       z     vdW  Elec       q    Type
REMARK                         _______ _______ _______ _____ _____    ______ ____
ROOT
ATOM      1  C   UNL     1       0.505  10.118  19.407  0.00  0.00    +0.000 C 
ENDROOT
BRANCH   1   2
ATOM      2  N   UNL     1       1.475   9.033  19.272  0.00  0.00    +0.000 N 
ATOM      3  C   UNL     1       2.220   8.815  18.141  0.00  0.00    +0.000 C 
ATOM      4  O   UNL     1       2.257   9.618  17.209  0.00  0.00    +0.000 OA
ATOM      5  N   UNL     1       2.958   7.663  18.137  0.00  0.00    +0.000 N 
ATOM      6  C   UNL     1       3.978   7.303  17.142  0.00  0.00    +0.000 C 
ATOM      7  C   UNL     1       4.304   5.818  17.431  0.00  0.00    +0.000 C 
ATOM      8  N   UNL     1       3.562   5.577  18.654  0.00  0.00    +0.000 N 
ATOM      9  C   UNL     1       2.795   6.635  19.020  0.00  0.00    +0.000 A 
ATOM     10  N   UNL     1       2.047   6.390  20.059  0.00  0.00    +0.000 NA
ATOM     11  C   UNL     1       2.364   5.074  20.368  0.00  0.00    +0.000 A 
ATOM     12  C   UNL     1       1.859   4.267  21.397  0.00  0.00    +0.000 A 
ATOM     13  C   UNL     1       2.300   2.942  21.490  0.00  0.00    +0.000 A 
ATOM     14  C   UNL     1       3.226   2.427  20.577  0.00  0.00    +0.000 A 
ATOM     15  C   UNL     1       3.753   3.215  19.545  0.00  0.00    +0.000 A 
ATOM     16  C   UNL     1       3.305   4.535  19.475  0.00  0.00    +0.000 A 
ATOM     17  H   UNL     1       1.312   8.197  19.829  0.00  0.00    +0.000 HD
ENDBRANCH   1   2
BRANCH   1  18
ATOM     18  C   UNL     1       1.242  11.434  19.762  0.00  0.00    +0.000 C 
ATOM     19  O   UNL     1       1.508  11.774  20.913  0.00  0.00    +0.000 OA
ATOM     20  N   UNL     1       1.619  12.158  18.650  0.00  0.00    +0.000 N 
ATOM     21  H   UNL     1       1.727  11.599  17.804  0.00  0.00    +0.000 HD
BRANCH  20  22
ATOM     22  C   UNL     1       2.472  13.314  18.748  0.00  0.00    +0.000 C 
BRANCH  22  23
ATOM     23  C   UNL     1       1.662  14.582  18.662  0.00  0.00    +0.000 A 
ATOM     24  C   UNL     1       0.271  14.544  18.856  0.00  0.00    +0.000 A 
ATOM     25  C   UNL     1      -0.489  15.712  18.772  0.00  0.00    +0.000 A 
ATOM     26  C   UNL     1       0.137  16.916  18.480  0.00  0.00    +0.000 A 
ATOM     27  F   UNL     1      -0.592  18.038  18.403  0.00  0.00    +0.000 F 
ATOM     28  C   UNL     1       1.509  16.976  18.266  0.00  0.00    +0.000 A 
ATOM     29  C   UNL     1       2.272  15.808  18.350  0.00  0.00    +0.000 A 
ENDBRANCH  22  23
ENDBRANCH  20  22
ENDBRANCH   1  18
BRANCH   1  30
ATOM     30  C   UNL     1      -0.519   9.756  20.499  0.00  0.00    +0.000 C 
BRANCH  30  31
ATOM     31  C   UNL     1      -0.038   8.719  21.516  0.00  0.00    +0.000 C 
BRANCH  31  33
ATOM     32  C   UNL     1      -1.138  10.751  23.023  0.00  0.00    +0.000 C 
ATOM     33  S   UNL     1       0.067   9.417  23.197  0.00  0.00    +0.000 S 
ENDBRANCH  31  33
ENDBRANCH  30  31
ENDBRANCH   1  30
TORSDOF 7
ENDMDL
MODEL 6
REMARK VINA RESULT:      -7.9      4.821     10.045
REMARK  Name = 
REMARK  8 active torsions:
REMARK  status: ('A' for Active; 'I' for Inactive)
REMARK    1  A    between atoms: C_1  and  S_2
REMARK    2  A    between atoms: S_2  and  C_3
REMARK    3  A    between atoms: C_3  and  C_4
REMARK    4  A    between atoms: C_4  and  C_5
REMARK    5  A    between atoms: C_5  and  N_6
REMARK    6  A    between atoms: C_5  and  C_21
REMARK    7  A    between atoms: N_23  and  C_24
REMARK    8  A    between atoms: C_24  and  C_25
REMARK                            x       y       z     vdW  Elec       q    Type
REMARK                         _______ _______ _______ _____ _____    ______ ____
ROOT
ATOM      1  C   UNL     1       0.434  10.000  19.682  0.00  0.00    +0.000 C 
ENDROOT
BRANCH   1   2
ATOM      2  N   UNL     1       1.427   8.949  19.465  0.00  0.00    +0.000 N 
ATOM      3  C   UNL     1       2.136   8.801  18.300  0.00  0.00    +0.000 C 
ATOM      4  O   UNL     1       2.119   9.645  17.404  0.00  0.00    +0.000 OA
ATOM      5  N   UNL     1       2.903   7.670  18.219  0.00  0.00    +0.000 N 
ATOM      6  C   UNL     1       3.895   7.382  17.173  0.00  0.00    +0.000 C 
ATOM      7  C   UNL     1       4.269   5.895  17.384  0.00  0.00    +0.000 C 
ATOM      8  N   UNL     1       3.578   5.581  18.620  0.00  0.00    +0.000 N 
ATOM      9  C   UNL     1       2.798   6.600  19.060  0.00  0.00    +0.000 A 
ATOM     10  N   UNL     1       2.095   6.290  20.113  0.00  0.00    +0.000 NA
ATOM     11  C   UNL     1       2.456   4.971  20.351  0.00  0.00    +0.000 A 
ATOM     12  C   UNL     1       2.009   4.106  21.359  0.00  0.00    +0.000 A 
ATOM     13  C   UNL     1       2.488   2.791  21.377  0.00  0.00    +0.000 A 
ATOM     14  C   UNL     1       3.393   2.342  20.410  0.00  0.00    +0.000 A 
ATOM     15  C   UNL     1       3.861   3.189  19.397  0.00  0.00    +0.000 A 
ATOM     16  C   UNL     1       3.378   4.497  19.402  0.00  0.00    +0.000 A 
ATOM     17  H   UNL     1       1.306   8.085  19.989  0.00  0.00    +0.000 HD
ENDBRANCH   1   2
BRANCH   1  18
ATOM     18  C   UNL     1      -0.285   9.764  21.034  0.00  0.00    +0.000 C 
ATOM     19  O   UNL     1      -0.515   8.648  21.496  0.00  0.00    +0.000 OA
ATOM     20  N   UNL     1      -0.591  10.936  21.694  0.00  0.00    +0.000 N 
ATOM     21  H   UNL     1       0.002  11.726  21.440  0.00  0.00    +0.000 HD
BRANCH  20  22
ATOM     22  C   UNL     1      -1.093  10.940  23.044  0.00  0.00    +0.000 C 
BRANCH  22  23
ATOM     23  C   UNL     1      -1.856  12.210  23.323  0.00  0.00    +0.000 A 
ATOM     24  C   UNL     1      -3.242  12.163  23.553  0.00  0.00    +0.000 A 
ATOM     25  C   UNL     1      -3.958  13.334  23.806  0.00  0.00    +0.000 A 
ATOM     26  C   UNL     1      -3.294  14.554  23.817  0.00  0.00    +0.000 A 
ATOM     27  F   UNL     1      -3.982  15.678  24.064  0.00  0.00    +0.000 F 
ATOM     28  C   UNL     1      -1.928  14.626  23.575  0.00  0.00    +0.000 A 
ATOM     29  C   UNL     1      -1.208  13.456  23.322  0.00  0.00    +0.000 A 
ENDBRANCH  22  23
ENDBRANCH  20  22
ENDBRANCH   1  18
BRANCH   1  30
ATOM     30  C   UNL     1      -0.576   9.997  18.520  0.00  0.00    +0.000 C 
BRANCH  30  31
ATOM     31  C   UNL     1      -1.235  11.348  18.234  0.00  0.00    +0.000 C 
BRANCH  31  33
ATOM     32  C   UNL     1      -1.043  13.730  19.612  0.00  0.00    +0.000 C 
ATOM     33  S   UNL     1      -0.070  12.731  18.462  0.00  0.00    +0.000 S 
ENDBRANCH  31  33
ENDBRANCH  30  31
ENDBRANCH   1  30
TORSDOF 7
ENDMDL
MODEL 7
REMARK VINA RESULT:      -7.8      1.394      1.696
REMARK  Name = 
REMARK  8 active torsions:
REMARK  status: ('A' for Active; 'I' for Inactive)
REMARK    1  A    between atoms: C_1  and  S_2
REMARK    2  A    between atoms: S_2  and  C_3
REMARK    3  A    between atoms: C_3  and  C_4
REMARK    4  A    between atoms: C_4  and  C_5
REMARK    5  A    between atoms: C_5  and  N_6
REMARK    6  A    between atoms: C_5  and  C_21
REMARK    7  A    between atoms: N_23  and  C_24
REMARK    8  A    between atoms: C_24  and  C_25
REMARK                            x       y       z     vdW  Elec       q    Type
REMARK                         _______ _______ _______ _____ _____    ______ ____
ROOT
ATOM      1  C   UNL     1       2.949   5.796  19.631  0.00  0.00    +0.000 C 
ENDROOT
BRANCH   1   2
ATOM      2  N   UNL     1       2.194   7.041  19.500  0.00  0.00    +0.000 N 
ATOM      3  C   UNL     1       2.518   8.037  18.614  0.00  0.00    +0.000 C 
ATOM      4  O   UNL     1       3.370   7.891  17.738  0.00  0.00    +0.000 OA
ATOM      5  N   UNL     1       1.796   9.192  18.741  0.00  0.00    +0.000 N 
ATOM      6  C   UNL     1       1.815  10.321  17.799  0.00  0.00    +0.000 C 
ATOM      7  C   UNL     1       1.059  11.457  18.530  0.00  0.00    +0.000 C 
ATOM      8  N   UNL     1       0.561  10.778  19.712  0.00  0.00    +0.000 N 
ATOM      9  C   UNL     1       1.009   9.502  19.813  0.00  0.00    +0.000 A 
ATOM     10  N   UNL     1       0.651   8.919  20.923  0.00  0.00    +0.000 NA
ATOM     11  C   UNL     1      -0.076   9.907  21.573  0.00  0.00    +0.000 A 
ATOM     12  C   UNL     1      -0.706   9.855  22.824  0.00  0.00    +0.000 A 
ATOM     13  C   UNL     1      -1.352  11.003  23.299  0.00  0.00    +0.000 A 
ATOM     14  C   UNL     1      -1.370  12.180  22.546  0.00  0.00    +0.000 A 
ATOM     15  C   UNL     1      -0.756  12.256  21.289  0.00  0.00    +0.000 A 
ATOM     16  C   UNL     1      -0.124  11.100  20.832  0.00  0.00    +0.000 A 
ATOM     17  H   UNL     1       1.693   7.365  20.324  0.00  0.00    +0.000 HD
ENDBRANCH   1   2
BRANCH   1  18
ATOM     18  C   UNL     1       2.776   4.945  18.348  0.00  0.00    +0.000 C 
ATOM     19  O   UNL     1       1.776   4.986  17.635  0.00  0.00    +0.000 OA
ATOM     20  N   UNL     1       3.884   4.176  18.057  0.00  0.00    +0.000 N 
ATOM     21  H   UNL     1       4.756   4.534  18.447  0.00  0.00    +0.000 HD
BRANCH  20  22
ATOM     22  C   UNL     1       4.005   3.455  16.816  0.00  0.00    +0.000 C 
BRANCH  22  23
ATOM     23  C   UNL     1       5.130   4.013  15.983  0.00  0.00    +0.000 A 
ATOM     24  C   UNL     1       5.170   3.771  14.600  0.00  0.00    +0.000 A 
ATOM     25  C   UNL     1       6.212   4.279  13.821  0.00  0.00    +0.000 A 
ATOM     26  C   UNL     1       7.221   5.017  14.425  0.00  0.00    +0.000 A 
ATOM     27  F   UNL     1       8.219   5.508  13.677  0.00  0.00    +0.000 F 
ATOM     28  C   UNL     1       7.212   5.253  15.795  0.00  0.00    +0.000 A 
ATOM     29  C   UNL     1       6.171   4.747  16.576  0.00  0.00    +0.000 A 
ENDBRANCH  22  23
ENDBRANCH  20  22
ENDBRANCH   1  18
BRANCH   1  30
ATOM     30  C   UNL     1       2.451   5.024  20.867  0.00  0.00    +0.000 C 
BRANCH  30  31
ATOM     31  C   UNL     1       1.092   4.342  20.698  0.00  0.00    +0.000 C 
BRANCH  31  33
ATOM     32  C   UNL     1       2.849   2.387  21.536  0.00  0.00    +0.000 C 
ATOM     33  S   UNL     1       1.236   2.525  20.733  0.00  0.00    +0.000 S 
ENDBRANCH  31  33
ENDBRANCH  30  31
ENDBRANCH   1  30
TORSDOF 7
ENDMDL
MODEL 8
REMARK VINA RESULT:      -7.8      1.201      1.643
REMARK  Name = 
REMARK  8 active torsions:
REMARK  status: ('A' for Active; 'I' for Inactive)
REMARK    1  A    between atoms: C_1  and  S_2
REMARK    2  A    between atoms: S_2  and  C_3
REMARK    3  A    between atoms: C_3  and  C_4
REMARK    4  A    between atoms: C_4  and  C_5
REMARK    5  A    between atoms: C_5  and  N_6
REMARK    6  A    between atoms: C_5  and  C_21
REMARK    7  A    between atoms: N_23  and  C_24
REMARK    8  A    between atoms: C_24  and  C_25
REMARK                            x       y       z     vdW  Elec       q    Type
REMARK                         _______ _______ _______ _____ _____    ______ ____
ROOT
ATOM      1  C   UNL     1       4.173   4.836  19.829  0.00  0.00    +0.000 C 
ENDROOT
BRANCH   1   2
ATOM      2  N   UNL     1       3.217   5.921  19.612  0.00  0.00    +0.000 N 
ATOM      3  C   UNL     1       3.257   6.767  18.533  0.00  0.00    +0.000 C 
ATOM      4  O   UNL     1       3.998   6.573  17.569  0.00  0.00    +0.000 OA
ATOM      5  N   UNL     1       2.382   7.818  18.578  0.00  0.00    +0.000 N 
ATOM      6  C   UNL     1       2.095   8.740  17.469  0.00  0.00    +0.000 C 
ATOM      7  C   UNL     1       1.269   9.881  18.110  0.00  0.00    +0.000 C 
ATOM      8  N   UNL     1       1.046   9.377  19.453  0.00  0.00    +0.000 N 
ATOM      9  C   UNL     1       1.704   8.215  19.693  0.00  0.00    +0.000 A 
ATOM     10  N   UNL     1       1.593   7.810  20.927  0.00  0.00    +0.000 NA
ATOM     11  C   UNL     1       0.809   8.796  21.510  0.00  0.00    +0.000 A 
ATOM     12  C   UNL     1       0.366   8.898  22.836  0.00  0.00    +0.000 A 
ATOM     13  C   UNL     1      -0.388  10.017  23.209  0.00  0.00    +0.000 A 
ATOM     14  C   UNL     1      -0.695  11.018  22.282  0.00  0.00    +0.000 A 
ATOM     15  C   UNL     1      -0.271  10.937  20.949  0.00  0.00    +0.000 A 
ATOM     16  C   UNL     1       0.472   9.810  20.597  0.00  0.00    +0.000 A 
ATOM     17  H   UNL     1       2.783   6.325  20.440  0.00  0.00    +0.000 HD
ENDBRANCH   1   2
BRANCH   1  18
ATOM     18  C   UNL     1       5.530   5.202  19.177  0.00  0.00    +0.000 C 
ATOM     19  O   UNL     1       6.348   5.961  19.691  0.00  0.00    +0.000 OA
ATOM     20  N   UNL     1       5.750   4.543  17.984  0.00  0.00    +0.000 N 
ATOM     21  H   UNL     1       5.235   3.668  17.889  0.00  0.00    +0.000 HD
BRANCH  20  22
ATOM     22  C   UNL     1       7.021   4.597  17.309  0.00  0.00    +0.000 C 
BRANCH  22  23
ATOM     23  C   UNL     1       6.840   4.434  15.821  0.00  0.00    +0.000 A 
ATOM     24  C   UNL     1       7.667   5.138  14.929  0.00  0.00    +0.000 A 
ATOM     25  C   UNL     1       7.502   4.998  13.550  0.00  0.00    +0.000 A 
ATOM     26  C   UNL     1       6.503   4.167  13.060  0.00  0.00    +0.000 A 
ATOM     27  F   UNL     1       6.347   4.031  11.736  0.00  0.00    +0.000 F 
ATOM     28  C   UNL     1       5.661   3.476  13.923  0.00  0.00    +0.000 A 
ATOM     29  C   UNL     1       5.824   3.613  15.304  0.00  0.00    +0.000 A 
ENDBRANCH  22  23
ENDBRANCH  20  22
ENDBRANCH   1  18
BRANCH   1  30
ATOM     30  C   UNL     1       3.613   3.534  19.226  0.00  0.00    +0.000 C 
BRANCH  30  31
ATOM     31  C   UNL     1       2.933   2.599  20.229  0.00  0.00    +0.000 C 
BRANCH  31  33
ATOM     32  C   UNL     1       0.580   2.552  18.789  0.00  0.00    +0.000 C 
ATOM     33  S   UNL     1       1.167   3.000  20.438  0.00  0.00    +0.000 S 
ENDBRANCH  31  33
ENDBRANCH  30  31
ENDBRANCH   1  30
TORSDOF 7
ENDMDL
MODEL 9
REMARK VINA RESULT:      -7.8      4.769     10.036
REMARK  Name = 
REMARK  8 active torsions:
REMARK  status: ('A' for Active; 'I' for Inactive)
REMARK    1  A    between atoms: C_1  and  S_2
REMARK    2  A    between atoms: S_2  and  C_3
REMARK    3  A    between atoms: C_3  and  C_4
REMARK    4  A    between atoms: C_4  and  C_5
REMARK    5  A    between atoms: C_5  and  N_6
REMARK    6  A    between atoms: C_5  and  C_21
REMARK    7  A    between atoms: N_23  and  C_24
REMARK    8  A    between atoms: C_24  and  C_25
REMARK                            x       y       z     vdW  Elec       q    Type
REMARK                         _______ _______ _______ _____ _____    ______ ____
ROOT
ATOM      1  C   UNL     1       0.388  10.046  19.790  0.00  0.00    +0.000 C 
ENDROOT
BRANCH   1   2
ATOM      2  N   UNL     1       1.377   8.999  19.535  0.00  0.00    +0.000 N 
ATOM      3  C   UNL     1       2.056   8.867  18.351  0.00  0.00    +0.000 C 
ATOM      4  O   UNL     1       2.016   9.722  17.467  0.00  0.00    +0.000 OA
ATOM      5  N   UNL     1       2.822   7.739  18.237  0.00  0.00    +0.000 N 
ATOM      6  C   UNL     1       3.789   7.466  17.163  0.00  0.00    +0.000 C 
ATOM      7  C   UNL     1       4.170   5.977  17.347  0.00  0.00    +0.000 C 
ATOM      8  N   UNL     1       3.511   5.646  18.596  0.00  0.00    +0.000 N 
ATOM      9  C   UNL     1       2.741   6.659  19.067  0.00  0.00    +0.000 A 
ATOM     10  N   UNL     1       2.064   6.334  20.133  0.00  0.00    +0.000 NA
ATOM     11  C   UNL     1       2.433   5.013  20.346  0.00  0.00    +0.000 A 
ATOM     12  C   UNL     1       2.013   4.135  21.355  0.00  0.00    +0.000 A 
ATOM     13  C   UNL     1       2.494   2.820  21.344  0.00  0.00    +0.000 A 
ATOM     14  C   UNL     1       3.375   2.385  20.350  0.00  0.00    +0.000 A 
ATOM     15  C   UNL     1       3.817   3.245  19.336  0.00  0.00    +0.000 A 
ATOM     16  C   UNL     1       3.331   4.552  19.369  0.00  0.00    +0.000 A 
ATOM     17  H   UNL     1       1.270   8.129  20.052  0.00  0.00    +0.000 HD
ENDBRANCH   1   2
BRANCH   1  18
ATOM     18  C   UNL     1       0.131  10.158  21.314  0.00  0.00    +0.000 C 
ATOM     19  O   UNL     1       0.776   9.541  22.159  0.00  0.00    +0.000 OA
ATOM     20  N   UNL     1      -0.860  11.065  21.629  0.00  0.00    +0.000 N 
ATOM     21  H   UNL     1      -1.004  11.788  20.924  0.00  0.00    +0.000 HD
BRANCH  20  22
ATOM     22  C   UNL     1      -1.130  11.456  22.988  0.00  0.00    +0.000 C 
BRANCH  22  23
ATOM     23  C   UNL     1      -2.061  12.641  23.026  0.00  0.00    +0.000 A 
ATOM     24  C   UNL     1      -1.606  13.879  23.512  0.00  0.00    +0.000 A 
ATOM     25  C   UNL     1      -2.463  14.980  23.557  0.00  0.00    +0.000 A 
ATOM     26  C   UNL     1      -3.777  14.843  23.129  0.00  0.00    +0.000 A 
ATOM     27  F   UNL     1      -4.599  15.902  23.169  0.00  0.00    +0.000 F 
ATOM     28  C   UNL     1      -4.254  13.624  22.662  0.00  0.00    +0.000 A 
ATOM     29  C   UNL     1      -3.399  12.520  22.615  0.00  0.00    +0.000 A 
ENDBRANCH  22  23
ENDBRANCH  20  22
ENDBRANCH   1  18
BRANCH   1  30
ATOM     30  C   UNL     1      -0.915   9.711  19.042  0.00  0.00    +0.000 C 
BRANCH  30  31
ATOM     31  C   UNL     1      -1.385  10.780  18.053  0.00  0.00    +0.000 C 
BRANCH  31  33
ATOM     32  C   UNL     1      -2.736  10.687  15.649  0.00  0.00    +0.000 C 
ATOM     33  S   UNL     1      -3.052  10.420  17.408  0.00  0.00    +0.000 S 
ENDBRANCH  31  33
ENDBRANCH  30  31
ENDBRANCH   1  30
TORSDOF 7
ENDMDL
