MODEL 1
REMARK VINA RESULT:      -7.9      0.000      0.000
REMARK  Name = 
REMARK  9 active torsions:
REMARK  status: ('A' for Active; 'I' for Inactive)
REMARK    1  A    between atoms: C_1  and  O_2
REMARK    2  A    between atoms: O_2  and  C_3
REMARK    3  A    between atoms: C_3  and  C_5
REMARK    4  A    between atoms: C_5  and  C_6
REMARK    5  A    between atoms: C_9  and  N_10
REMARK    6  A    between atoms: N_10  and  C_11
REMARK    7  A    between atoms: N_10  and  S_19
REMARK    8  A    between atoms: C_11  and  C_12
REMARK    9  A    between atoms: S_19  and  C_22
REMARK                            x       y       z     vdW  Elec       q    Type
REMARK                         _______ _______ _______ _____ _____    ______ ____
ROOT
ATOM      1  N   UNL     1      -0.189  10.709  18.829  0.00  0.00    +0.000 N 
ENDROOT
BRANCH   1   5
ATOM      2  C   UNL     1       2.482   7.430  19.157  0.00  0.00    +0.000 A 
ATOM      3  C   UNL     1       2.498   8.233  18.009  0.00  0.00    +0.000 A 
ATOM      4  C   UNL     1       1.699   9.377  17.924  0.00  0.00    +0.000 A 
ATOM      5  C   UNL     1       0.872   9.739  18.988  0.00  0.00    +0.000 A 
ATOM      6  C   UNL     1       0.914   8.986  20.166  0.00  0.00    +0.000 A 
ATOM      7  C   UNL     1       1.726   7.846  20.259  0.00  0.00    +0.000 A 
BRANCH   2   8
ATOM      8  C   UNL     1       3.207   6.102  19.168  0.00  0.00    +0.000 C 
BRANCH   8   9
ATOM      9  C   UNL     1       3.097   5.286  17.903  0.00  0.00    +0.000 C 
ATOM     10  O   UNL     1       3.984   5.097  17.083  0.00  0.00    +0.000 OA
BRANCH   9  12
ATOM     11  C   UNL     1       1.461   3.937  18.909  0.00  0.00    +0.000 C 
ATOM     12  O   UNL     1       1.833   4.774  17.815  0.00  0.00    +0.000 OA
ENDBRANCH   9  12
ENDBRANCH   8   9
ENDBRANCH   2   8
ENDBRANCH   1   5
BRANCH   1  13
ATOM     13  S   UNL     1       0.094  12.195  19.698  0.00  0.00    +0.000 S 
ATOM     14  O   UNL     1       1.386  12.137  20.352  0.00  0.00    +0.000 OA
ATOM     15  O   UNL     1      -0.210  13.295  18.802  0.00  0.00    +0.000 OA
BRANCH  13  16
ATOM     16  C   UNL     1      -1.149  12.247  21.000  0.00  0.00    +0.000 A 
ATOM     17  C   UNL     1      -0.973  11.489  22.164  0.00  0.00    +0.000 A 
ATOM     18  C   UNL     1      -1.888  11.610  23.220  0.00  0.00    +0.000 A 
ATOM     19  C   UNL     1      -2.954  12.502  23.119  0.00  0.00    +0.000 A 
ATOM     20 BR   UNL     1      -4.179  12.669  24.550  0.00  0.00    +0.000 Br
ATOM     21  C   UNL     1      -3.112  13.287  21.979  0.00  0.00    +0.000 A 
ATOM     22  C   UNL     1      -2.204  13.167  20.918  0.00  0.00    +0.000 A 
ENDBRANCH  13  16
ENDBRANCH   1  13
BRANCH   1  23
ATOM     23  C   UNL     1      -1.603  10.251  18.926  0.00  0.00    +0.000 C 
BRANCH  23  24
ATOM     24  C   UNL     1      -2.462  10.275  17.681  0.00  0.00    +0.000 A 
ATOM     25  C   UNL     1      -2.040   9.764  16.446  0.00  0.00    +0.000 A 
ATOM     26  C   UNL     1      -2.767  10.044  15.279  0.00  0.00    +0.000 A 
ATOM     27  C   UNL     1      -3.918  10.833  15.330  0.00  0.00    +0.000 A 
ATOM     28  C   UNL     1      -4.365  11.318  16.555  0.00  0.00    +0.000 A 
ATOM     29  C   UNL     1      -3.640  11.037  17.709  0.00  0.00    +0.000 A 
ATOM     30  F   UNL     1      -4.063  11.559  18.870  0.00  0.00    +0.000 F 
ENDBRANCH  23  24
ENDBRANCH   1  23
TORSDOF 8
ENDMDL
MODEL 2
REMARK VINA RESULT:      -7.7      0.972      1.572
REMARK  Name = 
REMARK  9 active torsions:
REMARK  status: ('A' for Active; 'I' for Inactive)
REMARK    1  A    between atoms: C_1  and  O_2
REMARK    2  A    between atoms: O_2  and  C_3
REMARK    3  A    between atoms: C_3  and  C_5
REMARK    4  A    between atoms: C_5  and  C_6
REMARK    5  A    between atoms: C_9  and  N_10
REMARK    6  A    between atoms: N_10  and  C_11
REMARK    7  A    between atoms: N_10  and  S_19
REMARK    8  A    between atoms: C_11  and  C_12
REMARK    9  A    between atoms: S_19  and  C_22
REMARK                            x       y       z     vdW  Elec       q    Type
REMARK                         _______ _______ _______ _____ _____    ______ ____
ROOT
ATOM      1  N   UNL     1       0.025  10.667  19.078  0.00  0.00    +0.000 N 
ENDROOT
BRANCH   1   5
ATOM      2  C   UNL     1       2.551   7.260  19.187  0.00  0.00    +0.000 A 
ATOM      3  C   UNL     1       2.601   8.134  18.092  0.00  0.00    +0.000 A 
ATOM      4  C   UNL     1       1.853   9.315  18.084  0.00  0.00    +0.000 A 
ATOM      5  C   UNL     1       1.043   9.643  19.171  0.00  0.00    +0.000 A 
ATOM      6  C   UNL     1       1.052   8.815  20.299  0.00  0.00    +0.000 A 
ATOM      7  C   UNL     1       1.813   7.636  20.315  0.00  0.00    +0.000 A 
BRANCH   2   8
ATOM      8  C   UNL     1       3.216   5.904  19.109  0.00  0.00    +0.000 C 
BRANCH   8   9
ATOM      9  C   UNL     1       2.736   5.000  18.000  0.00  0.00    +0.000 C 
ATOM     10  O   UNL     1       1.574   4.817  17.666  0.00  0.00    +0.000 OA
BRANCH   9  12
ATOM     11  C   UNL     1       4.699   5.325  16.753  0.00  0.00    +0.000 C 
ATOM     12  O   UNL     1       3.818   4.412  17.409  0.00  0.00    +0.000 OA
ENDBRANCH   9  12
ENDBRANCH   8   9
ENDBRANCH   2   8
ENDBRANCH   1   5
BRANCH   1  13
ATOM     13  S   UNL     1       0.349  12.059  20.079  0.00  0.00    +0.000 S 
ATOM     14  O   UNL     1       1.562  11.838  20.841  0.00  0.00    +0.000 OA
ATOM     15  O   UNL     1       0.227  13.240  19.246  0.00  0.00    +0.000 OA
BRANCH  13  16
ATOM     16  C   UNL     1      -1.006  12.137  21.265  0.00  0.00    +0.000 A 
ATOM     17  C   UNL     1      -0.972  11.341  22.416  0.00  0.00    +0.000 A 
ATOM     18  C   UNL     1      -1.974  11.478  23.387  0.00  0.00    +0.000 A 
ATOM     19  C   UNL     1      -2.984  12.423  23.218  0.00  0.00    +0.000 A 
ATOM     20 BR   UNL     1      -4.327  12.611  24.536  0.00  0.00    +0.000 Br
ATOM     21  C   UNL     1      -3.001  13.244  22.092  0.00  0.00    +0.000 A 
ATOM     22  C   UNL     1      -2.005  13.108  21.115  0.00  0.00    +0.000 A 
ENDBRANCH  13  16
ENDBRANCH   1  13
BRANCH   1  23
ATOM     23  C   UNL     1      -1.408  10.262  19.109  0.00  0.00    +0.000 C 
BRANCH  23  24
ATOM     24  C   UNL     1      -2.298  10.654  17.951  0.00  0.00    +0.000 A 
ATOM     25  C   UNL     1      -3.415  11.490  18.088  0.00  0.00    +0.000 A 
ATOM     26  C   UNL     1      -4.343  11.609  17.042  0.00  0.00    +0.000 A 
ATOM     27  C   UNL     1      -4.169  10.899  15.853  0.00  0.00    +0.000 A 
ATOM     28  C   UNL     1      -3.046  10.093  15.692  0.00  0.00    +0.000 A 
ATOM     29  C   UNL     1      -2.130   9.979  16.732  0.00  0.00    +0.000 A 
ATOM     30  F   UNL     1      -1.083   9.155  16.573  0.00  0.00    +0.000 F 
ENDBRANCH  23  24
ENDBRANCH   1  23
TORSDOF 8
ENDMDL
MODEL 3
REMARK VINA RESULT:      -7.5      0.988      1.352
REMARK  Name = 
REMARK  9 active torsions:
REMARK  status: ('A' for Active; 'I' for Inactive)
REMARK    1  A    between atoms: C_1  and  O_2
REMARK    2  A    between atoms: O_2  and  C_3
REMARK    3  A    between atoms: C_3  and  C_5
REMARK    4  A    between atoms: C_5  and  C_6
REMARK    5  A    between atoms: C_9  and  N_10
REMARK    6  A    between atoms: N_10  and  C_11
REMARK    7  A    between atoms: N_10  and  S_19
REMARK    8  A    between atoms: C_11  and  C_12
REMARK    9  A    between atoms: S_19  and  C_22
REMARK                            x       y       z     vdW  Elec       q    Type
REMARK                         _______ _______ _______ _____ _____    ______ ____
ROOT
ATOM      1  N   UNL     1      -0.022  10.743  19.069  0.00  0.00    +0.000 N 
ENDROOT
BRANCH   1   5
ATOM      2  C   UNL     1       2.499   7.341  18.802  0.00  0.00    +0.000 A 
ATOM      3  C   UNL     1       2.459   8.267  17.750  0.00  0.00    +0.000 A 
ATOM      4  C   UNL     1       1.715   9.445  17.862  0.00  0.00    +0.000 A 
ATOM      5  C   UNL     1       0.998   9.718  19.027  0.00  0.00    +0.000 A 
ATOM      6  C   UNL     1       1.100   8.836  20.109  0.00  0.00    +0.000 A 
ATOM      7  C   UNL     1       1.858   7.660  20.004  0.00  0.00    +0.000 A 
BRANCH   2   8
ATOM      8  C   UNL     1       3.153   5.992  18.604  0.00  0.00    +0.000 C 
BRANCH   8   9
ATOM      9  C   UNL     1       4.612   6.022  18.218  0.00  0.00    +0.000 C 
ATOM     10  O   UNL     1       5.064   6.280  17.112  0.00  0.00    +0.000 OA
BRANCH   9  12
ATOM     11  C   UNL     1       6.735   5.429  19.025  0.00  0.00    +0.000 C 
ATOM     12  O   UNL     1       5.367   5.717  19.315  0.00  0.00    +0.000 OA
ENDBRANCH   9  12
ENDBRANCH   8   9
ENDBRANCH   2   8
ENDBRANCH   1   5
BRANCH   1  13
ATOM     13  S   UNL     1       0.377  12.076  20.121  0.00  0.00    +0.000 S 
ATOM     14  O   UNL     1       1.573  11.758  20.875  0.00  0.00    +0.000 OA
ATOM     15  O   UNL     1       0.325  13.292  19.333  0.00  0.00    +0.000 OA
BRANCH  13  16
ATOM     16  C   UNL     1      -0.974  12.187  21.308  0.00  0.00    +0.000 A 
ATOM     17  C   UNL     1      -1.027  11.300  22.390  0.00  0.00    +0.000 A 
ATOM     18  C   UNL     1      -2.020  11.453  23.368  0.00  0.00    +0.000 A 
ATOM     19  C   UNL     1      -2.934  12.501  23.275  0.00  0.00    +0.000 A 
ATOM     20 BR   UNL     1      -4.265  12.709  24.603  0.00  0.00    +0.000 Br
ATOM     21  C   UNL     1      -2.862  13.409  22.221  0.00  0.00    +0.000 A 
ATOM     22  C   UNL     1      -1.875  13.258  21.237  0.00  0.00    +0.000 A 
ENDBRANCH  13  16
ENDBRANCH   1  13
BRANCH   1  23
ATOM     23  C   UNL     1      -1.449  10.332  19.183  0.00  0.00    +0.000 C 
BRANCH  23  24
ATOM     24  C   UNL     1      -2.312  10.355  17.941  0.00  0.00    +0.000 A 
ATOM     25  C   UNL     1      -1.931   9.766  16.727  0.00  0.00    +0.000 A 
ATOM     26  C   UNL     1      -2.646  10.040  15.552  0.00  0.00    +0.000 A 
ATOM     27  C   UNL     1      -3.746  10.900  15.572  0.00  0.00    +0.000 A 
ATOM     28  C   UNL     1      -4.155  11.463  16.777  0.00  0.00    +0.000 A 
ATOM     29  C   UNL     1      -3.442  11.189  17.939  0.00  0.00    +0.000 A 
ATOM     30  F   UNL     1      -3.824  11.785  19.078  0.00  0.00    +0.000 F 
ENDBRANCH  23  24
ENDBRANCH   1  23
TORSDOF 8
ENDMDL
MODEL 4
REMARK VINA RESULT:      -7.3      2.882      3.411
REMARK  Name = 
REMARK  9 active torsions:
REMARK  status: ('A' for Active; 'I' for Inactive)
REMARK    1  A    between atoms: C_1  and  O_2
REMARK    2  A    between atoms: O_2  and  C_3
REMARK    3  A    between atoms: C_3  and  C_5
REMARK    4  A    between atoms: C_5  and  C_6
REMARK    5  A    between atoms: C_9  and  N_10
REMARK    6  A    between atoms: N_10  and  C_11
REMARK    7  A    between atoms: N_10  and  S_19
REMARK    8  A    between atoms: C_11  and  C_12
REMARK    9  A    between atoms: S_19  and  C_22
REMARK                            x       y       z     vdW  Elec       q    Type
REMARK                         _______ _______ _______ _____ _____    ______ ____
ROOT
ATOM      1  N   UNL     1      -0.132  10.793  19.334  0.00  0.00    +0.000 N 
ENDROOT
BRANCH   1   5
ATOM      2  C   UNL     1       2.509   7.547  18.637  0.00  0.00    +0.000 A 
ATOM      3  C   UNL     1       2.432   8.597  17.712  0.00  0.00    +0.000 A 
ATOM      4  C   UNL     1       1.645   9.724  17.973  0.00  0.00    +0.000 A 
ATOM      5  C   UNL     1       0.924   9.820  19.163  0.00  0.00    +0.000 A 
ATOM      6  C   UNL     1       1.063   8.812  20.123  0.00  0.00    +0.000 A 
ATOM      7  C   UNL     1       1.863   7.687  19.870  0.00  0.00    +0.000 A 
BRANCH   2   8
ATOM      8  C   UNL     1       3.212   6.259  18.269  0.00  0.00    +0.000 C 
BRANCH   8   9
ATOM      9  C   UNL     1       2.419   4.994  18.490  0.00  0.00    +0.000 C 
ATOM     10  O   UNL     1       1.545   4.550  17.759  0.00  0.00    +0.000 OA
BRANCH   9  12
ATOM     11  C   UNL     1       1.802   3.752  20.385  0.00  0.00    +0.000 C 
ATOM     12  O   UNL     1       2.838   4.405  19.649  0.00  0.00    +0.000 OA
ENDBRANCH   9  12
ENDBRANCH   8   9
ENDBRANCH   2   8
ENDBRANCH   1   5
BRANCH   1  13
ATOM     13  S   UNL     1       0.211  11.979  20.567  0.00  0.00    +0.000 S 
ATOM     14  O   UNL     1      -1.030  12.541  21.060  0.00  0.00    +0.000 OA
ATOM     15  O   UNL     1       1.155  11.389  21.497  0.00  0.00    +0.000 OA
BRANCH  13  16
ATOM     16  C   UNL     1       1.093  13.312  19.734  0.00  0.00    +0.000 A 
ATOM     17  C   UNL     1       2.335  13.061  19.137  0.00  0.00    +0.000 A 
ATOM     18  C   UNL     1       2.971  14.071  18.401  0.00  0.00    +0.000 A 
ATOM     19  C   UNL     1       2.355  15.311  18.243  0.00  0.00    +0.000 A 
ATOM     20 BR   UNL     1       3.212  16.666  17.240  0.00  0.00    +0.000 Br
ATOM     21  C   UNL     1       1.101  15.553  18.801  0.00  0.00    +0.000 A 
ATOM     22  C   UNL     1       0.463  14.549  19.543  0.00  0.00    +0.000 A 
ENDBRANCH  13  16
ENDBRANCH   1  13
BRANCH   1  23
ATOM     23  C   UNL     1      -1.545  10.321  19.373  0.00  0.00    +0.000 C 
BRANCH  23  24
ATOM     24  C   UNL     1      -2.363  10.378  18.102  0.00  0.00    +0.000 A 
ATOM     25  C   UNL     1      -1.940   9.819  16.888  0.00  0.00    +0.000 A 
ATOM     26  C   UNL     1      -2.614  10.123  15.696  0.00  0.00    +0.000 A 
ATOM     27  C   UNL     1      -3.713  10.985  15.700  0.00  0.00    +0.000 A 
ATOM     28  C   UNL     1      -4.162  11.519  16.903  0.00  0.00    +0.000 A 
ATOM     29  C   UNL     1      -3.491  11.214  18.082  0.00  0.00    +0.000 A 
ATOM     30  F   UNL     1      -3.912  11.782  19.222  0.00  0.00    +0.000 F 
ENDBRANCH  23  24
ENDBRANCH   1  23
TORSDOF 8
ENDMDL
MODEL 5
REMARK VINA RESULT:      -7.3      1.077      1.676
REMARK  Name = 
REMARK  9 active torsions:
REMARK  status: ('A' for Active; 'I' for Inactive)
REMARK    1  A    between atoms: C_1  and  O_2
REMARK    2  A    between atoms: O_2  and  C_3
REMARK    3  A    between atoms: C_3  and  C_5
REMARK    4  A    between atoms: C_5  and  C_6
REMARK    5  A    between atoms: C_9  and  N_10
REMARK    6  A    between atoms: N_10  and  C_11
REMARK    7  A    between atoms: N_10  and  S_19
REMARK    8  A    between atoms: C_11  and  C_12
REMARK    9  A    between atoms: S_19  and  C_22
REMARK                            x       y       z     vdW  Elec       q    Type
REMARK                         _______ _______ _______ _____ _____    ______ ____
ROOT
ATOM      1  N   UNL     1       0.074  10.804  19.148  0.00  0.00    +0.000 N 
ENDROOT
BRANCH   1   5
ATOM      2  C   UNL     1       2.471   7.304  19.112  0.00  0.00    +0.000 A 
ATOM      3  C   UNL     1       2.487   8.175  18.013  0.00  0.00    +0.000 A 
ATOM      4  C   UNL     1       1.785   9.383  18.048  0.00  0.00    +0.000 A 
ATOM      5  C   UNL     1       1.056   9.743  19.182  0.00  0.00    +0.000 A 
ATOM      6  C   UNL     1       1.103   8.915  20.309  0.00  0.00    +0.000 A 
ATOM      7  C   UNL     1       1.819   7.709  20.282  0.00  0.00    +0.000 A 
BRANCH   2   8
ATOM      8  C   UNL     1       3.080   5.924  18.998  0.00  0.00    +0.000 C 
BRANCH   8   9
ATOM      9  C   UNL     1       4.150   5.764  17.945  0.00  0.00    +0.000 C 
ATOM     10  O   UNL     1       5.020   6.576  17.668  0.00  0.00    +0.000 OA
BRANCH   9  12
ATOM     11  C   UNL     1       2.684   4.000  17.443  0.00  0.00    +0.000 C 
ATOM     12  O   UNL     1       3.999   4.547  17.342  0.00  0.00    +0.000 OA
ENDBRANCH   9  12
ENDBRANCH   8   9
ENDBRANCH   2   8
ENDBRANCH   1   5
BRANCH   1  13
ATOM     13  S   UNL     1       0.517  12.189  20.112  0.00  0.00    +0.000 S 
ATOM     14  O   UNL     1       1.754  11.915  20.816  0.00  0.00    +0.000 OA
ATOM     15  O   UNL     1       0.413  13.365  19.270  0.00  0.00    +0.000 OA
BRANCH  13  16
ATOM     16  C   UNL     1      -0.770  12.349  21.362  0.00  0.00    +0.000 A 
ATOM     17  C   UNL     1      -1.791  13.293  21.196  0.00  0.00    +0.000 A 
ATOM     18  C   UNL     1      -2.848  13.346  22.116  0.00  0.00    +0.000 A 
ATOM     19  C   UNL     1      -2.894  12.443  23.177  0.00  0.00    +0.000 A 
ATOM     20 BR   UNL     1      -4.327  12.513  24.409  0.00  0.00    +0.000 Br
ATOM     21  C   UNL     1      -1.901  11.477  23.325  0.00  0.00    +0.000 A 
ATOM     22  C   UNL     1      -0.839  11.423  22.412  0.00  0.00    +0.000 A 
ENDBRANCH  13  16
ENDBRANCH   1  13
BRANCH   1  23
ATOM     23  C   UNL     1      -1.368  10.454  19.279  0.00  0.00    +0.000 C 
BRANCH  23  24
ATOM     24  C   UNL     1      -2.303  10.792  18.140  0.00  0.00    +0.000 A 
ATOM     25  C   UNL     1      -3.420  11.627  18.283  0.00  0.00    +0.000 A 
ATOM     26  C   UNL     1      -4.387  11.696  17.268  0.00  0.00    +0.000 A 
ATOM     27  C   UNL     1      -4.252  10.937  16.104  0.00  0.00    +0.000 A 
ATOM     28  C   UNL     1      -3.131  10.130  15.937  0.00  0.00    +0.000 A 
ATOM     29  C   UNL     1      -2.175  10.066  16.946  0.00  0.00    +0.000 A 
ATOM     30  F   UNL     1      -1.130   9.241  16.782  0.00  0.00    +0.000 F 
ENDBRANCH  23  24
ENDBRANCH   1  23
TORSDOF 8
ENDMDL
MODEL 6
REMARK VINA RESULT:      -7.2      5.411      9.688
REMARK  Name = 
REMARK  9 active torsions:
REMARK  status: ('A' for Active; 'I' for Inactive)
REMARK    1  A    between atoms: C_1  and  O_2
REMARK    2  A    between atoms: O_2  and  C_3
REMARK    3  A    between atoms: C_3  and  C_5
REMARK    4  A    between atoms: C_5  and  C_6
REMARK    5  A    between atoms: C_9  and  N_10
REMARK    6  A    between atoms: N_10  and  C_11
REMARK    7  A    between atoms: N_10  and  S_19
REMARK    8  A    between atoms: C_11  and  C_12
REMARK    9  A    between atoms: S_19  and  C_22
REMARK                            x       y       z     vdW  Elec       q    Type
REMARK                         _______ _______ _______ _____ _____    ______ ____
ROOT
ATOM      1  N   UNL     1       4.921   5.036  18.981  0.00  0.00    +0.000 N 
ENDROOT
BRANCH   1   5
ATOM      2  C   UNL     1       2.184   8.249  18.550  0.00  0.00    +0.000 A 
ATOM      3  C   UNL     1       2.995   7.871  17.472  0.00  0.00    +0.000 A 
ATOM      4  C   UNL     1       3.828   6.752  17.560  0.00  0.00    +0.000 A 
ATOM      5  C   UNL     1       3.864   5.990  18.728  0.00  0.00    +0.000 A 
ATOM      6  C   UNL     1       2.996   6.316  19.777  0.00  0.00    +0.000 A 
ATOM      7  C   UNL     1       2.149   7.430  19.685  0.00  0.00    +0.000 A 
BRANCH   2   8
ATOM      8  C   UNL     1       1.428   9.558  18.513  0.00  0.00    +0.000 C 
BRANCH   8   9
ATOM      9  C   UNL     1       0.623   9.886  19.747  0.00  0.00    +0.000 C 
ATOM     10  O   UNL     1       1.068  10.121  20.861  0.00  0.00    +0.000 OA
BRANCH   9  12
ATOM     11  C   UNL     1      -0.972  10.168  18.048  0.00  0.00    +0.000 C 
ATOM     12  O   UNL     1      -0.704   9.888  19.423  0.00  0.00    +0.000 OA
ENDBRANCH   9  12
ENDBRANCH   8   9
ENDBRANCH   2   8
ENDBRANCH   1   5
BRANCH   1  13
ATOM     13  S   UNL     1       6.443   5.479  18.255  0.00  0.00    +0.000 S 
ATOM     14  O   UNL     1       6.519   6.921  18.127  0.00  0.00    +0.000 OA
ATOM     15  O   UNL     1       7.492   4.763  18.955  0.00  0.00    +0.000 OA
BRANCH  13  16
ATOM     16  C   UNL     1       6.404   4.808  16.583  0.00  0.00    +0.000 A 
ATOM     17  C   UNL     1       5.347   3.979  16.188  0.00  0.00    +0.000 A 
ATOM     18  C   UNL     1       5.264   3.542  14.859  0.00  0.00    +0.000 A 
ATOM     19  C   UNL     1       6.216   3.954  13.928  0.00  0.00    +0.000 A 
ATOM     20 BR   UNL     1       6.093   3.370  12.134  0.00  0.00    +0.000 Br
ATOM     21  C   UNL     1       7.248   4.811  14.307  0.00  0.00    +0.000 A 
ATOM     22  C   UNL     1       7.340   5.246  15.636  0.00  0.00    +0.000 A 
ENDBRANCH  13  16
ENDBRANCH   1  13
BRANCH   1  23
ATOM     23  C   UNL     1       4.624   3.582  18.845  0.00  0.00    +0.000 C 
BRANCH  23  24
ATOM     24  C   UNL     1       3.201   3.110  19.037  0.00  0.00    +0.000 A 
ATOM     25  C   UNL     1       2.218   3.204  18.042  0.00  0.00    +0.000 A 
ATOM     26  C   UNL     1       0.867   2.993  18.357  0.00  0.00    +0.000 A 
ATOM     27  C   UNL     1       0.482   2.687  19.664  0.00  0.00    +0.000 A 
ATOM     28  C   UNL     1       1.452   2.558  20.654  0.00  0.00    +0.000 A 
ATOM     29  C   UNL     1       2.789   2.768  20.335  0.00  0.00    +0.000 A 
ATOM     30  F   UNL     1       3.699   2.689  21.317  0.00  0.00    +0.000 F 
ENDBRANCH  23  24
ENDBRANCH   1  23
TORSDOF 8
ENDMDL
MODEL 7
REMARK VINA RESULT:      -7.2      2.969      3.666
REMARK  Name = 
REMARK  9 active torsions:
REMARK  status: ('A' for Active; 'I' for Inactive)
REMARK    1  A    between atoms: C_1  and  O_2
REMARK    2  A    between atoms: O_2  and  C_3
REMARK    3  A    between atoms: C_3  and  C_5
REMARK    4  A    between atoms: C_5  and  C_6
REMARK    5  A    between atoms: C_9  and  N_10
REMARK    6  A    between atoms: N_10  and  C_11
REMARK    7  A    between atoms: N_10  and  S_19
REMARK    8  A    between atoms: C_11  and  C_12
REMARK    9  A    between atoms: S_19  and  C_22
REMARK                            x       y       z     vdW  Elec       q    Type
REMARK                         _______ _______ _______ _____ _____    ______ ____
ROOT
ATOM      1  N   UNL     1      -0.157  10.712  19.277  0.00  0.00    +0.000 N 
ENDROOT
BRANCH   1   5
ATOM      2  C   UNL     1       2.517   7.430  19.006  0.00  0.00    +0.000 A 
ATOM      3  C   UNL     1       2.412   8.337  17.942  0.00  0.00    +0.000 A 
ATOM      4  C   UNL     1       1.614   9.480  18.053  0.00  0.00    +0.000 A 
ATOM      5  C   UNL     1       0.910   9.737  19.229  0.00  0.00    +0.000 A 
ATOM      6  C   UNL     1       1.076   8.877  20.321  0.00  0.00    +0.000 A 
ATOM      7  C   UNL     1       1.887   7.738  20.217  0.00  0.00    +0.000 A 
BRANCH   2   8
ATOM      8  C   UNL     1       3.232   6.111  18.814  0.00  0.00    +0.000 C 
BRANCH   8   9
ATOM      9  C   UNL     1       2.350   4.930  18.490  0.00  0.00    +0.000 C 
ATOM     10  O   UNL     1       1.371   4.561  19.122  0.00  0.00    +0.000 OA
BRANCH   9  12
ATOM     11  C   UNL     1       4.203   4.556  17.097  0.00  0.00    +0.000 C 
ATOM     12  O   UNL     1       2.817   4.327  17.356  0.00  0.00    +0.000 OA
ENDBRANCH   9  12
ENDBRANCH   8   9
ENDBRANCH   2   8
ENDBRANCH   1   5
BRANCH   1  13
ATOM     13  S   UNL     1       0.129  11.996  20.424  0.00  0.00    +0.000 S 
ATOM     14  O   UNL     1      -0.984  12.925  20.400  0.00  0.00    +0.000 OA
ATOM     15  O   UNL     1       0.532  11.387  21.677  0.00  0.00    +0.000 OA
BRANCH  13  16
ATOM     16  C   UNL     1       1.569  12.889  19.812  0.00  0.00    +0.000 A 
ATOM     17  C   UNL     1       1.701  13.146  18.442  0.00  0.00    +0.000 A 
ATOM     18  C   UNL     1       2.767  13.929  17.979  0.00  0.00    +0.000 A 
ATOM     19  C   UNL     1       3.677  14.473  18.885  0.00  0.00    +0.000 A 
ATOM     20 BR   UNL     1       5.108  15.538  18.257  0.00  0.00    +0.000 Br
ATOM     21  C   UNL     1       3.528  14.253  20.253  0.00  0.00    +0.000 A 
ATOM     22  C   UNL     1       2.467  13.465  20.721  0.00  0.00    +0.000 A 
ENDBRANCH  13  16
ENDBRANCH   1  13
BRANCH   1  23
ATOM     23  C   UNL     1      -1.568  10.234  19.294  0.00  0.00    +0.000 C 
BRANCH  23  24
ATOM     24  C   UNL     1      -2.380  10.323  18.021  0.00  0.00    +0.000 A 
ATOM     25  C   UNL     1      -1.969   9.758  16.805  0.00  0.00    +0.000 A 
ATOM     26  C   UNL     1      -2.628  10.090  15.612  0.00  0.00    +0.000 A 
ATOM     27  C   UNL     1      -3.700  10.985  15.616  0.00  0.00    +0.000 A 
ATOM     28  C   UNL     1      -4.138  11.525  16.821  0.00  0.00    +0.000 A 
ATOM     29  C   UNL     1      -3.481  11.193  18.001  0.00  0.00    +0.000 A 
ATOM     30  F   UNL     1      -3.890  11.767  19.142  0.00  0.00    +0.000 F 
ENDBRANCH  23  24
ENDBRANCH   1  23
TORSDOF 8
ENDMDL
MODEL 8
REMARK VINA RESULT:      -7.1      5.311      9.670
REMARK  Name = 
REMARK  9 active torsions:
REMARK  status: ('A' for Active; 'I' for Inactive)
REMARK    1  A    between atoms: C_1  and  O_2
REMARK    2  A    between atoms: O_2  and  C_3
REMARK    3  A    between atoms: C_3  and  C_5
REMARK    4  A    between atoms: C_5  and  C_6
REMARK    5  A    between atoms: C_9  and  N_10
REMARK    6  A    between atoms: N_10  and  C_11
REMARK    7  A    between atoms: N_10  and  S_19
REMARK    8  A    between atoms: C_11  and  C_12
REMARK    9  A    between atoms: S_19  and  C_22
REMARK                            x       y       z     vdW  Elec       q    Type
REMARK                         _______ _______ _______ _____ _____    ______ ____
ROOT
ATOM      1  N   UNL     1       4.929   5.255  18.973  0.00  0.00    +0.000 N 
ENDROOT
BRANCH   1   5
ATOM      2  C   UNL     1       2.354   8.521  18.137  0.00  0.00    +0.000 A 
ATOM      3  C   UNL     1       3.267   8.083  17.167  0.00  0.00    +0.000 A 
ATOM      4  C   UNL     1       4.051   6.947  17.384  0.00  0.00    +0.000 A 
ATOM      5  C   UNL     1       3.935   6.227  18.573  0.00  0.00    +0.000 A 
ATOM      6  C   UNL     1       2.968   6.613  19.509  0.00  0.00    +0.000 A 
ATOM      7  C   UNL     1       2.170   7.745  19.287  0.00  0.00    +0.000 A 
BRANCH   2   8
ATOM      8  C   UNL     1       1.646   9.847  17.973  0.00  0.00    +0.000 C 
BRANCH   8   9
ATOM      9  C   UNL     1       0.259   9.928  18.563  0.00  0.00    +0.000 C 
ATOM     10  O   UNL     1      -0.019  10.168  19.729  0.00  0.00    +0.000 OA
BRANCH   9  12
ATOM     11  C   UNL     1      -1.967  10.183  17.862  0.00  0.00    +0.000 C 
ATOM     12  O   UNL     1      -0.656   9.693  17.576  0.00  0.00    +0.000 OA
ENDBRANCH   9  12
ENDBRANCH   8   9
ENDBRANCH   2   8
ENDBRANCH   1   5
BRANCH   1  13
ATOM     13  S   UNL     1       6.480   5.497  18.212  0.00  0.00    +0.000 S 
ATOM     14  O   UNL     1       6.780   6.913  18.160  0.00  0.00    +0.000 OA
ATOM     15  O   UNL     1       7.422   4.583  18.831  0.00  0.00    +0.000 OA
BRANCH  13  16
ATOM     16  C   UNL     1       6.284   4.941  16.510  0.00  0.00    +0.000 A 
ATOM     17  C   UNL     1       7.056   5.518  15.494  0.00  0.00    +0.000 A 
ATOM     18  C   UNL     1       6.978   5.015  14.188  0.00  0.00    +0.000 A 
ATOM     19  C   UNL     1       6.154   3.926  13.909  0.00  0.00    +0.000 A 
ATOM     20 BR   UNL     1       6.060   3.244  12.148  0.00  0.00    +0.000 Br
ATOM     21  C   UNL     1       5.414   3.323  14.924  0.00  0.00    +0.000 A 
ATOM     22  C   UNL     1       5.483   3.825  16.230  0.00  0.00    +0.000 A 
ENDBRANCH  13  16
ENDBRANCH   1  13
BRANCH   1  23
ATOM     23  C   UNL     1       4.543   3.817  19.039  0.00  0.00    +0.000 C 
BRANCH  23  24
ATOM     24  C   UNL     1       3.125   3.464  19.428  0.00  0.00    +0.000 A 
ATOM     25  C   UNL     1       2.734   3.186  20.746  0.00  0.00    +0.000 A 
ATOM     26  C   UNL     1       1.478   2.618  21.008  0.00  0.00    +0.000 A 
ATOM     27  C   UNL     1       0.600   2.321  19.963  0.00  0.00    +0.000 A 
ATOM     28  C   UNL     1       0.963   2.624  18.654  0.00  0.00    +0.000 A 
ATOM     29  C   UNL     1       2.210   3.187  18.401  0.00  0.00    +0.000 A 
ATOM     30  F   UNL     1       2.556   3.421  17.126  0.00  0.00    +0.000 F 
ENDBRANCH  23  24
ENDBRANCH   1  23
TORSDOF 8
ENDMDL
MODEL 9
REMARK VINA RESULT:      -7.1      6.148      9.294
REMARK  Name = 
REMARK  9 active torsions:
REMARK  status: ('A' for Active; 'I' for Inactive)
REMARK    1  A    between atoms: C_1  and  O_2
REMARK    2  A    between atoms: O_2  and  C_3
REMARK    3  A    between atoms: C_3  and  C_5
REMARK    4  A    between atoms: C_5  and  C_6
REMARK    5  A    between atoms: C_9  and  N_10
REMARK    6  A    between atoms: N_10  and  C_11
REMARK    7  A    between atoms: N_10  and  S_19
REMARK    8  A    between atoms: C_11  and  C_12
REMARK    9  A    between atoms: S_19  and  C_22
REMARK                            x       y       z     vdW  Elec       q    Type
REMARK                         _______ _______ _______ _____ _____    ______ ____
ROOT
ATOM      1  N   UNL     1       5.025   4.670  16.713  0.00  0.00    +0.000 N 
ENDROOT
BRANCH   1   5
ATOM      2  C   UNL     1       7.791   7.477  18.284  0.00  0.00    +0.000 A 
ATOM      3  C   UNL     1       6.794   7.900  17.394  0.00  0.00    +0.000 A 
ATOM      4  C   UNL     1       5.812   7.011  16.946  0.00  0.00    +0.000 A 
ATOM      5  C   UNL     1       5.808   5.686  17.381  0.00  0.00    +0.000 A 
ATOM      6  C   UNL     1       6.753   5.282  18.331  0.00  0.00    +0.000 A 
ATOM      7  C   UNL     1       7.730   6.175  18.794  0.00  0.00    +0.000 A 
BRANCH   2   8
ATOM      8  C   UNL     1       8.950   8.390  18.619  0.00  0.00    +0.000 C 
BRANCH   8   9
ATOM      9  C   UNL     1       8.656   9.869  18.559  0.00  0.00    +0.000 C 
ATOM     10  O   UNL     1       8.156  10.472  17.620  0.00  0.00    +0.000 OA
BRANCH   9  12
ATOM     11  C   UNL     1      10.209  11.253  19.648  0.00  0.00    +0.000 C 
ATOM     12  O   UNL     1       9.036  10.444  19.739  0.00  0.00    +0.000 OA
ENDBRANCH   9  12
ENDBRANCH   8   9
ENDBRANCH   2   8
ENDBRANCH   1   5
BRANCH   1  13
ATOM     13  S   UNL     1       3.794   3.965  17.728  0.00  0.00    +0.000 S 
ATOM     14  O   UNL     1       2.718   3.453  16.903  0.00  0.00    +0.000 OA
ATOM     15  O   UNL     1       4.452   3.089  18.679  0.00  0.00    +0.000 OA
BRANCH  13  16
ATOM     16  C   UNL     1       3.111   5.328  18.689  0.00  0.00    +0.000 A 
ATOM     17  C   UNL     1       2.817   6.545  18.063  0.00  0.00    +0.000 A 
ATOM     18  C   UNL     1       2.191   7.569  18.788  0.00  0.00    +0.000 A 
ATOM     19  C   UNL     1       1.838   7.363  20.121  0.00  0.00    +0.000 A 
ATOM     20 BR   UNL     1       0.984   8.743  21.092  0.00  0.00    +0.000 Br
ATOM     21  C   UNL     1       2.093   6.140  20.738  0.00  0.00    +0.000 A 
ATOM     22  C   UNL     1       2.724   5.115  20.019  0.00  0.00    +0.000 A 
ENDBRANCH  13  16
ENDBRANCH   1  13
BRANCH   1  23
ATOM     23  C   UNL     1       5.727   3.655  15.878  0.00  0.00    +0.000 C 
BRANCH  23  24
ATOM     24  C   UNL     1       6.039   3.991  14.437  0.00  0.00    +0.000 A 
ATOM     25  C   UNL     1       5.393   3.389  13.348  0.00  0.00    +0.000 A 
ATOM     26  C   UNL     1       5.897   3.548  12.049  0.00  0.00    +0.000 A 
ATOM     27  C   UNL     1       7.047   4.307  11.820  0.00  0.00    +0.000 A 
ATOM     28  C   UNL     1       7.678   4.937  12.888  0.00  0.00    +0.000 A 
ATOM     29  C   UNL     1       7.173   4.776  14.175  0.00  0.00    +0.000 A 
ATOM     30  F   UNL     1       7.829   5.351  15.194  0.00  0.00    +0.000 F 
ENDBRANCH  23  24
ENDBRANCH   1  23
TORSDOF 8
ENDMDL
