MODEL 1
REMARK VINA RESULT:      -8.6      0.000      0.000
REMARK  Name = 
REMARK  7 active torsions:
REMARK  status: ('A' for Active; 'I' for Inactive)
REMARK    1  A    between atoms: N_3  and  C_4
REMARK    2  A    between atoms: N_12  and  S_13
REMARK    3  A    between atoms: S_13  and  C_16
REMARK    4  A    between atoms: C_19  and  C_20
REMARK    5  A    between atoms: C_20  and  C_21
REMARK    6  A    between atoms: C_21  and  N_22
REMARK    7  A    between atoms: C_23  and  C_25
REMARK                            x       y       z     vdW  Elec       q    Type
REMARK                         _______ _______ _______ _____ _____    ______ ____
ROOT
ATOM      1  C   UNL     1       7.382   6.924  17.508  0.00  0.00    +0.000 A 
ATOM      2  C   UNL     1       8.162   6.753  18.653  0.00  0.00    +0.000 A 
ATOM      3  C   UNL     1       8.766   7.858  19.255  0.00  0.00    +0.000 A 
ATOM      4  C   UNL     1       8.641   9.146  18.711  0.00  0.00    +0.000 A 
ATOM      5  C   UNL     1       7.824   9.308  17.576  0.00  0.00    +0.000 A 
ATOM      6  C   UNL     1       7.204   8.200  16.970  0.00  0.00    +0.000 A 
ENDROOT
BRANCH   1   7
ATOM      7  S   UNL     1       6.762   5.480  16.650  0.00  0.00    +0.000 S 
ATOM      8  O   UNL     1       7.636   4.381  17.020  0.00  0.00    +0.000 OA
ATOM      9  O   UNL     1       6.651   5.864  15.258  0.00  0.00    +0.000 OA
BRANCH   7  15
ATOM     10  N   UNL     1       5.888   3.573  18.914  0.00  0.00    +0.000 NA
ATOM     11  C   UNL     1       4.982   4.300  18.409  0.00  0.00    +0.000 C 
ATOM     12  N   UNL     1       3.643   4.427  18.746  0.00  0.00    +0.000 N 
ATOM     13  C   UNL     1       3.098   5.616  18.025  0.00  0.00    +0.000 C 
ATOM     14  C   UNL     1       4.100   5.913  16.894  0.00  0.00    +0.000 C 
ATOM     15  N   UNL     1       5.277   5.176  17.354  0.00  0.00    +0.000 N 
ATOM     16  H   UNL     1       5.524   3.101  19.735  0.00  0.00    +0.000 HD
BRANCH  12  17
ATOM     17  C   UNL     1       2.713   3.263  18.795  0.00  0.00    +0.000 C 
ATOM     18  C   UNL     1       3.054   2.184  19.828  0.00  0.00    +0.000 C 
ATOM     19  C   UNL     1       2.735   2.569  21.271  0.00  0.00    +0.000 C 
ATOM     20  C   UNL     1       1.298   3.034  21.460  0.00  0.00    +0.000 C 
ATOM     21  C   UNL     1       0.847   4.053  20.422  0.00  0.00    +0.000 C 
ATOM     22  C   UNL     1       1.238   3.690  18.989  0.00  0.00    +0.000 C 
ENDBRANCH  12  17
ENDBRANCH   7  15
ENDBRANCH   1   7
BRANCH   4  23
ATOM     23  C   UNL     1       9.338  10.341  19.340  0.00  0.00    +0.000 C 
BRANCH  23  24
ATOM     24  C   UNL     1       9.935  11.326  18.317  0.00  0.00    +0.000 C 
BRANCH  24  25
ATOM     25  N   UNL     1      10.454  12.543  18.909  0.00  0.00    +0.000 N 
ATOM     26  C   UNL     1      11.334  13.329  18.192  0.00  0.00    +0.000 C 
ATOM     27  O   UNL     1      11.805  12.950  17.123  0.00  0.00    +0.000 OA
ATOM     28  H   UNL     1      10.060  12.873  19.780  0.00  0.00    +0.000 HD
BRANCH  26  29
ATOM     29  C   UNL     1      11.709  14.660  18.848  0.00  0.00    +0.000 C 
ATOM     30  C   UNL     1      12.333  15.607  17.804  0.00  0.00    +0.000 C 
ATOM     31  C   UNL     1      11.310  16.306  16.949  0.00  0.00    +0.000 C 
ATOM     32  C   UNL     1      10.009  16.365  17.268  0.00  0.00    +0.000 C 
ATOM     33  C   UNL     1       9.443  15.788  18.531  0.00  0.00    +0.000 C 
ATOM     34  C   UNL     1      10.518  15.349  19.531  0.00  0.00    +0.000 C 
ENDBRANCH  26  29
ENDBRANCH  24  25
ENDBRANCH  23  24
ENDBRANCH   4  23
TORSDOF 7
ENDMDL
MODEL 2
REMARK VINA RESULT:      -8.5      0.594      1.347
REMARK  Name = 
REMARK  7 active torsions:
REMARK  status: ('A' for Active; 'I' for Inactive)
REMARK    1  A    between atoms: N_3  and  C_4
REMARK    2  A    between atoms: N_12  and  S_13
REMARK    3  A    between atoms: S_13  and  C_16
REMARK    4  A    between atoms: C_19  and  C_20
REMARK    5  A    between atoms: C_20  and  C_21
REMARK    6  A    between atoms: C_21  and  N_22
REMARK    7  A    between atoms: C_23  and  C_25
REMARK                            x       y       z     vdW  Elec       q    Type
REMARK                         _______ _______ _______ _____ _____    ______ ____
ROOT
ATOM      1  C   UNL     1       7.430   6.813  17.517  0.00  0.00    +0.000 A 
ATOM      2  C   UNL     1       8.177   6.663  18.687  0.00  0.00    +0.000 A 
ATOM      3  C   UNL     1       8.741   7.784  19.301  0.00  0.00    +0.000 A 
ATOM      4  C   UNL     1       8.607   9.066  18.745  0.00  0.00    +0.000 A 
ATOM      5  C   UNL     1       7.823   9.205  17.585  0.00  0.00    +0.000 A 
ATOM      6  C   UNL     1       7.243   8.083  16.967  0.00  0.00    +0.000 A 
ENDROOT
BRANCH   1   7
ATOM      7  S   UNL     1       6.865   5.353  16.649  0.00  0.00    +0.000 S 
ATOM      8  O   UNL     1       7.747   4.272  17.054  0.00  0.00    +0.000 OA
ATOM      9  O   UNL     1       6.792   5.727  15.252  0.00  0.00    +0.000 OA
BRANCH   7  15
ATOM     10  N   UNL     1       5.988   3.692  19.099  0.00  0.00    +0.000 NA
ATOM     11  C   UNL     1       5.066   4.272  18.453  0.00  0.00    +0.000 C 
ATOM     12  N   UNL     1       3.703   4.334  18.698  0.00  0.00    +0.000 N 
ATOM     13  C   UNL     1       3.120   5.372  17.795  0.00  0.00    +0.000 C 
ATOM     14  C   UNL     1       4.168   5.599  16.690  0.00  0.00    +0.000 C 
ATOM     15  N   UNL     1       5.364   5.024  17.307  0.00  0.00    +0.000 N 
ATOM     16  H   UNL     1       5.608   3.303  19.955  0.00  0.00    +0.000 HD
BRANCH  12  17
ATOM     17  C   UNL     1       2.858   3.116  18.852  0.00  0.00    +0.000 C 
ATOM     18  C   UNL     1       3.221   2.203  20.028  0.00  0.00    +0.000 C 
ATOM     19  C   UNL     1       2.797   2.736  21.395  0.00  0.00    +0.000 C 
ATOM     20  C   UNL     1       1.323   3.107  21.460  0.00  0.00    +0.000 C 
ATOM     21  C   UNL     1       0.855   3.951  20.282  0.00  0.00    +0.000 C 
ATOM     22  C   UNL     1       1.348   3.446  18.926  0.00  0.00    +0.000 C 
ENDBRANCH  12  17
ENDBRANCH   7  15
ENDBRANCH   1   7
BRANCH   4  23
ATOM     23  C   UNL     1       9.261  10.278  19.389  0.00  0.00    +0.000 C 
BRANCH  23  24
ATOM     24  C   UNL     1       9.882  11.261  18.380  0.00  0.00    +0.000 C 
BRANCH  24  25
ATOM     25  N   UNL     1       9.650  12.656  18.702  0.00  0.00    +0.000 N 
ATOM     26  C   UNL     1      10.202  13.641  17.907  0.00  0.00    +0.000 C 
ATOM     27  O   UNL     1      11.006  13.370  17.019  0.00  0.00    +0.000 OA
ATOM     28  H   UNL     1       8.977  12.889  19.419  0.00  0.00    +0.000 HD
BRANCH  26  29
ATOM     29  C   UNL     1       9.780  15.072  18.247  0.00  0.00    +0.000 C 
ATOM     30  C   UNL     1       9.450  15.184  19.749  0.00  0.00    +0.000 C 
ATOM     31  C   UNL     1      10.670  15.326  20.617  0.00  0.00    +0.000 C 
ATOM     32  C   UNL     1      11.877  15.656  20.134  0.00  0.00    +0.000 C 
ATOM     33  C   UNL     1      12.128  15.968  18.689  0.00  0.00    +0.000 C 
ATOM     34  C   UNL     1      10.842  16.116  17.869  0.00  0.00    +0.000 C 
ENDBRANCH  26  29
ENDBRANCH  24  25
ENDBRANCH  23  24
ENDBRANCH   4  23
TORSDOF 7
ENDMDL
MODEL 3
REMARK VINA RESULT:      -8.4      1.365      1.894
REMARK  Name = 
REMARK  7 active torsions:
REMARK  status: ('A' for Active; 'I' for Inactive)
REMARK    1  A    between atoms: N_3  and  C_4
REMARK    2  A    between atoms: N_12  and  S_13
REMARK    3  A    between atoms: S_13  and  C_16
REMARK    4  A    between atoms: C_19  and  C_20
REMARK    5  A    between atoms: C_20  and  C_21
REMARK    6  A    between atoms: C_21  and  N_22
REMARK    7  A    between atoms: C_23  and  C_25
REMARK                            x       y       z     vdW  Elec       q    Type
REMARK                         _______ _______ _______ _____ _____    ______ ____
ROOT
ATOM      1  C   UNL     1       7.557   6.915  17.621  0.00  0.00    +0.000 A 
ATOM      2  C   UNL     1       8.278   6.846  18.814  0.00  0.00    +0.000 A 
ATOM      3  C   UNL     1       8.816   8.008  19.371  0.00  0.00    +0.000 A 
ATOM      4  C   UNL     1       8.682   9.253  18.736  0.00  0.00    +0.000 A 
ATOM      5  C   UNL     1       7.923   9.312  17.552  0.00  0.00    +0.000 A 
ATOM      6  C   UNL     1       7.370   8.148  16.990  0.00  0.00    +0.000 A 
ENDROOT
BRANCH   1   7
ATOM      7  S   UNL     1       7.027   5.399  16.831  0.00  0.00    +0.000 S 
ATOM      8  O   UNL     1       7.855   4.342  17.385  0.00  0.00    +0.000 OA
ATOM      9  O   UNL     1       7.065   5.661  15.408  0.00  0.00    +0.000 OA
BRANCH   7  15
ATOM     10  N   UNL     1       5.908   3.638  19.106  0.00  0.00    +0.000 NA
ATOM     11  C   UNL     1       5.066   4.338  18.469  0.00  0.00    +0.000 C 
ATOM     12  N   UNL     1       3.701   4.493  18.661  0.00  0.00    +0.000 N 
ATOM     13  C   UNL     1       3.245   5.638  17.819  0.00  0.00    +0.000 C 
ATOM     14  C   UNL     1       4.359   5.860  16.779  0.00  0.00    +0.000 C 
ATOM     15  N   UNL     1       5.475   5.146  17.398  0.00  0.00    +0.000 N 
ATOM     16  H   UNL     1       5.458   3.219  19.912  0.00  0.00    +0.000 HD
BRANCH  12  17
ATOM     17  C   UNL     1       2.758   3.340  18.685  0.00  0.00    +0.000 C 
ATOM     18  C   UNL     1       3.083   2.238  19.700  0.00  0.00    +0.000 C 
ATOM     19  C   UNL     1       2.762   2.601  21.149  0.00  0.00    +0.000 C 
ATOM     20  C   UNL     1       1.330   3.079  21.341  0.00  0.00    +0.000 C 
ATOM     21  C   UNL     1       0.894   4.121  20.320  0.00  0.00    +0.000 C 
ATOM     22  C   UNL     1       1.287   3.780  18.882  0.00  0.00    +0.000 C 
ENDBRANCH  12  17
ENDBRANCH   7  15
ENDBRANCH   1   7
BRANCH   4  23
ATOM     23  C   UNL     1       9.308  10.509  19.319  0.00  0.00    +0.000 C 
BRANCH  23  24
ATOM     24  C   UNL     1      10.101  11.343  18.297  0.00  0.00    +0.000 C 
BRANCH  24  25
ATOM     25  N   UNL     1      10.031  12.773  18.526  0.00  0.00    +0.000 N 
ATOM     26  C   UNL     1       8.942  13.486  18.066  0.00  0.00    +0.000 C 
ATOM     27  O   UNL     1       8.099  12.967  17.338  0.00  0.00    +0.000 OA
ATOM     28  H   UNL     1      10.710  13.207  19.137  0.00  0.00    +0.000 HD
BRANCH  26  29
ATOM     29  C   UNL     1       8.897  14.958  18.483  0.00  0.00    +0.000 C 
ATOM     30  C   UNL     1       7.572  15.598  18.024  0.00  0.00    +0.000 C 
ATOM     31  C   UNL     1       6.416  15.293  18.939  0.00  0.00    +0.000 C 
ATOM     32  C   UNL     1       6.575  14.810  20.180  0.00  0.00    +0.000 C 
ATOM     33  C   UNL     1       7.916  14.570  20.806  0.00  0.00    +0.000 C 
ATOM     34  C   UNL     1       9.076  15.158  19.996  0.00  0.00    +0.000 C 
ENDBRANCH  26  29
ENDBRANCH  24  25
ENDBRANCH  23  24
ENDBRANCH   4  23
TORSDOF 7
ENDMDL
MODEL 4
REMARK VINA RESULT:      -8.3      0.698      1.108
REMARK  Name = 
REMARK  7 active torsions:
REMARK  status: ('A' for Active; 'I' for Inactive)
REMARK    1  A    between atoms: N_3  and  C_4
REMARK    2  A    between atoms: N_12  and  S_13
REMARK    3  A    between atoms: S_13  and  C_16
REMARK    4  A    between atoms: C_19  and  C_20
REMARK    5  A    between atoms: C_20  and  C_21
REMARK    6  A    between atoms: C_21  and  N_22
REMARK    7  A    between atoms: C_23  and  C_25
REMARK                            x       y       z     vdW  Elec       q    Type
REMARK                         _______ _______ _______ _____ _____    ______ ____
ROOT
ATOM      1  C   UNL     1       7.544   6.958  17.573  0.00  0.00    +0.000 A 
ATOM      2  C   UNL     1       8.235   6.894  18.785  0.00  0.00    +0.000 A 
ATOM      3  C   UNL     1       8.782   8.053  19.336  0.00  0.00    +0.000 A 
ATOM      4  C   UNL     1       8.689   9.290  18.678  0.00  0.00    +0.000 A 
ATOM      5  C   UNL     1       7.960   9.346  17.475  0.00  0.00    +0.000 A 
ATOM      6  C   UNL     1       7.397   8.183  16.919  0.00  0.00    +0.000 A 
ENDROOT
BRANCH   1   7
ATOM      7  S   UNL     1       7.003   5.439  16.794  0.00  0.00    +0.000 S 
ATOM      8  O   UNL     1       7.831   4.382  17.347  0.00  0.00    +0.000 OA
ATOM      9  O   UNL     1       7.030   5.695  15.370  0.00  0.00    +0.000 OA
BRANCH   7  15
ATOM     10  N   UNL     1       5.889   3.651  19.050  0.00  0.00    +0.000 NA
ATOM     11  C   UNL     1       5.048   4.372  18.436  0.00  0.00    +0.000 C 
ATOM     12  N   UNL     1       3.688   4.539  18.647  0.00  0.00    +0.000 N 
ATOM     13  C   UNL     1       3.236   5.706  17.830  0.00  0.00    +0.000 C 
ATOM     14  C   UNL     1       4.340   5.933  16.782  0.00  0.00    +0.000 C 
ATOM     15  N   UNL     1       5.455   5.195  17.375  0.00  0.00    +0.000 N 
ATOM     16  H   UNL     1       5.443   3.222  19.854  0.00  0.00    +0.000 HD
BRANCH  12  17
ATOM     17  C   UNL     1       2.731   3.397  18.661  0.00  0.00    +0.000 C 
ATOM     18  C   UNL     1       3.067   2.262  19.635  0.00  0.00    +0.000 C 
ATOM     19  C   UNL     1       2.788   2.586  21.101  0.00  0.00    +0.000 C 
ATOM     20  C   UNL     1       1.368   3.075  21.344  0.00  0.00    +0.000 C 
ATOM     21  C   UNL     1       0.919   4.152  20.365  0.00  0.00    +0.000 C 
ATOM     22  C   UNL     1       1.271   3.849  18.909  0.00  0.00    +0.000 C 
ENDBRANCH  12  17
ENDBRANCH   7  15
ENDBRANCH   1   7
BRANCH   4  23
ATOM     23  C   UNL     1       9.326  10.543  19.256  0.00  0.00    +0.000 C 
BRANCH  23  24
ATOM     24  C   UNL     1       9.865  11.517  18.193  0.00  0.00    +0.000 C 
BRANCH  24  25
ATOM     25  N   UNL     1       9.537  12.906  18.450  0.00  0.00    +0.000 N 
ATOM     26  C   UNL     1      10.438  13.706  19.124  0.00  0.00    +0.000 C 
ATOM     27  O   UNL     1      11.448  13.236  19.641  0.00  0.00    +0.000 OA
ATOM     28  H   UNL     1       8.717  13.306  18.014  0.00  0.00    +0.000 HD
BRANCH  26  29
ATOM     29  C   UNL     1      10.059  15.186  19.218  0.00  0.00    +0.000 C 
ATOM     30  C   UNL     1      11.169  15.972  19.943  0.00  0.00    +0.000 C 
ATOM     31  C   UNL     1      12.333  16.316  19.053  0.00  0.00    +0.000 C 
ATOM     32  C   UNL     1      12.274  16.250  17.715  0.00  0.00    +0.000 C 
ATOM     33  C   UNL     1      11.032  15.877  16.962  0.00  0.00    +0.000 C 
ATOM     34  C   UNL     1       9.781  15.822  17.847  0.00  0.00    +0.000 C 
ENDBRANCH  26  29
ENDBRANCH  24  25
ENDBRANCH  23  24
ENDBRANCH   4  23
TORSDOF 7
ENDMDL
MODEL 5
REMARK VINA RESULT:      -8.3      6.950     10.087
REMARK  Name = 
REMARK  7 active torsions:
REMARK  status: ('A' for Active; 'I' for Inactive)
REMARK    1  A    between atoms: N_3  and  C_4
REMARK    2  A    between atoms: N_12  and  S_13
REMARK    3  A    between atoms: S_13  and  C_16
REMARK    4  A    between atoms: C_19  and  C_20
REMARK    5  A    between atoms: C_20  and  C_21
REMARK    6  A    between atoms: C_21  and  N_22
REMARK    7  A    between atoms: C_23  and  C_25
REMARK                            x       y       z     vdW  Elec       q    Type
REMARK                         _______ _______ _______ _____ _____    ______ ____
ROOT
ATOM      1  C   UNL     1       1.019   9.678  19.480  0.00  0.00    +0.000 A 
ATOM      2  C   UNL     1       1.745   9.133  18.419  0.00  0.00    +0.000 A 
ATOM      3  C   UNL     1       2.309   7.862  18.543  0.00  0.00    +0.000 A 
ATOM      4  C   UNL     1       2.198   7.125  19.732  0.00  0.00    +0.000 A 
ATOM      5  C   UNL     1       1.435   7.673  20.781  0.00  0.00    +0.000 A 
ATOM      6  C   UNL     1       0.855   8.949  20.660  0.00  0.00    +0.000 A 
ENDROOT
BRANCH   1   7
ATOM      7  S   UNL     1       0.455  11.374  19.372  0.00  0.00    +0.000 S 
ATOM      8  O   UNL     1       1.246  12.000  18.327  0.00  0.00    +0.000 OA
ATOM      9  O   UNL     1       0.515  11.897  20.721  0.00  0.00    +0.000 OA
BRANCH   7  15
ATOM     10  N   UNL     1      -2.075  13.066  19.884  0.00  0.00    +0.000 NA
ATOM     11  C   UNL     1      -2.196  12.106  19.066  0.00  0.00    +0.000 C 
ATOM     12  N   UNL     1      -3.283  11.711  18.302  0.00  0.00    +0.000 N 
ATOM     13  C   UNL     1      -2.806  10.702  17.310  0.00  0.00    +0.000 C 
ATOM     14  C   UNL     1      -1.449  10.205  17.842  0.00  0.00    +0.000 C 
ATOM     15  N   UNL     1      -1.109  11.263  18.793  0.00  0.00    +0.000 N 
ATOM     16  H   UNL     1      -2.915  13.635  19.864  0.00  0.00    +0.000 HD
BRANCH  12  17
ATOM     17  C   UNL     1      -4.613  11.399  18.899  0.00  0.00    +0.000 C 
ATOM     18  C   UNL     1      -5.115  12.389  19.955  0.00  0.00    +0.000 C 
ATOM     19  C   UNL     1      -5.620  13.715  19.387  0.00  0.00    +0.000 C 
ATOM     20  C   UNL     1      -6.670  13.537  18.301  0.00  0.00    +0.000 C 
ATOM     21  C   UNL     1      -6.287  12.505  17.247  0.00  0.00    +0.000 C 
ATOM     22  C   UNL     1      -5.715  11.212  17.828  0.00  0.00    +0.000 C 
ENDBRANCH  12  17
ENDBRANCH   7  15
ENDBRANCH   1   7
BRANCH   4  23
ATOM     23  C   UNL     1       2.852   5.762  19.881  0.00  0.00    +0.000 C 
BRANCH  23  24
ATOM     24  C   UNL     1       2.885   4.939  18.580  0.00  0.00    +0.000 C 
BRANCH  24  25
ATOM     25  N   UNL     1       4.080   5.144  17.786  0.00  0.00    +0.000 N 
ATOM     26  C   UNL     1       5.205   4.384  18.037  0.00  0.00    +0.000 C 
ATOM     27  O   UNL     1       5.269   3.639  19.012  0.00  0.00    +0.000 OA
ATOM     28  H   UNL     1       4.033   5.742  16.972  0.00  0.00    +0.000 HD
BRANCH  26  29
ATOM     29  C   UNL     1       6.361   4.578  17.053  0.00  0.00    +0.000 C 
ATOM     30  C   UNL     1       6.204   5.919  16.309  0.00  0.00    +0.000 C 
ATOM     31  C   UNL     1       6.675   7.102  17.111  0.00  0.00    +0.000 C 
ATOM     32  C   UNL     1       7.448   6.985  18.201  0.00  0.00    +0.000 C 
ATOM     33  C   UNL     1       7.967   5.673  18.706  0.00  0.00    +0.000 C 
ATOM     34  C   UNL     1       7.740   4.515  17.728  0.00  0.00    +0.000 C 
ENDBRANCH  26  29
ENDBRANCH  24  25
ENDBRANCH  23  24
ENDBRANCH   4  23
TORSDOF 7
ENDMDL
MODEL 6
REMARK VINA RESULT:      -8.3      5.939      9.333
REMARK  Name = 
REMARK  7 active torsions:
REMARK  status: ('A' for Active; 'I' for Inactive)
REMARK    1  A    between atoms: N_3  and  C_4
REMARK    2  A    between atoms: N_12  and  S_13
REMARK    3  A    between atoms: S_13  and  C_16
REMARK    4  A    between atoms: C_19  and  C_20
REMARK    5  A    between atoms: C_20  and  C_21
REMARK    6  A    between atoms: C_21  and  N_22
REMARK    7  A    between atoms: C_23  and  C_25
REMARK                            x       y       z     vdW  Elec       q    Type
REMARK                         _______ _______ _______ _____ _____    ______ ____
ROOT
ATOM      1  C   UNL     1       1.993   6.611  19.825  0.00  0.00    +0.000 A 
ATOM      2  C   UNL     1       2.248   7.073  18.533  0.00  0.00    +0.000 A 
ATOM      3  C   UNL     1       2.012   8.411  18.214  0.00  0.00    +0.000 A 
ATOM      4  C   UNL     1       1.483   9.306  19.157  0.00  0.00    +0.000 A 
ATOM      5  C   UNL     1       1.264   8.834  20.465  0.00  0.00    +0.000 A 
ATOM      6  C   UNL     1       1.509   7.489  20.797  0.00  0.00    +0.000 A 
ENDROOT
BRANCH   1   7
ATOM      7  S   UNL     1       2.132   4.859  20.170  0.00  0.00    +0.000 S 
ATOM      8  O   UNL     1       0.825   4.287  19.902  0.00  0.00    +0.000 OA
ATOM      9  O   UNL     1       2.693   4.762  21.501  0.00  0.00    +0.000 OA
BRANCH   7  15
ATOM     10  N   UNL     1       5.169   5.190  19.722  0.00  0.00    +0.000 NA
ATOM     11  C   UNL     1       4.552   4.462  18.888  0.00  0.00    +0.000 C 
ATOM     12  N   UNL     1       5.032   3.727  17.815  0.00  0.00    +0.000 N 
ATOM     13  C   UNL     1       3.931   2.836  17.340  0.00  0.00    +0.000 C 
ATOM     14  C   UNL     1       2.635   3.424  17.929  0.00  0.00    +0.000 C 
ATOM     15  N   UNL     1       3.166   4.278  18.992  0.00  0.00    +0.000 N 
ATOM     16  H   UNL     1       6.168   5.110  19.567  0.00  0.00    +0.000 HD
BRANCH  12  17
ATOM     17  C   UNL     1       5.838   4.337  16.720  0.00  0.00    +0.000 C 
ATOM     18  C   UNL     1       5.308   5.663  16.165  0.00  0.00    +0.000 C 
ATOM     19  C   UNL     1       5.537   6.866  17.078  0.00  0.00    +0.000 C 
ATOM     20  C   UNL     1       6.989   7.024  17.503  0.00  0.00    +0.000 C 
ATOM     21  C   UNL     1       7.624   5.730  17.994  0.00  0.00    +0.000 C 
ATOM     22  C   UNL     1       7.325   4.520  17.110  0.00  0.00    +0.000 C 
ENDBRANCH  12  17
ENDBRANCH   7  15
ENDBRANCH   1   7
BRANCH   4  23
ATOM     23  C   UNL     1       1.182  10.751  18.795  0.00  0.00    +0.000 C 
BRANCH  23  24
ATOM     24  C   UNL     1       0.078  11.393  19.654  0.00  0.00    +0.000 C 
BRANCH  24  25
ATOM     25  N   UNL     1      -1.246  10.858  19.404  0.00  0.00    +0.000 N 
ATOM     26  C   UNL     1      -2.082  11.494  18.508  0.00  0.00    +0.000 C 
ATOM     27  O   UNL     1      -1.790  12.585  18.025  0.00  0.00    +0.000 OA
ATOM     28  H   UNL     1      -1.490   9.953  19.783  0.00  0.00    +0.000 HD
BRANCH  26  29
ATOM     29  C   UNL     1      -3.397  10.771  18.210  0.00  0.00    +0.000 C 
ATOM     30  C   UNL     1      -4.290  11.645  17.307  0.00  0.00    +0.000 C 
ATOM     31  C   UNL     1      -3.911  11.577  15.852  0.00  0.00    +0.000 C 
ATOM     32  C   UNL     1      -3.118  10.620  15.347  0.00  0.00    +0.000 C 
ATOM     33  C   UNL     1      -2.567   9.491  16.165  0.00  0.00    +0.000 C 
ATOM     34  C   UNL     1      -3.191   9.393  17.562  0.00  0.00    +0.000 C 
ENDBRANCH  26  29
ENDBRANCH  24  25
ENDBRANCH  23  24
ENDBRANCH   4  23
TORSDOF 7
ENDMDL
MODEL 7
REMARK VINA RESULT:      -8.2      1.216      1.591
REMARK  Name = 
REMARK  7 active torsions:
REMARK  status: ('A' for Active; 'I' for Inactive)
REMARK    1  A    between atoms: N_3  and  C_4
REMARK    2  A    between atoms: N_12  and  S_13
REMARK    3  A    between atoms: S_13  and  C_16
REMARK    4  A    between atoms: C_19  and  C_20
REMARK    5  A    between atoms: C_20  and  C_21
REMARK    6  A    between atoms: C_21  and  N_22
REMARK    7  A    between atoms: C_23  and  C_25
REMARK                            x       y       z     vdW  Elec       q    Type
REMARK                         _______ _______ _______ _____ _____    ______ ____
ROOT
ATOM      1  C   UNL     1       7.638   6.525  17.689  0.00  0.00    +0.000 A 
ATOM      2  C   UNL     1       8.368   6.742  18.859  0.00  0.00    +0.000 A 
ATOM      3  C   UNL     1       8.712   8.041  19.234  0.00  0.00    +0.000 A 
ATOM      4  C   UNL     1       8.372   9.146  18.438  0.00  0.00    +0.000 A 
ATOM      5  C   UNL     1       7.606   8.916  17.280  0.00  0.00    +0.000 A 
ATOM      6  C   UNL     1       7.247   7.610  16.900  0.00  0.00    +0.000 A 
ENDROOT
BRANCH   1   7
ATOM      7  S   UNL     1       7.359   4.847  17.130  0.00  0.00    +0.000 S 
ATOM      8  O   UNL     1       8.344   4.024  17.809  0.00  0.00    +0.000 OA
ATOM      9  O   UNL     1       7.356   4.907  15.684  0.00  0.00    +0.000 OA
BRANCH   7  15
ATOM     10  N   UNL     1       4.692   4.042  15.800  0.00  0.00    +0.000 NA
ATOM     11  C   UNL     1       4.709   4.053  17.067  0.00  0.00    +0.000 C 
ATOM     12  N   UNL     1       3.725   3.702  17.979  0.00  0.00    +0.000 N 
ATOM     13  C   UNL     1       4.356   3.632  19.331  0.00  0.00    +0.000 C 
ATOM     14  C   UNL     1       5.684   4.401  19.212  0.00  0.00    +0.000 C 
ATOM     15  N   UNL     1       5.866   4.435  17.761  0.00  0.00    +0.000 N 
ATOM     16  H   UNL     1       3.824   3.628  15.477  0.00  0.00    +0.000 HD
BRANCH  12  17
ATOM     17  C   UNL     1       2.367   4.315  17.970  0.00  0.00    +0.000 C 
ATOM     18  C   UNL     1       1.198   3.337  18.131  0.00  0.00    +0.000 C 
ATOM     19  C   UNL     1       1.009   2.808  19.552  0.00  0.00    +0.000 C 
ATOM     20  C   UNL     1       0.910   3.913  20.592  0.00  0.00    +0.000 C 
ATOM     21  C   UNL     1       1.991   4.977  20.455  0.00  0.00    +0.000 C 
ATOM     22  C   UNL     1       2.219   5.445  19.018  0.00  0.00    +0.000 C 
ENDBRANCH  12  17
ENDBRANCH   7  15
ENDBRANCH   1   7
BRANCH   4  23
ATOM     23  C   UNL     1       8.787  10.556  18.824  0.00  0.00    +0.000 C 
BRANCH  23  24
ATOM     24  C   UNL     1       9.904  10.610  19.883  0.00  0.00    +0.000 C 
BRANCH  24  25
ATOM     25  N   UNL     1      10.295  11.956  20.256  0.00  0.00    +0.000 N 
ATOM     26  C   UNL     1      11.290  12.598  19.547  0.00  0.00    +0.000 C 
ATOM     27  O   UNL     1      11.956  12.007  18.701  0.00  0.00    +0.000 OA
ATOM     28  H   UNL     1       9.743  12.457  20.938  0.00  0.00    +0.000 HD
BRANCH  26  29
ATOM     29  C   UNL     1      11.527  14.061  19.928  0.00  0.00    +0.000 C 
ATOM     30  C   UNL     1      12.291  14.785  18.800  0.00  0.00    +0.000 C 
ATOM     31  C   UNL     1      11.404  15.214  17.663  0.00  0.00    +0.000 C 
ATOM     32  C   UNL     1      10.067  15.269  17.759  0.00  0.00    +0.000 C 
ATOM     33  C   UNL     1       9.318  14.959  19.020  0.00  0.00    +0.000 C 
ATOM     34  C   UNL     1      10.228  14.817  20.245  0.00  0.00    +0.000 C 
ENDBRANCH  26  29
ENDBRANCH  24  25
ENDBRANCH  23  24
ENDBRANCH   4  23
TORSDOF 7
ENDMDL
MODEL 8
REMARK VINA RESULT:      -8.1      7.027     10.133
REMARK  Name = 
REMARK  7 active torsions:
REMARK  status: ('A' for Active; 'I' for Inactive)
REMARK    1  A    between atoms: N_3  and  C_4
REMARK    2  A    between atoms: N_12  and  S_13
REMARK    3  A    between atoms: S_13  and  C_16
REMARK    4  A    between atoms: C_19  and  C_20
REMARK    5  A    between atoms: C_20  and  C_21
REMARK    6  A    between atoms: C_21  and  N_22
REMARK    7  A    between atoms: C_23  and  C_25
REMARK                            x       y       z     vdW  Elec       q    Type
REMARK                         _______ _______ _______ _____ _____    ______ ____
ROOT
ATOM      1  C   UNL     1       1.185   9.843  19.854  0.00  0.00    +0.000 A 
ATOM      2  C   UNL     1       1.013   8.917  20.885  0.00  0.00    +0.000 A 
ATOM      3  C   UNL     1       1.370   7.582  20.687  0.00  0.00    +0.000 A 
ATOM      4  C   UNL     1       1.867   7.133  19.454  0.00  0.00    +0.000 A 
ATOM      5  C   UNL     1       2.066   8.084  18.436  0.00  0.00    +0.000 A 
ATOM      6  C   UNL     1       1.718   9.432  18.630  0.00  0.00    +0.000 A 
ENDROOT
BRANCH   1   7
ATOM      7  S   UNL     1       0.559  11.508  20.062  0.00  0.00    +0.000 S 
ATOM      8  O   UNL     1       1.424  12.368  19.274  0.00  0.00    +0.000 OA
ATOM      9  O   UNL     1       0.457  11.716  21.490  0.00  0.00    +0.000 OA
BRANCH   7  15
ATOM     10  N   UNL     1      -2.108  12.922  20.703  0.00  0.00    +0.000 NA
ATOM     11  C   UNL     1      -2.089  12.203  19.661  0.00  0.00    +0.000 C 
ATOM     12  N   UNL     1      -3.070  11.982  18.707  0.00  0.00    +0.000 N 
ATOM     13  C   UNL     1      -2.437  11.280  17.550  0.00  0.00    +0.000 C 
ATOM     14  C   UNL     1      -1.111  10.709  18.084  0.00  0.00    +0.000 C 
ATOM     15  N   UNL     1      -0.931  11.496  19.304  0.00  0.00    +0.000 N 
ATOM     16  H   UNL     1      -2.976  13.447  20.736  0.00  0.00    +0.000 HD
BRANCH  12  17
ATOM     17  C   UNL     1      -4.430  11.481  19.054  0.00  0.00    +0.000 C 
ATOM     18  C   UNL     1      -5.228  12.351  20.031  0.00  0.00    +0.000 C 
ATOM     19  C   UNL     1      -5.796  13.630  19.417  0.00  0.00    +0.000 C 
ATOM     20  C   UNL     1      -6.615  13.375  18.160  0.00  0.00    +0.000 C 
ATOM     21  C   UNL     1      -5.929  12.449  17.164  0.00  0.00    +0.000 C 
ATOM     22  C   UNL     1      -5.301  11.211  17.803  0.00  0.00    +0.000 C 
ENDBRANCH  12  17
ENDBRANCH   7  15
ENDBRANCH   1   7
BRANCH   4  23
ATOM     23  C   UNL     1       2.211   5.670  19.226  0.00  0.00    +0.000 C 
BRANCH  23  24
ATOM     24  C   UNL     1       3.539   5.233  19.872  0.00  0.00    +0.000 C 
BRANCH  24  25
ATOM     25  N   UNL     1       4.715   5.768  19.214  0.00  0.00    +0.000 N 
ATOM     26  C   UNL     1       5.744   4.919  18.859  0.00  0.00    +0.000 C 
ATOM     27  O   UNL     1       5.755   3.744  19.216  0.00  0.00    +0.000 OA
ATOM     28  H   UNL     1       4.708   6.729  18.901  0.00  0.00    +0.000 HD
BRANCH  26  29
ATOM     29  C   UNL     1       6.871   5.558  18.045  0.00  0.00    +0.000 C 
ATOM     30  C   UNL     1       7.439   4.541  17.036  0.00  0.00    +0.000 C 
ATOM     31  C   UNL     1       6.603   4.408  15.792  0.00  0.00    +0.000 C 
ATOM     32  C   UNL     1       5.667   5.302  15.442  0.00  0.00    +0.000 C 
ATOM     33  C   UNL     1       5.387   6.550  16.223  0.00  0.00    +0.000 C 
ATOM     34  C   UNL     1       6.431   6.833  17.309  0.00  0.00    +0.000 C 
ENDBRANCH  26  29
ENDBRANCH  24  25
ENDBRANCH  23  24
ENDBRANCH   4  23
TORSDOF 7
ENDMDL
MODEL 9
REMARK VINA RESULT:      -8.0      5.715     11.369
REMARK  Name = 
REMARK  7 active torsions:
REMARK  status: ('A' for Active; 'I' for Inactive)
REMARK    1  A    between atoms: N_3  and  C_4
REMARK    2  A    between atoms: N_12  and  S_13
REMARK    3  A    between atoms: S_13  and  C_16
REMARK    4  A    between atoms: C_19  and  C_20
REMARK    5  A    between atoms: C_20  and  C_21
REMARK    6  A    between atoms: C_21  and  N_22
REMARK    7  A    between atoms: C_23  and  C_25
REMARK                            x       y       z     vdW  Elec       q    Type
REMARK                         _______ _______ _______ _____ _____    ______ ____
ROOT
ATOM      1  C   UNL     1       1.079   8.978  19.170  0.00  0.00    +0.000 A 
ATOM      2  C   UNL     1       1.664   9.160  17.915  0.00  0.00    +0.000 A 
ATOM      3  C   UNL     1       2.702   8.323  17.504  0.00  0.00    +0.000 A 
ATOM      4  C   UNL     1       3.205   7.316  18.342  0.00  0.00    +0.000 A 
ATOM      5  C   UNL     1       2.583   7.122  19.589  0.00  0.00    +0.000 A 
ATOM      6  C   UNL     1       1.530   7.956  20.007  0.00  0.00    +0.000 A 
ENDROOT
BRANCH   1   7
ATOM      7  S   UNL     1      -0.126  10.167  19.753  0.00  0.00    +0.000 S 
ATOM      8  O   UNL     1      -0.541   9.714  21.068  0.00  0.00    +0.000 OA
ATOM      9  O   UNL     1      -1.109  10.285  18.696  0.00  0.00    +0.000 OA
BRANCH   7  15
ATOM     10  N   UNL     1       0.481  12.558  17.897  0.00  0.00    +0.000 NA
ATOM     11  C   UNL     1       0.944  12.627  19.074  0.00  0.00    +0.000 C 
ATOM     12  N   UNL     1       1.647  13.645  19.701  0.00  0.00    +0.000 N 
ATOM     13  C   UNL     1       1.705  13.330  21.160  0.00  0.00    +0.000 C 
ATOM     14  C   UNL     1       1.370  11.832  21.278  0.00  0.00    +0.000 C 
ATOM     15  N   UNL     1       0.746  11.575  19.980  0.00  0.00    +0.000 N 
ATOM     16  H   UNL     1       0.613  13.448  17.428  0.00  0.00    +0.000 HD
BRANCH  12  17
ATOM     17  C   UNL     1       2.910  14.208  19.148  0.00  0.00    +0.000 C 
ATOM     18  C   UNL     1       2.745  15.183  17.978  0.00  0.00    +0.000 C 
ATOM     19  C   UNL     1       2.239  16.568  18.378  0.00  0.00    +0.000 C 
ATOM     20  C   UNL     1       3.070  17.212  19.478  0.00  0.00    +0.000 C 
ATOM     21  C   UNL     1       3.353  16.282  20.650  0.00  0.00    +0.000 C 
ATOM     22  C   UNL     1       3.788  14.877  20.233  0.00  0.00    +0.000 C 
ENDBRANCH  12  17
ENDBRANCH   7  15
ENDBRANCH   1   7
BRANCH   4  23
ATOM     23  C   UNL     1       4.367   6.436  17.911  0.00  0.00    +0.000 C 
BRANCH  23  24
ATOM     24  C   UNL     1       3.958   5.263  17.001  0.00  0.00    +0.000 C 
BRANCH  24  25
ATOM     25  N   UNL     1       3.538   4.079  17.723  0.00  0.00    +0.000 N 
ATOM     26  C   UNL     1       2.200   3.742  17.764  0.00  0.00    +0.000 C 
ATOM     27  O   UNL     1       1.337   4.499  17.327  0.00  0.00    +0.000 OA
ATOM     28  H   UNL     1       4.241   3.441  18.071  0.00  0.00    +0.000 HD
BRANCH  26  29
ATOM     29  C   UNL     1       1.880   2.401  18.429  0.00  0.00    +0.000 C 
ATOM     30  C   UNL     1       3.109   1.889  19.206  0.00  0.00    +0.000 C 
ATOM     31  C   UNL     1       3.268   2.533  20.557  0.00  0.00    +0.000 C 
ATOM     32  C   UNL     1       2.285   3.216  21.161  0.00  0.00    +0.000 C 
ATOM     33  C   UNL     1       0.911   3.370  20.581  0.00  0.00    +0.000 C 
ATOM     34  C   UNL     1       0.664   2.471  19.365  0.00  0.00    +0.000 C 
ENDBRANCH  26  29
ENDBRANCH  24  25
ENDBRANCH  23  24
ENDBRANCH   4  23
TORSDOF 7
ENDMDL
