MODEL 1
REMARK VINA RESULT:      -7.0      0.000      0.000
REMARK  Name = 
REMARK  5 active torsions:
REMARK  status: ('A' for Active; 'I' for Inactive)
REMARK    1  A    between atoms: C_1  and  C_2
REMARK    2  A    between atoms: C_4  and  N_5
REMARK    3  A    between atoms: C_8  and  N_9
REMARK    4  A    between atoms: N_9  and  S_10
REMARK    5  A    between atoms: S_10  and  C_13
REMARK                            x       y       z     vdW  Elec       q    Type
REMARK                         _______ _______ _______ _____ _____    ______ ____
ROOT
ATOM      1  N   UNL     1       3.726   4.979  17.950  0.00  0.00    +0.000 N 
ATOM      2  H   UNL     1       3.300   5.067  17.031  0.00  0.00    +0.000 HD
ENDROOT
BRANCH   1   9
ATOM      3  C   UNL     1       2.767   2.201  17.613  0.00  0.00    +0.000 C 
ATOM      4  C   UNL     1       2.540   3.021  18.853  0.00  0.00    +0.000 A 
ATOM      5  C   UNL     1       1.888   2.420  19.947  0.00  0.00    +0.000 A 
ATOM      6  C   UNL     1       1.747   3.082  21.170  0.00  0.00    +0.000 A 
ATOM      7  C   UNL     1       2.167   4.407  21.260  0.00  0.00    +0.000 A 
ATOM      8  C   UNL     1       2.805   5.028  20.184  0.00  0.00    +0.000 A 
ATOM      9  C   UNL     1       2.989   4.344  18.982  0.00  0.00    +0.000 A 
BRANCH   6  10
ATOM     10  N   UNL     1       1.006   2.502  22.203  0.00  0.00    +0.000 N 
ATOM     11  H   UNL     1       1.159   2.927  23.111  0.00  0.00    +0.000 HD
ATOM     12  H   UNL     1       0.019   2.389  21.993  0.00  0.00    +0.000 HD
ENDBRANCH   6  10
ENDBRANCH   1   9
BRANCH   1  13
ATOM     13  S   UNL     1       5.402   5.060  17.958  0.00  0.00    +0.000 S 
ATOM     14  O   UNL     1       5.731   6.453  18.174  0.00  0.00    +0.000 OA
ATOM     15  O   UNL     1       5.926   4.024  18.822  0.00  0.00    +0.000 OA
BRANCH  13  16
ATOM     16  C   UNL     1       5.907   4.689  16.290  0.00  0.00    +0.000 A 
ATOM     17  C   UNL     1       5.029   4.005  15.439  0.00  0.00    +0.000 A 
ATOM     18  C   UNL     1       5.384   3.787  14.106  0.00  0.00    +0.000 A 
ATOM     19  C   UNL     1       6.601   4.275  13.621  0.00  0.00    +0.000 A 
ATOM     20 CL   UNL     1       7.023   4.026  11.973  0.00  0.00    +0.000 Cl
ATOM     21  C   UNL     1       7.465   4.977  14.462  0.00  0.00    +0.000 A 
ATOM     22  C   UNL     1       7.121   5.183  15.800  0.00  0.00    +0.000 A 
ENDBRANCH  13  16
ENDBRANCH   1  13
TORSDOF 4
ENDMDL
MODEL 2
REMARK VINA RESULT:      -7.0      1.034      1.635
REMARK  Name = 
REMARK  5 active torsions:
REMARK  status: ('A' for Active; 'I' for Inactive)
REMARK    1  A    between atoms: C_1  and  C_2
REMARK    2  A    between atoms: C_4  and  N_5
REMARK    3  A    between atoms: C_8  and  N_9
REMARK    4  A    between atoms: N_9  and  S_10
REMARK    5  A    between atoms: S_10  and  C_13
REMARK                            x       y       z     vdW  Elec       q    Type
REMARK                         _______ _______ _______ _____ _____    ______ ____
ROOT
ATOM      1  N   UNL     1       4.347   3.330  17.941  0.00  0.00    +0.000 N 
ATOM      2  H   UNL     1       4.581   2.502  17.399  0.00  0.00    +0.000 HD
ENDROOT
BRANCH   1   9
ATOM      3  C   UNL     1       1.509   4.137  17.728  0.00  0.00    +0.000 C 
ATOM      4  C   UNL     1       2.123   3.551  18.969  0.00  0.00    +0.000 A 
ATOM      5  C   UNL     1       1.292   3.311  20.081  0.00  0.00    +0.000 A 
ATOM      6  C   UNL     1       1.768   2.663  21.225  0.00  0.00    +0.000 A 
ATOM      7  C   UNL     1       3.124   2.352  21.296  0.00  0.00    +0.000 A 
ATOM      8  C   UNL     1       3.969   2.592  20.211  0.00  0.00    +0.000 A 
ATOM      9  C   UNL     1       3.477   3.193  19.051  0.00  0.00    +0.000 A 
BRANCH   6  10
ATOM     10  N   UNL     1       0.950   2.531  22.350  0.00  0.00    +0.000 N 
ATOM     11  H   UNL     1       0.736   1.570  22.596  0.00  0.00    +0.000 HD
ATOM     12  H   UNL     1       1.258   3.072  23.152  0.00  0.00    +0.000 HD
ENDBRANCH   6  10
ENDBRANCH   1   9
BRANCH   1  13
ATOM     13  S   UNL     1       5.450   4.589  17.810  0.00  0.00    +0.000 S 
ATOM     14  O   UNL     1       4.696   5.803  18.035  0.00  0.00    +0.000 OA
ATOM     15  O   UNL     1       6.624   4.279  18.598  0.00  0.00    +0.000 OA
BRANCH  13  16
ATOM     16  C   UNL     1       5.936   4.622  16.095  0.00  0.00    +0.000 A 
ATOM     17  C   UNL     1       7.177   5.167  15.740  0.00  0.00    +0.000 A 
ATOM     18  C   UNL     1       7.600   5.117  14.410  0.00  0.00    +0.000 A 
ATOM     19  C   UNL     1       6.796   4.503  13.446  0.00  0.00    +0.000 A 
ATOM     20 CL   UNL     1       7.332   4.423  11.813  0.00  0.00    +0.000 Cl
ATOM     21  C   UNL     1       5.571   3.939  13.804  0.00  0.00    +0.000 A 
ATOM     22  C   UNL     1       5.137   4.000  15.130  0.00  0.00    +0.000 A 
ENDBRANCH  13  16
ENDBRANCH   1  13
TORSDOF 4
ENDMDL
MODEL 3
REMARK VINA RESULT:      -7.0      3.605      6.546
REMARK  Name = 
REMARK  5 active torsions:
REMARK  status: ('A' for Active; 'I' for Inactive)
REMARK    1  A    between atoms: C_1  and  C_2
REMARK    2  A    between atoms: C_4  and  N_5
REMARK    3  A    between atoms: C_8  and  N_9
REMARK    4  A    between atoms: N_9  and  S_10
REMARK    5  A    between atoms: S_10  and  C_13
REMARK                            x       y       z     vdW  Elec       q    Type
REMARK                         _______ _______ _______ _____ _____    ______ ____
ROOT
ATOM      1  N   UNL     1       4.383   3.009  18.170  0.00  0.00    +0.000 N 
ATOM      2  H   UNL     1       4.708   2.125  18.554  0.00  0.00    +0.000 HD
ENDROOT
BRANCH   1   9
ATOM      3  C   UNL     1       6.160   5.175  19.121  0.00  0.00    +0.000 C 
ATOM      4  C   UNL     1       6.083   4.721  17.690  0.00  0.00    +0.000 A 
ATOM      5  C   UNL     1       6.950   5.313  16.750  0.00  0.00    +0.000 A 
ATOM      6  C   UNL     1       7.016   4.861  15.429  0.00  0.00    +0.000 A 
ATOM      7  C   UNL     1       6.122   3.875  15.018  0.00  0.00    +0.000 A 
ATOM      8  C   UNL     1       5.245   3.283  15.929  0.00  0.00    +0.000 A 
ATOM      9  C   UNL     1       5.219   3.703  17.260  0.00  0.00    +0.000 A 
BRANCH   6  10
ATOM     10  N   UNL     1       7.809   5.533  14.494  0.00  0.00    +0.000 N 
ATOM     11  H   UNL     1       8.679   5.061  14.273  0.00  0.00    +0.000 HD
ATOM     12  H   UNL     1       7.308   5.825  13.660  0.00  0.00    +0.000 HD
ENDBRANCH   6  10
ENDBRANCH   1   9
BRANCH   1  13
ATOM     13  S   UNL     1       2.718   3.219  18.205  0.00  0.00    +0.000 S 
ATOM     14  O   UNL     1       2.307   3.359  16.824  0.00  0.00    +0.000 OA
ATOM     15  O   UNL     1       2.127   2.217  19.065  0.00  0.00    +0.000 OA
BRANCH  13  16
ATOM     16  C   UNL     1       2.453   4.812  18.960  0.00  0.00    +0.000 A 
ATOM     17  C   UNL     1       2.642   5.975  18.203  0.00  0.00    +0.000 A 
ATOM     18  C   UNL     1       2.352   7.222  18.763  0.00  0.00    +0.000 A 
ATOM     19  C   UNL     1       1.852   7.300  20.066  0.00  0.00    +0.000 A 
ATOM     20 CL   UNL     1       1.475   8.835  20.743  0.00  0.00    +0.000 Cl
ATOM     21  C   UNL     1       1.642   6.140  20.812  0.00  0.00    +0.000 A 
ATOM     22  C   UNL     1       1.945   4.893  20.261  0.00  0.00    +0.000 A 
ENDBRANCH  13  16
ENDBRANCH   1  13
TORSDOF 4
ENDMDL
MODEL 4
REMARK VINA RESULT:      -6.9      0.133      1.120
REMARK  Name = 
REMARK  5 active torsions:
REMARK  status: ('A' for Active; 'I' for Inactive)
REMARK    1  A    between atoms: C_1  and  C_2
REMARK    2  A    between atoms: C_4  and  N_5
REMARK    3  A    between atoms: C_8  and  N_9
REMARK    4  A    between atoms: N_9  and  S_10
REMARK    5  A    between atoms: S_10  and  C_13
REMARK                            x       y       z     vdW  Elec       q    Type
REMARK                         _______ _______ _______ _____ _____    ______ ____
ROOT
ATOM      1  N   UNL     1       3.607   5.037  17.941  0.00  0.00    +0.000 N 
ATOM      2  H   UNL     1       3.160   5.120  17.032  0.00  0.00    +0.000 HD
ENDROOT
BRANCH   1   9
ATOM      3  C   UNL     1       2.616   2.272  17.588  0.00  0.00    +0.000 C 
ATOM      4  C   UNL     1       2.441   3.070  18.850  0.00  0.00    +0.000 A 
ATOM      5  C   UNL     1       1.825   2.452  19.956  0.00  0.00    +0.000 A 
ATOM      6  C   UNL     1       1.734   3.093  21.196  0.00  0.00    +0.000 A 
ATOM      7  C   UNL     1       2.167   4.413  21.296  0.00  0.00    +0.000 A 
ATOM      8  C   UNL     1       2.769   5.050  20.208  0.00  0.00    +0.000 A 
ATOM      9  C   UNL     1       2.905   4.388  18.987  0.00  0.00    +0.000 A 
BRANCH   6  10
ATOM     10  N   UNL     1       1.028   2.497  22.245  0.00  0.00    +0.000 N 
ATOM     11  H   UNL     1       1.561   1.808  22.764  0.00  0.00    +0.000 HD
ATOM     12  H   UNL     1       0.558   3.158  22.856  0.00  0.00    +0.000 HD
ENDBRANCH   6  10
ENDBRANCH   1   9
BRANCH   1  13
ATOM     13  S   UNL     1       5.282   5.146  17.912  0.00  0.00    +0.000 S 
ATOM     14  O   UNL     1       5.594   6.531  18.194  0.00  0.00    +0.000 OA
ATOM     15  O   UNL     1       5.844   4.075  18.706  0.00  0.00    +0.000 OA
BRANCH  13  16
ATOM     16  C   UNL     1       5.749   4.872  16.214  0.00  0.00    +0.000 A 
ATOM     17  C   UNL     1       7.030   5.238  15.783  0.00  0.00    +0.000 A 
ATOM     18  C   UNL     1       7.432   4.947  14.477  0.00  0.00    +0.000 A 
ATOM     19  C   UNL     1       6.564   4.269  13.616  0.00  0.00    +0.000 A 
ATOM     20 CL   UNL     1       7.071   3.891  12.017  0.00  0.00    +0.000 Cl
ATOM     21  C   UNL     1       5.296   3.883  14.053  0.00  0.00    +0.000 A 
ATOM     22  C   UNL     1       4.885   4.186  15.353  0.00  0.00    +0.000 A 
ENDBRANCH  13  16
ENDBRANCH   1  13
TORSDOF 4
ENDMDL
MODEL 5
REMARK VINA RESULT:      -6.9      1.045      1.232
REMARK  Name = 
REMARK  5 active torsions:
REMARK  status: ('A' for Active; 'I' for Inactive)
REMARK    1  A    between atoms: C_1  and  C_2
REMARK    2  A    between atoms: C_4  and  N_5
REMARK    3  A    between atoms: C_8  and  N_9
REMARK    4  A    between atoms: N_9  and  S_10
REMARK    5  A    between atoms: S_10  and  C_13
REMARK                            x       y       z     vdW  Elec       q    Type
REMARK                         _______ _______ _______ _____ _____    ______ ____
ROOT
ATOM      1  N   UNL     1       4.355   3.298  17.866  0.00  0.00    +0.000 N 
ATOM      2  H   UNL     1       4.584   2.457  17.343  0.00  0.00    +0.000 HD
ENDROOT
BRANCH   1   9
ATOM      3  C   UNL     1       1.553   4.230  17.685  0.00  0.00    +0.000 C 
ATOM      4  C   UNL     1       2.152   3.608  18.916  0.00  0.00    +0.000 A 
ATOM      5  C   UNL     1       1.321   3.395  20.033  0.00  0.00    +0.000 A 
ATOM      6  C   UNL     1       1.778   2.717  21.168  0.00  0.00    +0.000 A 
ATOM      7  C   UNL     1       3.119   2.346  21.225  0.00  0.00    +0.000 A 
ATOM      8  C   UNL     1       3.965   2.558  20.134  0.00  0.00    +0.000 A 
ATOM      9  C   UNL     1       3.489   3.190  18.984  0.00  0.00    +0.000 A 
BRANCH   6  10
ATOM     10  N   UNL     1       0.964   2.611  22.299  0.00  0.00    +0.000 N 
ATOM     11  H   UNL     1       0.103   2.097  22.144  0.00  0.00    +0.000 HD
ATOM     12  H   UNL     1       1.452   2.298  23.132  0.00  0.00    +0.000 HD
ENDBRANCH   6  10
ENDBRANCH   1   9
BRANCH   1  13
ATOM     13  S   UNL     1       5.463   4.549  17.703  0.00  0.00    +0.000 S 
ATOM     14  O   UNL     1       4.696   5.773  17.794  0.00  0.00    +0.000 OA
ATOM     15  O   UNL     1       6.591   4.305  18.575  0.00  0.00    +0.000 OA
BRANCH  13  16
ATOM     16  C   UNL     1       6.043   4.457  16.020  0.00  0.00    +0.000 A 
ATOM     17  C   UNL     1       5.250   3.831  15.050  0.00  0.00    +0.000 A 
ATOM     18  C   UNL     1       5.658   3.832  13.714  0.00  0.00    +0.000 A 
ATOM     19  C   UNL     1       6.843   4.478  13.349  0.00  0.00    +0.000 A 
ATOM     20 CL   UNL     1       7.330   4.497  11.700  0.00  0.00    +0.000 Cl
ATOM     21  C   UNL     1       7.621   5.122  14.311  0.00  0.00    +0.000 A 
ATOM     22  C   UNL     1       7.224   5.110  15.651  0.00  0.00    +0.000 A 
ENDBRANCH  13  16
ENDBRANCH   1  13
TORSDOF 4
ENDMDL
MODEL 6
REMARK VINA RESULT:      -6.9      1.948      2.462
REMARK  Name = 
REMARK  5 active torsions:
REMARK  status: ('A' for Active; 'I' for Inactive)
REMARK    1  A    between atoms: C_1  and  C_2
REMARK    2  A    between atoms: C_4  and  N_5
REMARK    3  A    between atoms: C_8  and  N_9
REMARK    4  A    between atoms: N_9  and  S_10
REMARK    5  A    between atoms: S_10  and  C_13
REMARK                            x       y       z     vdW  Elec       q    Type
REMARK                         _______ _______ _______ _____ _____    ______ ____
ROOT
ATOM      1  N   UNL     1       5.612   5.776  19.266  0.00  0.00    +0.000 N 
ATOM      2  H   UNL     1       5.380   6.672  19.688  0.00  0.00    +0.000 HD
ENDROOT
BRANCH   1   9
ATOM      3  C   UNL     1       2.994   6.622  18.178  0.00  0.00    +0.000 C 
ATOM      4  C   UNL     1       3.332   5.203  18.539  0.00  0.00    +0.000 A 
ATOM      5  C   UNL     1       2.376   4.199  18.289  0.00  0.00    +0.000 A 
ATOM      6  C   UNL     1       2.664   2.846  18.490  0.00  0.00    +0.000 A 
ATOM      7  C   UNL     1       3.891   2.504  19.054  0.00  0.00    +0.000 A 
ATOM      8  C   UNL     1       4.850   3.483  19.321  0.00  0.00    +0.000 A 
ATOM      9  C   UNL     1       4.576   4.828  19.070  0.00  0.00    +0.000 A 
BRANCH   6  10
ATOM     10  N   UNL     1       1.664   1.883  18.333  0.00  0.00    +0.000 N 
ATOM     11  H   UNL     1       0.890   2.181  17.748  0.00  0.00    +0.000 HD
ATOM     12  H   UNL     1       2.010   0.965  18.072  0.00  0.00    +0.000 HD
ENDBRANCH   6  10
ENDBRANCH   1   9
BRANCH   1  13
ATOM     13  S   UNL     1       7.019   5.775  18.351  0.00  0.00    +0.000 S 
ATOM     14  O   UNL     1       7.420   7.162  18.238  0.00  0.00    +0.000 OA
ATOM     15  O   UNL     1       7.925   4.773  18.870  0.00  0.00    +0.000 OA
BRANCH  13  16
ATOM     16  C   UNL     1       6.525   5.271  16.715  0.00  0.00    +0.000 A 
ATOM     17  C   UNL     1       6.838   3.982  16.266  0.00  0.00    +0.000 A 
ATOM     18  C   UNL     1       6.378   3.551  15.019  0.00  0.00    +0.000 A 
ATOM     19  C   UNL     1       5.588   4.400  14.237  0.00  0.00    +0.000 A 
ATOM     20 CL   UNL     1       5.005   3.857  12.713  0.00  0.00    +0.000 Cl
ATOM     21  C   UNL     1       5.257   5.675  14.695  0.00  0.00    +0.000 A 
ATOM     22  C   UNL     1       5.728   6.116  15.934  0.00  0.00    +0.000 A 
ENDBRANCH  13  16
ENDBRANCH   1  13
TORSDOF 4
ENDMDL
MODEL 7
REMARK VINA RESULT:      -6.8      3.627      6.075
REMARK  Name = 
REMARK  5 active torsions:
REMARK  status: ('A' for Active; 'I' for Inactive)
REMARK    1  A    between atoms: C_1  and  C_2
REMARK    2  A    between atoms: C_4  and  N_5
REMARK    3  A    between atoms: C_8  and  N_9
REMARK    4  A    between atoms: N_9  and  S_10
REMARK    5  A    between atoms: S_10  and  C_13
REMARK                            x       y       z     vdW  Elec       q    Type
REMARK                         _______ _______ _______ _____ _____    ______ ____
ROOT
ATOM      1  N   UNL     1       4.535   2.910  17.665  0.00  0.00    +0.000 N 
ATOM      2  H   UNL     1       4.845   2.067  17.189  0.00  0.00    +0.000 HD
ENDROOT
BRANCH   1   9
ATOM      3  C   UNL     1       5.314   4.266  15.153  0.00  0.00    +0.000 C 
ATOM      4  C   UNL     1       5.770   4.703  16.518  0.00  0.00    +0.000 A 
ATOM      5  C   UNL     1       6.563   5.862  16.622  0.00  0.00    +0.000 A 
ATOM      6  C   UNL     1       6.925   6.392  17.864  0.00  0.00    +0.000 A 
ATOM      7  C   UNL     1       6.579   5.687  19.015  0.00  0.00    +0.000 A 
ATOM      8  C   UNL     1       5.803   4.529  18.935  0.00  0.00    +0.000 A 
ATOM      9  C   UNL     1       5.400   4.032  17.694  0.00  0.00    +0.000 A 
BRANCH   6  10
ATOM     10  N   UNL     1       7.798   7.482  17.936  0.00  0.00    +0.000 N 
ATOM     11  H   UNL     1       8.047   7.751  18.882  0.00  0.00    +0.000 HD
ATOM     12  H   UNL     1       8.611   7.403  17.333  0.00  0.00    +0.000 HD
ENDBRANCH   6  10
ENDBRANCH   1   9
BRANCH   1  13
ATOM     13  S   UNL     1       2.870   3.052  17.827  0.00  0.00    +0.000 S 
ATOM     14  O   UNL     1       2.358   3.266  16.490  0.00  0.00    +0.000 OA
ATOM     15  O   UNL     1       2.377   1.972  18.654  0.00  0.00    +0.000 OA
BRANCH  13  16
ATOM     16  C   UNL     1       2.603   4.580  18.706  0.00  0.00    +0.000 A 
ATOM     17  C   UNL     1       2.617   5.791  18.004  0.00  0.00    +0.000 A 
ATOM     18  C   UNL     1       2.322   6.983  18.672  0.00  0.00    +0.000 A 
ATOM     19  C   UNL     1       1.992   6.956  20.030  0.00  0.00    +0.000 A 
ATOM     20 CL   UNL     1       1.608   8.422  20.842  0.00  0.00    +0.000 Cl
ATOM     21  C   UNL     1       1.955   5.746  20.723  0.00  0.00    +0.000 A 
ATOM     22  C   UNL     1       2.264   4.554  20.063  0.00  0.00    +0.000 A 
ENDBRANCH  13  16
ENDBRANCH   1  13
TORSDOF 4
ENDMDL
MODEL 8
REMARK VINA RESULT:      -6.8      1.889      2.398
REMARK  Name = 
REMARK  5 active torsions:
REMARK  status: ('A' for Active; 'I' for Inactive)
REMARK    1  A    between atoms: C_1  and  C_2
REMARK    2  A    between atoms: C_4  and  N_5
REMARK    3  A    between atoms: C_8  and  N_9
REMARK    4  A    between atoms: N_9  and  S_10
REMARK    5  A    between atoms: S_10  and  C_13
REMARK                            x       y       z     vdW  Elec       q    Type
REMARK                         _______ _______ _______ _____ _____    ______ ____
ROOT
ATOM      1  N   UNL     1       5.579   5.615  19.343  0.00  0.00    +0.000 N 
ATOM      2  H   UNL     1       5.400   6.477  19.853  0.00  0.00    +0.000 HD
ENDROOT
BRANCH   1   9
ATOM      3  C   UNL     1       3.005   6.546  18.221  0.00  0.00    +0.000 C 
ATOM      4  C   UNL     1       3.286   5.119  18.603  0.00  0.00    +0.000 A 
ATOM      5  C   UNL     1       2.294   4.150  18.357  0.00  0.00    +0.000 A 
ATOM      6  C   UNL     1       2.529   2.789  18.578  0.00  0.00    +0.000 A 
ATOM      7  C   UNL     1       3.737   2.408  19.157  0.00  0.00    +0.000 A 
ATOM      8  C   UNL     1       4.731   3.354  19.420  0.00  0.00    +0.000 A 
ATOM      9  C   UNL     1       4.510   4.705  19.150  0.00  0.00    +0.000 A 
BRANCH   6  10
ATOM     10  N   UNL     1       1.494   1.863  18.424  0.00  0.00    +0.000 N 
ATOM     11  H   UNL     1       0.695   2.216  17.907  0.00  0.00    +0.000 HD
ATOM     12  H   UNL     1       1.797   0.954  18.086  0.00  0.00    +0.000 HD
ENDBRANCH   6  10
ENDBRANCH   1   9
BRANCH   1  13
ATOM     13  S   UNL     1       6.914   5.666  18.326  0.00  0.00    +0.000 S 
ATOM     14  O   UNL     1       7.245   7.067  18.176  0.00  0.00    +0.000 OA
ATOM     15  O   UNL     1       7.899   4.709  18.783  0.00  0.00    +0.000 OA
BRANCH  13  16
ATOM     16  C   UNL     1       6.323   5.126  16.734  0.00  0.00    +0.000 A 
ATOM     17  C   UNL     1       5.670   6.037  15.894  0.00  0.00    +0.000 A 
ATOM     18  C   UNL     1       5.282   5.643  14.612  0.00  0.00    +0.000 A 
ATOM     19  C   UNL     1       5.570   4.351  14.164  0.00  0.00    +0.000 A 
ATOM     20 CL   UNL     1       5.112   3.877  12.575  0.00  0.00    +0.000 Cl
ATOM     21  C   UNL     1       6.242   3.450  14.991  0.00  0.00    +0.000 A 
ATOM     22  C   UNL     1       6.618   3.835  16.281  0.00  0.00    +0.000 A 
ENDBRANCH  13  16
ENDBRANCH   1  13
TORSDOF 4
ENDMDL
MODEL 9
REMARK VINA RESULT:      -6.7      3.553      6.084
REMARK  Name = 
REMARK  5 active torsions:
REMARK  status: ('A' for Active; 'I' for Inactive)
REMARK    1  A    between atoms: C_1  and  C_2
REMARK    2  A    between atoms: C_4  and  N_5
REMARK    3  A    between atoms: C_8  and  N_9
REMARK    4  A    between atoms: N_9  and  S_10
REMARK    5  A    between atoms: S_10  and  C_13
REMARK                            x       y       z     vdW  Elec       q    Type
REMARK                         _______ _______ _______ _____ _____    ______ ____
ROOT
ATOM      1  N   UNL     1       4.901   3.429  17.230  0.00  0.00    +0.000 N 
ATOM      2  H   UNL     1       4.747   3.201  16.251  0.00  0.00    +0.000 HD
ENDROOT
BRANCH   1   9
ATOM      3  C   UNL     1       5.671   5.447  15.209  0.00  0.00    +0.000 C 
ATOM      4  C   UNL     1       6.198   5.427  16.618  0.00  0.00    +0.000 A 
ATOM      5  C   UNL     1       7.061   6.462  17.027  0.00  0.00    +0.000 A 
ATOM      6  C   UNL     1       7.496   6.573  18.351  0.00  0.00    +0.000 A 
ATOM      7  C   UNL     1       7.148   5.568  19.251  0.00  0.00    +0.000 A 
ATOM      8  C   UNL     1       6.304   4.525  18.864  0.00  0.00    +0.000 A 
ATOM      9  C   UNL     1       5.831   4.448  17.553  0.00  0.00    +0.000 A 
BRANCH   6  10
ATOM     10  N   UNL     1       8.432   7.548  18.705  0.00  0.00    +0.000 N 
ATOM     11  H   UNL     1       8.747   7.490  19.668  0.00  0.00    +0.000 HD
ATOM     12  H   UNL     1       9.206   7.636  18.054  0.00  0.00    +0.000 HD
ENDBRANCH   6  10
ENDBRANCH   1   9
BRANCH   1  13
ATOM     13  S   UNL     1       3.645   2.996  18.257  0.00  0.00    +0.000 S 
ATOM     14  O   UNL     1       2.637   2.385  17.416  0.00  0.00    +0.000 OA
ATOM     15  O   UNL     1       4.185   2.300  19.405  0.00  0.00    +0.000 OA
BRANCH  13  16
ATOM     16  C   UNL     1       2.943   4.532  18.827  0.00  0.00    +0.000 A 
ATOM     17  C   UNL     1       2.608   4.677  20.179  0.00  0.00    +0.000 A 
ATOM     18  C   UNL     1       2.140   5.907  20.649  0.00  0.00    +0.000 A 
ATOM     19  C   UNL     1       2.032   6.991  19.774  0.00  0.00    +0.000 A 
ATOM     20 CL   UNL     1       1.477   8.509  20.362  0.00  0.00    +0.000 Cl
ATOM     21  C   UNL     1       2.388   6.853  18.432  0.00  0.00    +0.000 A 
ATOM     22  C   UNL     1       2.842   5.621  17.955  0.00  0.00    +0.000 A 
ENDBRANCH  13  16
ENDBRANCH   1  13
TORSDOF 4
ENDMDL
