MODEL 1
REMARK VINA RESULT:      -7.4      0.000      0.000
REMARK  Name = 
REMARK  8 active torsions:
REMARK  status: ('A' for Active; 'I' for Inactive)
REMARK    1  A    between atoms: C_1  and  O_2
REMARK    2  A    between atoms: O_2  and  C_3
REMARK    3  A    between atoms: C_6  and  C_7
REMARK    4  A    between atoms: N_11  and  C_12
REMARK    5  A    between atoms: C_12  and  C_13
REMARK    6  A    between atoms: C_13  and  C_14
REMARK    7  A    between atoms: C_14  and  N_15
REMARK    8  A    between atoms: C_21  and  C_23
REMARK                            x       y       z     vdW  Elec       q    Type
REMARK                         _______ _______ _______ _____ _____    ______ ____
ROOT
ATOM      1  C   UNL     1       0.471  10.084  20.003  0.00  0.00    +0.000 A 
ATOM      2  C   UNL     1       0.513  10.521  18.698  0.00  0.00    +0.000 A 
ATOM      3  S   UNL     1       1.411   9.439  17.756  0.00  0.00    +0.000 S 
ATOM      4  C   UNL     1       1.800   8.493  19.144  0.00  0.00    +0.000 A 
ATOM      5  N   UNL     1       2.623   7.348  19.049  0.00  0.00    +0.000 N 
ATOM      6  C   UNL     1       3.453   7.163  17.886  0.00  0.00    +0.000 C 
ATOM      7  O   UNL     1       3.465   7.921  16.916  0.00  0.00    +0.000 OA
ATOM      8  N   UNL     1       1.191   8.913  20.239  0.00  0.00    +0.000 NA
ENDROOT
BRANCH   1  12
ATOM      9  C   UNL     1      -2.153  11.851  22.882  0.00  0.00    +0.000 A 
ATOM     10  C   UNL     1      -1.306  10.803  23.242  0.00  0.00    +0.000 A 
ATOM     11  C   UNL     1      -0.387  10.282  22.322  0.00  0.00    +0.000 A 
ATOM     12  C   UNL     1      -0.348  10.759  21.011  0.00  0.00    +0.000 A 
ATOM     13  C   UNL     1      -1.186  11.829  20.665  0.00  0.00    +0.000 A 
ATOM     14  C   UNL     1      -2.087  12.367  21.590  0.00  0.00    +0.000 A 
BRANCH   9  16
ATOM     15  C   UNL     1      -3.077  13.681  24.049  0.00  0.00    +0.000 C 
ATOM     16  O   UNL     1      -3.025  12.271  23.850  0.00  0.00    +0.000 OA
ENDBRANCH   9  16
ENDBRANCH   1  12
BRANCH   6  17
ATOM     17  C   UNL     1       4.358   6.010  17.794  0.00  0.00    +0.000 A 
ATOM     18  C   UNL     1       4.265   4.894  16.976  0.00  0.00    +0.000 A 
ATOM     19  C   UNL     1       5.440   4.131  17.171  0.00  0.00    +0.000 A 
ATOM     20  C   UNL     1       6.199   4.833  18.072  0.00  0.00    +0.000 A 
ATOM     21  O   UNL     1       5.562   5.969  18.444  0.00  0.00    +0.000 OA
ENDBRANCH   6  17
BRANCH   5  22
ATOM     22  C   UNL     1       2.693   6.338  20.113  0.00  0.00    +0.000 C 
BRANCH  22  23
ATOM     23  C   UNL     1       1.637   5.263  20.380  0.00  0.00    +0.000 C 
BRANCH  23  24
ATOM     24  C   UNL     1       1.397   4.202  19.299  0.00  0.00    +0.000 C 
BRANCH  24  25
ATOM     25  N   UNL     1       1.524   2.855  19.898  0.00  0.00    +0.000 NA
ATOM     26  C   UNL     1       2.635   2.729  20.866  0.00  0.00    +0.000 C 
ATOM     27  C   UNL     1       4.015   2.672  20.197  0.00  0.00    +0.000 C 
ATOM     28  O   UNL     1       4.097   1.554  19.307  0.00  0.00    +0.000 OA
ATOM     29  C   UNL     1       3.082   1.637  18.299  0.00  0.00    +0.000 C 
ATOM     30  C   UNL     1       1.674   1.780  18.897  0.00  0.00    +0.000 C 
ENDBRANCH  24  25
ENDBRANCH  23  24
ENDBRANCH  22  23
ENDBRANCH   5  22
TORSDOF 7
ENDMDL
MODEL 2
REMARK VINA RESULT:      -7.1      2.753      4.376
REMARK  Name = 
REMARK  8 active torsions:
REMARK  status: ('A' for Active; 'I' for Inactive)
REMARK    1  A    between atoms: C_1  and  O_2
REMARK    2  A    between atoms: O_2  and  C_3
REMARK    3  A    between atoms: C_6  and  C_7
REMARK    4  A    between atoms: N_11  and  C_12
REMARK    5  A    between atoms: C_12  and  C_13
REMARK    6  A    between atoms: C_13  and  C_14
REMARK    7  A    between atoms: C_14  and  N_15
REMARK    8  A    between atoms: C_21  and  C_23
REMARK                            x       y       z     vdW  Elec       q    Type
REMARK                         _______ _______ _______ _____ _____    ______ ____
ROOT
ATOM      1  C   UNL     1       0.959  10.546  19.807  0.00  0.00    +0.000 A 
ATOM      2  C   UNL     1       0.754  10.083  21.088  0.00  0.00    +0.000 A 
ATOM      3  S   UNL     1       1.321   8.494  21.224  0.00  0.00    +0.000 S 
ATOM      4  C   UNL     1       1.716   8.450  19.546  0.00  0.00    +0.000 A 
ATOM      5  N   UNL     1       2.257   7.290  18.947  0.00  0.00    +0.000 N 
ATOM      6  C   UNL     1       2.139   6.020  19.619  0.00  0.00    +0.000 C 
ATOM      7  O   UNL     1       1.633   5.870  20.731  0.00  0.00    +0.000 OA
ATOM      8  N   UNL     1       1.530   9.611  18.944  0.00  0.00    +0.000 NA
ENDROOT
BRANCH   1  12
ATOM      9  C   UNL     1       0.213  14.687  19.038  0.00  0.00    +0.000 A 
ATOM     10  C   UNL     1       1.494  14.156  18.886  0.00  0.00    +0.000 A 
ATOM     11  C   UNL     1       1.720  12.783  19.055  0.00  0.00    +0.000 A 
ATOM     12  C   UNL     1       0.682  11.935  19.441  0.00  0.00    +0.000 A 
ATOM     13  C   UNL     1      -0.607  12.474  19.568  0.00  0.00    +0.000 A 
ATOM     14  C   UNL     1      -0.840  13.841  19.375  0.00  0.00    +0.000 A 
BRANCH   9  16
ATOM     15  C   UNL     1      -1.034  16.640  19.477  0.00  0.00    +0.000 C 
ATOM     16  O   UNL     1       0.107  16.041  18.870  0.00  0.00    +0.000 OA
ENDBRANCH   9  16
ENDBRANCH   1  12
BRANCH   6  17
ATOM     17  C   UNL     1       2.644   4.795  18.987  0.00  0.00    +0.000 A 
ATOM     18  C   UNL     1       2.079   4.045  17.965  0.00  0.00    +0.000 A 
ATOM     19  C   UNL     1       3.005   3.032  17.627  0.00  0.00    +0.000 A 
ATOM     20  C   UNL     1       4.095   3.231  18.436  0.00  0.00    +0.000 A 
ATOM     21  O   UNL     1       3.891   4.295  19.249  0.00  0.00    +0.000 OA
ENDBRANCH   6  17
BRANCH   5  22
ATOM     22  C   UNL     1       2.919   7.317  17.636  0.00  0.00    +0.000 C 
BRANCH  22  23
ATOM     23  C   UNL     1       4.422   7.146  17.402  0.00  0.00    +0.000 C 
BRANCH  23  24
ATOM     24  C   UNL     1       4.875   6.274  16.225  0.00  0.00    +0.000 C 
BRANCH  24  25
ATOM     25  N   UNL     1       6.327   6.458  16.009  0.00  0.00    +0.000 NA
ATOM     26  C   UNL     1       6.974   5.345  15.282  0.00  0.00    +0.000 C 
ATOM     27  C   UNL     1       7.159   4.088  16.143  0.00  0.00    +0.000 C 
ATOM     28  O   UNL     1       7.970   4.378  17.286  0.00  0.00    +0.000 OA
ATOM     29  C   UNL     1       7.374   5.413  18.078  0.00  0.00    +0.000 C 
ATOM     30  C   UNL     1       7.083   6.680  17.258  0.00  0.00    +0.000 C 
ENDBRANCH  24  25
ENDBRANCH  23  24
ENDBRANCH  22  23
ENDBRANCH   5  22
TORSDOF 7
ENDMDL
MODEL 3
REMARK VINA RESULT:      -7.1      2.732      4.202
REMARK  Name = 
REMARK  8 active torsions:
REMARK  status: ('A' for Active; 'I' for Inactive)
REMARK    1  A    between atoms: C_1  and  O_2
REMARK    2  A    between atoms: O_2  and  C_3
REMARK    3  A    between atoms: C_6  and  C_7
REMARK    4  A    between atoms: N_11  and  C_12
REMARK    5  A    between atoms: C_12  and  C_13
REMARK    6  A    between atoms: C_13  and  C_14
REMARK    7  A    between atoms: C_14  and  N_15
REMARK    8  A    between atoms: C_21  and  C_23
REMARK                            x       y       z     vdW  Elec       q    Type
REMARK                         _______ _______ _______ _____ _____    ______ ____
ROOT
ATOM      1  C   UNL     1       0.986  10.057  19.837  0.00  0.00    +0.000 A 
ATOM      2  C   UNL     1       0.830   9.715  21.162  0.00  0.00    +0.000 A 
ATOM      3  S   UNL     1       1.369   8.132  21.417  0.00  0.00    +0.000 S 
ATOM      4  C   UNL     1       1.685   7.927  19.735  0.00  0.00    +0.000 A 
ATOM      5  N   UNL     1       2.173   6.704  19.219  0.00  0.00    +0.000 N 
ATOM      6  C   UNL     1       2.059   5.504  20.008  0.00  0.00    +0.000 C 
ATOM      7  O   UNL     1       1.602   5.467  21.150  0.00  0.00    +0.000 OA
ATOM      8  N   UNL     1       1.496   9.034  19.038  0.00  0.00    +0.000 NA
ENDROOT
BRANCH   1  12
ATOM      9  C   UNL     1       0.044  14.073  18.706  0.00  0.00    +0.000 A 
ATOM     10  C   UNL     1       1.182  13.797  19.465  0.00  0.00    +0.000 A 
ATOM     11  C   UNL     1       1.535  12.474  19.762  0.00  0.00    +0.000 A 
ATOM     12  C   UNL     1       0.722  11.414  19.360  0.00  0.00    +0.000 A 
ATOM     13  C   UNL     1      -0.406  11.700  18.576  0.00  0.00    +0.000 A 
ATOM     14  C   UNL     1      -0.747  13.019  18.257  0.00  0.00    +0.000 A 
BRANCH   9  16
ATOM     15  C   UNL     1      -0.334  16.194  19.666  0.00  0.00    +0.000 C 
ATOM     16  O   UNL     1      -0.220  15.398  18.490  0.00  0.00    +0.000 OA
ENDBRANCH   9  16
ENDBRANCH   1  12
BRANCH   6  17
ATOM     17  C   UNL     1       2.508   4.214  19.468  0.00  0.00    +0.000 A 
ATOM     18  C   UNL     1       1.952   3.457  18.448  0.00  0.00    +0.000 A 
ATOM     19  C   UNL     1       2.818   2.363  18.218  0.00  0.00    +0.000 A 
ATOM     20  C   UNL     1       3.868   2.523  19.087  0.00  0.00    +0.000 A 
ATOM     21  O   UNL     1       3.695   3.640  19.835  0.00  0.00    +0.000 OA
ENDBRANCH   6  17
BRANCH   5  22
ATOM     22  C   UNL     1       2.774   6.597  17.884  0.00  0.00    +0.000 C 
BRANCH  22  23
ATOM     23  C   UNL     1       4.155   7.129  17.491  0.00  0.00    +0.000 C 
BRANCH  23  24
ATOM     24  C   UNL     1       4.797   6.593  16.206  0.00  0.00    +0.000 C 
BRANCH  24  25
ATOM     25  N   UNL     1       5.059   5.145  16.357  0.00  0.00    +0.000 NA
ATOM     26  C   UNL     1       5.945   4.809  17.492  0.00  0.00    +0.000 C 
ATOM     27  C   UNL     1       7.418   5.151  17.231  0.00  0.00    +0.000 C 
ATOM     28  O   UNL     1       7.904   4.442  16.087  0.00  0.00    +0.000 OA
ATOM     29  C   UNL     1       7.128   4.764  14.927  0.00  0.00    +0.000 C 
ATOM     30  C   UNL     1       5.626   4.523  15.143  0.00  0.00    +0.000 C 
ENDBRANCH  24  25
ENDBRANCH  23  24
ENDBRANCH  22  23
ENDBRANCH   5  22
TORSDOF 7
ENDMDL
MODEL 4
REMARK VINA RESULT:      -7.1      3.130      9.354
REMARK  Name = 
REMARK  8 active torsions:
REMARK  status: ('A' for Active; 'I' for Inactive)
REMARK    1  A    between atoms: C_1  and  O_2
REMARK    2  A    between atoms: O_2  and  C_3
REMARK    3  A    between atoms: C_6  and  C_7
REMARK    4  A    between atoms: N_11  and  C_12
REMARK    5  A    between atoms: C_12  and  C_13
REMARK    6  A    between atoms: C_13  and  C_14
REMARK    7  A    between atoms: C_14  and  N_15
REMARK    8  A    between atoms: C_21  and  C_23
REMARK                            x       y       z     vdW  Elec       q    Type
REMARK                         _______ _______ _______ _____ _____    ______ ____
ROOT
ATOM      1  C   UNL     1       3.087   6.375  18.940  0.00  0.00    +0.000 A 
ATOM      2  C   UNL     1       2.754   5.737  20.114  0.00  0.00    +0.000 A 
ATOM      3  S   UNL     1       1.709   6.709  21.024  0.00  0.00    +0.000 S 
ATOM      4  C   UNL     1       1.831   7.986  19.871  0.00  0.00    +0.000 A 
ATOM      5  N   UNL     1       1.158   9.215  20.057  0.00  0.00    +0.000 N 
ATOM      6  C   UNL     1       0.676   9.569  21.368  0.00  0.00    +0.000 C 
ATOM      7  O   UNL     1       0.761   8.842  22.357  0.00  0.00    +0.000 OA
ATOM      8  N   UNL     1       2.535   7.649  18.804  0.00  0.00    +0.000 NA
ENDROOT
BRANCH   1  12
ATOM      9  C   UNL     1       5.161   4.504  15.701  0.00  0.00    +0.000 A 
ATOM     10  C   UNL     1       5.367   5.853  15.992  0.00  0.00    +0.000 A 
ATOM     11  C   UNL     1       4.753   6.443  17.105  0.00  0.00    +0.000 A 
ATOM     12  C   UNL     1       3.875   5.709  17.903  0.00  0.00    +0.000 A 
ATOM     13  C   UNL     1       3.694   4.348  17.618  0.00  0.00    +0.000 A 
ATOM     14  C   UNL     1       4.325   3.750  16.521  0.00  0.00    +0.000 A 
BRANCH   9  16
ATOM     15  C   UNL     1       6.769   4.907  14.023  0.00  0.00    +0.000 C 
ATOM     16  O   UNL     1       5.792   4.033  14.582  0.00  0.00    +0.000 OA
ENDBRANCH   9  16
ENDBRANCH   1  12
BRANCH   6  17
ATOM     17  C   UNL     1       0.026  10.866  21.595  0.00  0.00    +0.000 A 
ATOM     18  C   UNL     1      -1.251  11.129  22.070  0.00  0.00    +0.000 A 
ATOM     19  C   UNL     1      -1.360  12.530  22.226  0.00  0.00    +0.000 A 
ATOM     20  C   UNL     1      -0.141  13.046  21.867  0.00  0.00    +0.000 A 
ATOM     21  O   UNL     1       0.702  12.053  21.496  0.00  0.00    +0.000 OA
ENDBRANCH   6  17
BRANCH   5  22
ATOM     22  C   UNL     1       0.953  10.173  18.964  0.00  0.00    +0.000 C 
BRANCH  22  23
ATOM     23  C   UNL     1      -0.161  10.093  17.917  0.00  0.00    +0.000 C 
BRANCH  23  24
ATOM     24  C   UNL     1      -1.481  10.817  18.210  0.00  0.00    +0.000 C 
BRANCH  24  25
ATOM     25  N   UNL     1      -2.610   9.982  17.745  0.00  0.00    +0.000 NA
ATOM     26  C   UNL     1      -2.546   9.625  16.311  0.00  0.00    +0.000 C 
ATOM     27  C   UNL     1      -2.895  10.795  15.382  0.00  0.00    +0.000 C 
ATOM     28  O   UNL     1      -4.221  11.266  15.644  0.00  0.00    +0.000 OA
ATOM     29  C   UNL     1      -4.347  11.688  17.008  0.00  0.00    +0.000 C 
ATOM     30  C   UNL     1      -3.932  10.590  17.999  0.00  0.00    +0.000 C 
ENDBRANCH  24  25
ENDBRANCH  23  24
ENDBRANCH  22  23
ENDBRANCH   5  22
TORSDOF 7
ENDMDL
MODEL 5
REMARK VINA RESULT:      -7.0      2.743      4.409
REMARK  Name = 
REMARK  8 active torsions:
REMARK  status: ('A' for Active; 'I' for Inactive)
REMARK    1  A    between atoms: C_1  and  O_2
REMARK    2  A    between atoms: O_2  and  C_3
REMARK    3  A    between atoms: C_6  and  C_7
REMARK    4  A    between atoms: N_11  and  C_12
REMARK    5  A    between atoms: C_12  and  C_13
REMARK    6  A    between atoms: C_13  and  C_14
REMARK    7  A    between atoms: C_14  and  N_15
REMARK    8  A    between atoms: C_21  and  C_23
REMARK                            x       y       z     vdW  Elec       q    Type
REMARK                         _______ _______ _______ _____ _____    ______ ____
ROOT
ATOM      1  C   UNL     1       0.687  10.428  20.235  0.00  0.00    +0.000 A 
ATOM      2  C   UNL     1       0.546   9.871  21.487  0.00  0.00    +0.000 A 
ATOM      3  S   UNL     1       1.245   8.330  21.515  0.00  0.00    +0.000 S 
ATOM      4  C   UNL     1       1.609   8.422  19.832  0.00  0.00    +0.000 A 
ATOM      5  N   UNL     1       2.233   7.351  19.152  0.00  0.00    +0.000 N 
ATOM      6  C   UNL     1       2.232   6.037  19.744  0.00  0.00    +0.000 C 
ATOM      7  O   UNL     1       1.762   5.777  20.852  0.00  0.00    +0.000 OA
ATOM      8  N   UNL     1       1.316   9.599  19.307  0.00  0.00    +0.000 NA
ENDROOT
BRANCH   1  12
ATOM      9  C   UNL     1      -0.171  14.531  19.385  0.00  0.00    +0.000 A 
ATOM     10  C   UNL     1      -0.159  13.581  18.363  0.00  0.00    +0.000 A 
ATOM     11  C   UNL     1       0.038  12.225  18.654  0.00  0.00    +0.000 A 
ATOM     12  C   UNL     1       0.289  11.809  19.962  0.00  0.00    +0.000 A 
ATOM     13  C   UNL     1       0.250  12.767  20.986  0.00  0.00    +0.000 A 
ATOM     14  C   UNL     1       0.029  14.120  20.700  0.00  0.00    +0.000 A 
BRANCH   9  16
ATOM     15  C   UNL     1       0.819  16.488  18.515  0.00  0.00    +0.000 C 
ATOM     16  O   UNL     1      -0.352  15.828  18.989  0.00  0.00    +0.000 OA
ENDBRANCH   9  16
ENDBRANCH   1  12
BRANCH   6  17
ATOM     17  C   UNL     1       2.824   4.900  19.029  0.00  0.00    +0.000 A 
ATOM     18  C   UNL     1       3.978   4.189  19.326  0.00  0.00    +0.000 A 
ATOM     19  C   UNL     1       4.055   3.112  18.413  0.00  0.00    +0.000 A 
ATOM     20  C   UNL     1       2.934   3.204  17.626  0.00  0.00    +0.000 A 
ATOM     21  O   UNL     1       2.184   4.270  17.996  0.00  0.00    +0.000 OA
ENDBRANCH   6  17
BRANCH   5  22
ATOM     22  C   UNL     1       2.864   7.515  17.836  0.00  0.00    +0.000 C 
BRANCH  22  23
ATOM     23  C   UNL     1       4.360   7.364  17.550  0.00  0.00    +0.000 C 
BRANCH  23  24
ATOM     24  C   UNL     1       4.793   6.351  16.483  0.00  0.00    +0.000 C 
BRANCH  24  25
ATOM     25  N   UNL     1       6.226   6.548  16.174  0.00  0.00    +0.000 NA
ATOM     26  C   UNL     1       6.811   5.485  15.328  0.00  0.00    +0.000 C 
ATOM     27  C   UNL     1       7.051   4.174  16.087  0.00  0.00    +0.000 C 
ATOM     28  O   UNL     1       7.945   4.385  17.185  0.00  0.00    +0.000 OA
ATOM     29  C   UNL     1       7.416   5.366  18.085  0.00  0.00    +0.000 C 
ATOM     30  C   UNL     1       7.072   6.685  17.376  0.00  0.00    +0.000 C 
ENDBRANCH  24  25
ENDBRANCH  23  24
ENDBRANCH  22  23
ENDBRANCH   5  22
TORSDOF 7
ENDMDL
MODEL 6
REMARK VINA RESULT:      -7.0      3.043      9.436
REMARK  Name = 
REMARK  8 active torsions:
REMARK  status: ('A' for Active; 'I' for Inactive)
REMARK    1  A    between atoms: C_1  and  O_2
REMARK    2  A    between atoms: O_2  and  C_3
REMARK    3  A    between atoms: C_6  and  C_7
REMARK    4  A    between atoms: N_11  and  C_12
REMARK    5  A    between atoms: C_12  and  C_13
REMARK    6  A    between atoms: C_13  and  C_14
REMARK    7  A    between atoms: C_14  and  N_15
REMARK    8  A    between atoms: C_21  and  C_23
REMARK                            x       y       z     vdW  Elec       q    Type
REMARK                         _______ _______ _______ _____ _____    ______ ____
ROOT
ATOM      1  C   UNL     1       2.977   6.490  18.707  0.00  0.00    +0.000 A 
ATOM      2  C   UNL     1       2.675   5.750  19.829  0.00  0.00    +0.000 A 
ATOM      3  S   UNL     1       1.656   6.637  20.848  0.00  0.00    +0.000 S 
ATOM      4  C   UNL     1       1.748   8.010  19.810  0.00  0.00    +0.000 A 
ATOM      5  N   UNL     1       1.082   9.217  20.122  0.00  0.00    +0.000 N 
ATOM      6  C   UNL     1       0.636   9.454  21.472  0.00  0.00    +0.000 C 
ATOM      7  O   UNL     1       0.746   8.642  22.390  0.00  0.00    +0.000 OA
ATOM      8  N   UNL     1       2.423   7.770  18.699  0.00  0.00    +0.000 NA
ENDROOT
BRANCH   1  12
ATOM      9  C   UNL     1       5.427   4.755  15.661  0.00  0.00    +0.000 A 
ATOM     10  C   UNL     1       4.534   3.968  16.388  0.00  0.00    +0.000 A 
ATOM     11  C   UNL     1       3.672   4.551  17.326  0.00  0.00    +0.000 A 
ATOM     12  C   UNL     1       3.736   5.919  17.594  0.00  0.00    +0.000 A 
ATOM     13  C   UNL     1       4.619   6.706  16.841  0.00  0.00    +0.000 A 
ATOM     14  C   UNL     1       5.464   6.129  15.886  0.00  0.00    +0.000 A 
BRANCH   9  16
ATOM     15  C   UNL     1       5.652   3.791  13.520  0.00  0.00    +0.000 C 
ATOM     16  O   UNL     1       6.237   4.083  14.786  0.00  0.00    +0.000 OA
ENDBRANCH   9  16
ENDBRANCH   1  12
BRANCH   6  17
ATOM     17  C   UNL     1      -0.006  10.725  21.830  0.00  0.00    +0.000 A 
ATOM     18  C   UNL     1      -1.082  10.949  22.676  0.00  0.00    +0.000 A 
ATOM     19  C   UNL     1      -1.244  12.349  22.789  0.00  0.00    +0.000 A 
ATOM     20  C   UNL     1      -0.245  12.906  22.030  0.00  0.00    +0.000 A 
ATOM     21  O   UNL     1       0.510  11.937  21.459  0.00  0.00    +0.000 OA
ENDBRANCH   6  17
BRANCH   5  22
ATOM     22  C   UNL     1       0.849  10.269  19.124  0.00  0.00    +0.000 C 
BRANCH  22  23
ATOM     23  C   UNL     1      -0.259  10.253  18.068  0.00  0.00    +0.000 C 
BRANCH  23  24
ATOM     24  C   UNL     1      -1.714  10.307  18.547  0.00  0.00    +0.000 C 
BRANCH  24  25
ATOM     25  N   UNL     1      -2.360  11.528  18.016  0.00  0.00    +0.000 NA
ATOM     26  C   UNL     1      -3.708  11.784  18.567  0.00  0.00    +0.000 C 
ATOM     27  C   UNL     1      -4.781  10.847  17.996  0.00  0.00    +0.000 C 
ATOM     28  O   UNL     1      -4.868  10.988  16.575  0.00  0.00    +0.000 OA
ATOM     29  C   UNL     1      -3.606  10.697  15.961  0.00  0.00    +0.000 C 
ATOM     30  C   UNL     1      -2.464  11.543  16.543  0.00  0.00    +0.000 C 
ENDBRANCH  24  25
ENDBRANCH  23  24
ENDBRANCH  22  23
ENDBRANCH   5  22
TORSDOF 7
ENDMDL
MODEL 7
REMARK VINA RESULT:      -7.0      3.116      9.388
REMARK  Name = 
REMARK  8 active torsions:
REMARK  status: ('A' for Active; 'I' for Inactive)
REMARK    1  A    between atoms: C_1  and  O_2
REMARK    2  A    between atoms: O_2  and  C_3
REMARK    3  A    between atoms: C_6  and  C_7
REMARK    4  A    between atoms: N_11  and  C_12
REMARK    5  A    between atoms: C_12  and  C_13
REMARK    6  A    between atoms: C_13  and  C_14
REMARK    7  A    between atoms: C_14  and  N_15
REMARK    8  A    between atoms: C_21  and  C_23
REMARK                            x       y       z     vdW  Elec       q    Type
REMARK                         _______ _______ _______ _____ _____    ______ ____
ROOT
ATOM      1  C   UNL     1       3.186   6.345  18.622  0.00  0.00    +0.000 A 
ATOM      2  C   UNL     1       2.956   5.624  19.773  0.00  0.00    +0.000 A 
ATOM      3  S   UNL     1       1.935   6.494  20.805  0.00  0.00    +0.000 S 
ATOM      4  C   UNL     1       1.930   7.840  19.728  0.00  0.00    +0.000 A 
ATOM      5  N   UNL     1       1.223   9.026  20.032  0.00  0.00    +0.000 N 
ATOM      6  C   UNL     1       0.813   9.280  21.390  0.00  0.00    +0.000 C 
ATOM      7  O   UNL     1       0.991   8.500  22.325  0.00  0.00    +0.000 OA
ATOM      8  N   UNL     1       2.576   7.599  18.600  0.00  0.00    +0.000 NA
ENDROOT
BRANCH   1  12
ATOM      9  C   UNL     1       5.616   4.667  15.528  0.00  0.00    +0.000 A 
ATOM     10  C   UNL     1       4.892   3.842  16.389  0.00  0.00    +0.000 A 
ATOM     11  C   UNL     1       4.031   4.393  17.347  0.00  0.00    +0.000 A 
ATOM     12  C   UNL     1       3.931   5.777  17.498  0.00  0.00    +0.000 A 
ATOM     13  C   UNL     1       4.643   6.598  16.612  0.00  0.00    +0.000 A 
ATOM     14  C   UNL     1       5.485   6.049  15.638  0.00  0.00    +0.000 A 
BRANCH   9  16
ATOM     15  C   UNL     1       5.833   3.644  13.413  0.00  0.00    +0.000 C 
ATOM     16  O   UNL     1       6.441   4.027  14.644  0.00  0.00    +0.000 OA
ENDBRANCH   9  16
ENDBRANCH   1  12
BRANCH   6  17
ATOM     17  C   UNL     1       0.128  10.532  21.737  0.00  0.00    +0.000 A 
ATOM     18  C   UNL     1       0.334  11.807  21.231  0.00  0.00    +0.000 A 
ATOM     19  C   UNL     1      -0.656  12.646  21.792  0.00  0.00    +0.000 A 
ATOM     20  C   UNL     1      -1.430  11.838  22.587  0.00  0.00    +0.000 A 
ATOM     21  O   UNL     1      -0.972  10.564  22.551  0.00  0.00    +0.000 OA
ENDBRANCH   6  17
BRANCH   5  22
ATOM     22  C   UNL     1       0.909  10.038  19.016  0.00  0.00    +0.000 C 
BRANCH  22  23
ATOM     23  C   UNL     1      -0.217   9.932  17.983  0.00  0.00    +0.000 C 
BRANCH  23  24
ATOM     24  C   UNL     1      -1.546  10.633  18.290  0.00  0.00    +0.000 C 
BRANCH  24  25
ATOM     25  N   UNL     1      -2.659   9.844  17.718  0.00  0.00    +0.000 NA
ATOM     26  C   UNL     1      -2.541   9.603  16.263  0.00  0.00    +0.000 C 
ATOM     27  C   UNL     1      -2.855  10.846  15.419  0.00  0.00    +0.000 C 
ATOM     28  O   UNL     1      -4.188  11.300  15.669  0.00  0.00    +0.000 OA
ATOM     29  C   UNL     1      -4.364  11.611  17.056  0.00  0.00    +0.000 C 
ATOM     30  C   UNL     1      -3.988  10.435  17.971  0.00  0.00    +0.000 C 
ENDBRANCH  24  25
ENDBRANCH  23  24
ENDBRANCH  22  23
ENDBRANCH   5  22
TORSDOF 7
ENDMDL
MODEL 8
REMARK VINA RESULT:      -7.0      0.663      1.217
REMARK  Name = 
REMARK  8 active torsions:
REMARK  status: ('A' for Active; 'I' for Inactive)
REMARK    1  A    between atoms: C_1  and  O_2
REMARK    2  A    between atoms: O_2  and  C_3
REMARK    3  A    between atoms: C_6  and  C_7
REMARK    4  A    between atoms: N_11  and  C_12
REMARK    5  A    between atoms: C_12  and  C_13
REMARK    6  A    between atoms: C_13  and  C_14
REMARK    7  A    between atoms: C_14  and  N_15
REMARK    8  A    between atoms: C_21  and  C_23
REMARK                            x       y       z     vdW  Elec       q    Type
REMARK                         _______ _______ _______ _____ _____    ______ ____
ROOT
ATOM      1  C   UNL     1       0.575   9.860  19.959  0.00  0.00    +0.000 A 
ATOM      2  C   UNL     1       0.797  10.436  18.728  0.00  0.00    +0.000 A 
ATOM      3  S   UNL     1       1.764   9.420  17.781  0.00  0.00    +0.000 S 
ATOM      4  C   UNL     1       1.940   8.307  19.087  0.00  0.00    +0.000 A 
ATOM      5  N   UNL     1       2.724   7.138  18.959  0.00  0.00    +0.000 N 
ATOM      6  C   UNL     1       3.686   7.040  17.890  0.00  0.00    +0.000 C 
ATOM      7  O   UNL     1       3.848   7.900  17.024  0.00  0.00    +0.000 OA
ATOM      8  N   UNL     1       1.214   8.634  20.142  0.00  0.00    +0.000 NA
ENDROOT
BRANCH   1  12
ATOM      9  C   UNL     1      -1.861  11.823  22.877  0.00  0.00    +0.000 A 
ATOM     10  C   UNL     1      -1.853  12.256  21.550  0.00  0.00    +0.000 A 
ATOM     11  C   UNL     1      -1.121  11.560  20.579  0.00  0.00    +0.000 A 
ATOM     12  C   UNL     1      -0.337  10.461  20.932  0.00  0.00    +0.000 A 
ATOM     13  C   UNL     1      -0.371  10.019  22.263  0.00  0.00    +0.000 A 
ATOM     14  C   UNL     1      -1.120  10.698  23.230  0.00  0.00    +0.000 A 
BRANCH   9  16
ATOM     15  C   UNL     1      -3.974  12.711  23.430  0.00  0.00    +0.000 C 
ATOM     16  O   UNL     1      -2.591  12.585  23.747  0.00  0.00    +0.000 OA
ENDBRANCH   9  16
ENDBRANCH   1  12
BRANCH   6  17
ATOM     17  C   UNL     1       4.550   5.859  17.774  0.00  0.00    +0.000 A 
ATOM     18  C   UNL     1       4.480   4.815  16.863  0.00  0.00    +0.000 A 
ATOM     19  C   UNL     1       5.605   3.989  17.084  0.00  0.00    +0.000 A 
ATOM     20  C   UNL     1       6.317   4.583  18.096  0.00  0.00    +0.000 A 
ATOM     21  O   UNL     1       5.695   5.713  18.510  0.00  0.00    +0.000 OA
ENDBRANCH   6  17
BRANCH   5  22
ATOM     22  C   UNL     1       2.620   6.014  19.899  0.00  0.00    +0.000 C 
BRANCH  22  23
ATOM     23  C   UNL     1       1.510   4.961  19.896  0.00  0.00    +0.000 C 
BRANCH  23  24
ATOM     24  C   UNL     1       1.481   3.944  18.749  0.00  0.00    +0.000 C 
BRANCH  24  25
ATOM     25  N   UNL     1       1.551   2.575  19.306  0.00  0.00    +0.000 NA
ATOM     26  C   UNL     1       1.315   2.506  20.764  0.00  0.00    +0.000 C 
ATOM     27  C   UNL     1       2.504   3.012  21.592  0.00  0.00    +0.000 C 
ATOM     28  O   UNL     1       3.676   2.240  21.313  0.00  0.00    +0.000 OA
ATOM     29  C   UNL     1       4.004   2.307  19.919  0.00  0.00    +0.000 C 
ATOM     30  C   UNL     1       2.828   1.891  19.022  0.00  0.00    +0.000 C 
ENDBRANCH  24  25
ENDBRANCH  23  24
ENDBRANCH  22  23
ENDBRANCH   5  22
TORSDOF 7
ENDMDL
MODEL 9
REMARK VINA RESULT:      -7.0      0.536      1.136
REMARK  Name = 
REMARK  8 active torsions:
REMARK  status: ('A' for Active; 'I' for Inactive)
REMARK    1  A    between atoms: C_1  and  O_2
REMARK    2  A    between atoms: O_2  and  C_3
REMARK    3  A    between atoms: C_6  and  C_7
REMARK    4  A    between atoms: N_11  and  C_12
REMARK    5  A    between atoms: C_12  and  C_13
REMARK    6  A    between atoms: C_13  and  C_14
REMARK    7  A    between atoms: C_14  and  N_15
REMARK    8  A    between atoms: C_21  and  C_23
REMARK                            x       y       z     vdW  Elec       q    Type
REMARK                         _______ _______ _______ _____ _____    ______ ____
ROOT
ATOM      1  C   UNL     1       0.436   9.862  19.908  0.00  0.00    +0.000 A 
ATOM      2  C   UNL     1       0.466  10.330  18.613  0.00  0.00    +0.000 A 
ATOM      3  S   UNL     1       1.434   9.324  17.657  0.00  0.00    +0.000 S 
ATOM      4  C   UNL     1       1.863   8.370  19.028  0.00  0.00    +0.000 A 
ATOM      5  N   UNL     1       2.752   7.276  18.917  0.00  0.00    +0.000 N 
ATOM      6  C   UNL     1       3.603   7.167  17.759  0.00  0.00    +0.000 C 
ATOM      7  O   UNL     1       3.580   7.946  16.807  0.00  0.00    +0.000 OA
ATOM      8  N   UNL     1       1.220   8.729  20.126  0.00  0.00    +0.000 NA
ENDROOT
BRANCH   1  12
ATOM      9  C   UNL     1      -1.859  11.828  22.934  0.00  0.00    +0.000 A 
ATOM     10  C   UNL     1      -1.894  12.276  21.613  0.00  0.00    +0.000 A 
ATOM     11  C   UNL     1      -1.209  11.580  20.608  0.00  0.00    +0.000 A 
ATOM     12  C   UNL     1      -0.430  10.466  20.921  0.00  0.00    +0.000 A 
ATOM     13  C   UNL     1      -0.421  10.009  22.246  0.00  0.00    +0.000 A 
ATOM     14  C   UNL     1      -1.124  10.688  23.248  0.00  0.00    +0.000 A 
BRANCH   9  16
ATOM     15  C   UNL     1      -2.962  13.869  23.365  0.00  0.00    +0.000 C 
ATOM     16  O   UNL     1      -2.545  12.592  23.840  0.00  0.00    +0.000 OA
ENDBRANCH   9  16
ENDBRANCH   1  12
BRANCH   6  17
ATOM     17  C   UNL     1       4.573   6.070  17.652  0.00  0.00    +0.000 A 
ATOM     18  C   UNL     1       5.772   5.898  18.328  0.00  0.00    +0.000 A 
ATOM     19  C   UNL     1       6.279   4.628  17.968  0.00  0.00    +0.000 A 
ATOM     20  C   UNL     1       5.353   4.080  17.116  0.00  0.00    +0.000 A 
ATOM     21  O   UNL     1       4.320   4.935  16.929  0.00  0.00    +0.000 OA
ENDBRANCH   6  17
BRANCH   5  22
ATOM     22  C   UNL     1       2.869   6.248  19.959  0.00  0.00    +0.000 C 
BRANCH  22  23
ATOM     23  C   UNL     1       1.787   5.225  20.315  0.00  0.00    +0.000 C 
BRANCH  23  24
ATOM     24  C   UNL     1       1.407   4.179  19.260  0.00  0.00    +0.000 C 
BRANCH  24  25
ATOM     25  N   UNL     1       1.521   2.827  19.848  0.00  0.00    +0.000 NA
ATOM     26  C   UNL     1       2.605   2.693  20.846  0.00  0.00    +0.000 C 
ATOM     27  C   UNL     1       4.003   2.647  20.215  0.00  0.00    +0.000 C 
ATOM     28  O   UNL     1       4.113   1.539  19.317  0.00  0.00    +0.000 OA
ATOM     29  C   UNL     1       3.127   1.629  18.281  0.00  0.00    +0.000 C 
ATOM     30  C   UNL     1       1.702   1.762  18.841  0.00  0.00    +0.000 C 
ENDBRANCH  24  25
ENDBRANCH  23  24
ENDBRANCH  22  23
ENDBRANCH   5  22
TORSDOF 7
ENDMDL
