MODEL 1
REMARK VINA RESULT:      -7.0      0.000      0.000
REMARK  Name = 
REMARK  5 active torsions:
REMARK  status: ('A' for Active; 'I' for Inactive)
REMARK    1  A    between atoms: N_1  and  C_2
REMARK    2  A    between atoms: C_2  and  C_3
REMARK    3  A    between atoms: C_6  and  C_7
REMARK    4  A    between atoms: C_10  and  O_11
REMARK    5  A    between atoms: O_11  and  C_12
REMARK                            x       y       z     vdW  Elec       q    Type
REMARK                         _______ _______ _______ _____ _____    ______ ____
ROOT
ATOM      1  C   UNL     1       3.795   6.154  17.525  0.00  0.00    +0.000 A 
ATOM      2  C   UNL     1       4.848   6.678  16.758  0.00  0.00    +0.000 A 
ATOM      3  C   UNL     1       5.648   5.854  15.959  0.00  0.00    +0.000 A 
ATOM      4  C   UNL     1       5.442   4.476  15.926  0.00  0.00    +0.000 A 
ATOM      5  C   UNL     1       4.399   3.933  16.664  0.00  0.00    +0.000 A 
ATOM      6  C   UNL     1       3.594   4.762  17.463  0.00  0.00    +0.000 A 
ENDROOT
BRANCH   1  10
ATOM      7  C   UNL     1       1.318   8.794  19.894  0.00  0.00    +0.000 A 
ATOM      8  C   UNL     1       1.720   7.551  20.389  0.00  0.00    +0.000 A 
ATOM      9  C   UNL     1       2.499   6.691  19.610  0.00  0.00    +0.000 A 
ATOM     10  C   UNL     1       2.892   7.033  18.304  0.00  0.00    +0.000 A 
ATOM     11  C   UNL     1       2.431   8.262  17.799  0.00  0.00    +0.000 A 
ATOM     12  C   UNL     1       1.661   9.135  18.582  0.00  0.00    +0.000 A 
BRANCH   7  13
ATOM     13  C   UNL     1       0.560   9.752  20.775  0.00  0.00    +0.000 C 
BRANCH  13  14
ATOM     14  N   UNL     1       1.204   9.882  22.078  0.00  0.00    +0.000 NA
ATOM     15  H   UNL     1       1.024   9.045  22.628  0.00  0.00    +0.000 HD
ATOM     16  H   UNL     1       0.774  10.659  22.580  0.00  0.00    +0.000 HD
ENDBRANCH  13  14
ENDBRANCH   7  13
ENDBRANCH   1  10
BRANCH   4  17
ATOM     17  O   UNL     1       6.271   3.799  15.084  0.00  0.00    +0.000 OA
BRANCH  17  18
ATOM     18  C   UNL     1       6.099   3.930  13.682  0.00  0.00    +0.000 C 
ATOM     19  F   UNL     1       4.846   4.259  13.302  0.00  0.00    +0.000 F 
ATOM     20  F   UNL     1       6.957   4.859  13.211  0.00  0.00    +0.000 F 
ATOM     21  F   UNL     1       6.407   2.744  13.104  0.00  0.00    +0.000 F 
ENDBRANCH  17  18
ENDBRANCH   4  17
TORSDOF 5
ENDMDL
MODEL 2
REMARK VINA RESULT:      -7.0      5.960      7.596
REMARK  Name = 
REMARK  5 active torsions:
REMARK  status: ('A' for Active; 'I' for Inactive)
REMARK    1  A    between atoms: N_1  and  C_2
REMARK    2  A    between atoms: C_2  and  C_3
REMARK    3  A    between atoms: C_6  and  C_7
REMARK    4  A    between atoms: C_10  and  O_11
REMARK    5  A    between atoms: O_11  and  C_12
REMARK                            x       y       z     vdW  Elec       q    Type
REMARK                         _______ _______ _______ _____ _____    ______ ____
ROOT
ATOM      1  C   UNL     1       4.508   3.548  17.272  0.00  0.00    +0.000 A 
ATOM      2  C   UNL     1       4.957   3.541  18.603  0.00  0.00    +0.000 A 
ATOM      3  C   UNL     1       4.132   3.112  19.648  0.00  0.00    +0.000 A 
ATOM      4  C   UNL     1       2.821   2.708  19.401  0.00  0.00    +0.000 A 
ATOM      5  C   UNL     1       2.356   2.691  18.094  0.00  0.00    +0.000 A 
ATOM      6  C   UNL     1       3.187   3.118  17.044  0.00  0.00    +0.000 A 
ENDROOT
BRANCH   1  10
ATOM      7  C   UNL     1       7.024   4.798  13.982  0.00  0.00    +0.000 A 
ATOM      8  C   UNL     1       5.824   4.123  13.750  0.00  0.00    +0.000 A 
ATOM      9  C   UNL     1       5.026   3.698  14.817  0.00  0.00    +0.000 A 
ATOM     10  C   UNL     1       5.406   3.919  16.153  0.00  0.00    +0.000 A 
ATOM     11  C   UNL     1       6.645   4.549  16.370  0.00  0.00    +0.000 A 
ATOM     12  C   UNL     1       7.441   4.990  15.303  0.00  0.00    +0.000 A 
BRANCH   7  13
ATOM     13  C   UNL     1       7.827   5.334  12.826  0.00  0.00    +0.000 C 
BRANCH  13  14
ATOM     14  N   UNL     1       8.997   6.068  13.299  0.00  0.00    +0.000 NA
ATOM     15  H   UNL     1       8.821   7.067  13.222  0.00  0.00    +0.000 HD
ATOM     16  H   UNL     1       9.784   5.861  12.685  0.00  0.00    +0.000 HD
ENDBRANCH  13  14
ENDBRANCH   7  13
ENDBRANCH   1  10
BRANCH   4  17
ATOM     17  O   UNL     1       2.142   2.286  20.503  0.00  0.00    +0.000 OA
BRANCH  17  18
ATOM     18  C   UNL     1       1.515   3.240  21.345  0.00  0.00    +0.000 C 
ATOM     19  F   UNL     1       2.370   4.057  21.995  0.00  0.00    +0.000 F 
ATOM     20  F   UNL     1       0.665   3.990  20.614  0.00  0.00    +0.000 F 
ATOM     21  F   UNL     1       0.792   2.574  22.276  0.00  0.00    +0.000 F 
ENDBRANCH  17  18
ENDBRANCH   4  17
TORSDOF 5
ENDMDL
MODEL 3
REMARK VINA RESULT:      -7.0      0.530      1.503
REMARK  Name = 
REMARK  5 active torsions:
REMARK  status: ('A' for Active; 'I' for Inactive)
REMARK    1  A    between atoms: N_1  and  C_2
REMARK    2  A    between atoms: C_2  and  C_3
REMARK    3  A    between atoms: C_6  and  C_7
REMARK    4  A    between atoms: C_10  and  O_11
REMARK    5  A    between atoms: O_11  and  C_12
REMARK                            x       y       z     vdW  Elec       q    Type
REMARK                         _______ _______ _______ _____ _____    ______ ____
ROOT
ATOM      1  C   UNL     1       3.717   5.952  17.542  0.00  0.00    +0.000 A 
ATOM      2  C   UNL     1       3.617   4.562  17.373  0.00  0.00    +0.000 A 
ATOM      3  C   UNL     1       4.463   3.871  16.498  0.00  0.00    +0.000 A 
ATOM      4  C   UNL     1       5.414   4.553  15.740  0.00  0.00    +0.000 A 
ATOM      5  C   UNL     1       5.544   5.926  15.898  0.00  0.00    +0.000 A 
ATOM      6  C   UNL     1       4.696   6.617  16.780  0.00  0.00    +0.000 A 
ENDROOT
BRANCH   1  10
ATOM      7  C   UNL     1       1.445   8.109  20.526  0.00  0.00    +0.000 A 
ATOM      8  C   UNL     1       1.825   6.780  20.735  0.00  0.00    +0.000 A 
ATOM      9  C   UNL     1       2.537   6.080  19.757  0.00  0.00    +0.000 A 
ATOM     10  C   UNL     1       2.882   6.674  18.531  0.00  0.00    +0.000 A 
ATOM     11  C   UNL     1       2.443   7.993  18.313  0.00  0.00    +0.000 A 
ATOM     12  C   UNL     1       1.741   8.705  19.296  0.00  0.00    +0.000 A 
BRANCH   7  13
ATOM     13  C   UNL     1       0.762   8.883  21.623  0.00  0.00    +0.000 C 
BRANCH  13  14
ATOM     14  N   UNL     1       1.725   9.321  22.629  0.00  0.00    +0.000 NA
ATOM     15  H   UNL     1       1.226   9.661  23.447  0.00  0.00    +0.000 HD
ATOM     16  H   UNL     1       2.250  10.112  22.257  0.00  0.00    +0.000 HD
ENDBRANCH  13  14
ENDBRANCH   7  13
ENDBRANCH   1  10
BRANCH   4  17
ATOM     17  O   UNL     1       6.190   3.755  14.955  0.00  0.00    +0.000 OA
BRANCH  17  18
ATOM     18  C   UNL     1       6.178   3.935  13.548  0.00  0.00    +0.000 C 
ATOM     19  F   UNL     1       6.995   4.913  13.104  0.00  0.00    +0.000 F 
ATOM     20  F   UNL     1       6.517   2.776  12.947  0.00  0.00    +0.000 F 
ATOM     21  F   UNL     1       4.915   4.249  13.172  0.00  0.00    +0.000 F 
ENDBRANCH  17  18
ENDBRANCH   4  17
TORSDOF 5
ENDMDL
MODEL 4
REMARK VINA RESULT:      -7.0      0.637      1.084
REMARK  Name = 
REMARK  5 active torsions:
REMARK  status: ('A' for Active; 'I' for Inactive)
REMARK    1  A    between atoms: N_1  and  C_2
REMARK    2  A    between atoms: C_2  and  C_3
REMARK    3  A    between atoms: C_6  and  C_7
REMARK    4  A    between atoms: C_10  and  O_11
REMARK    5  A    between atoms: O_11  and  C_12
REMARK                            x       y       z     vdW  Elec       q    Type
REMARK                         _______ _______ _______ _____ _____    ______ ____
ROOT
ATOM      1  C   UNL     1       3.544   6.426  17.784  0.00  0.00    +0.000 A 
ATOM      2  C   UNL     1       4.719   6.885  17.166  0.00  0.00    +0.000 A 
ATOM      3  C   UNL     1       5.543   6.022  16.437  0.00  0.00    +0.000 A 
ATOM      4  C   UNL     1       5.238   4.665  16.331  0.00  0.00    +0.000 A 
ATOM      5  C   UNL     1       4.076   4.188  16.920  0.00  0.00    +0.000 A 
ATOM      6  C   UNL     1       3.247   5.057  17.649  0.00  0.00    +0.000 A 
ENDROOT
BRANCH   1  10
ATOM      7  C   UNL     1       1.016   9.222  19.908  0.00  0.00    +0.000 A 
ATOM      8  C   UNL     1       1.470   8.054  20.525  0.00  0.00    +0.000 A 
ATOM      9  C   UNL     1       2.266   7.142  19.827  0.00  0.00    +0.000 A 
ATOM     10  C   UNL     1       2.624   7.354  18.484  0.00  0.00    +0.000 A 
ATOM     11  C   UNL     1       2.112   8.505  17.860  0.00  0.00    +0.000 A 
ATOM     12  C   UNL     1       1.325   9.431  18.560  0.00  0.00    +0.000 A 
BRANCH   7  13
ATOM     13  C   UNL     1       0.239  10.243  20.697  0.00  0.00    +0.000 C 
BRANCH  13  14
ATOM     14  N   UNL     1       1.112  11.320  21.157  0.00  0.00    +0.000 NA
ATOM     15  H   UNL     1       1.588  11.027  22.006  0.00  0.00    +0.000 HD
ATOM     16  H   UNL     1       0.536  12.123  21.407  0.00  0.00    +0.000 HD
ENDBRANCH  13  14
ENDBRANCH   7  13
ENDBRANCH   1  10
BRANCH   4  17
ATOM     17  O   UNL     1       6.108   3.948  15.567  0.00  0.00    +0.000 OA
BRANCH  17  18
ATOM     18  C   UNL     1       6.112   4.126  14.160  0.00  0.00    +0.000 C 
ATOM     19  F   UNL     1       6.501   3.038  13.462  0.00  0.00    +0.000 F 
ATOM     20  F   UNL     1       4.879   4.489  13.751  0.00  0.00    +0.000 F 
ATOM     21  F   UNL     1       6.967   5.134  13.862  0.00  0.00    +0.000 F 
ENDBRANCH  17  18
ENDBRANCH   4  17
TORSDOF 5
ENDMDL
MODEL 5
REMARK VINA RESULT:      -6.9      5.904      7.532
REMARK  Name = 
REMARK  5 active torsions:
REMARK  status: ('A' for Active; 'I' for Inactive)
REMARK    1  A    between atoms: N_1  and  C_2
REMARK    2  A    between atoms: C_2  and  C_3
REMARK    3  A    between atoms: C_6  and  C_7
REMARK    4  A    between atoms: C_10  and  O_11
REMARK    5  A    between atoms: O_11  and  C_12
REMARK                            x       y       z     vdW  Elec       q    Type
REMARK                         _______ _______ _______ _____ _____    ______ ____
ROOT
ATOM      1  C   UNL     1       4.438   3.704  17.268  0.00  0.00    +0.000 A 
ATOM      2  C   UNL     1       4.922   3.791  18.583  0.00  0.00    +0.000 A 
ATOM      3  C   UNL     1       4.186   3.296  19.665  0.00  0.00    +0.000 A 
ATOM      4  C   UNL     1       2.927   2.728  19.470  0.00  0.00    +0.000 A 
ATOM      5  C   UNL     1       2.431   2.616  18.179  0.00  0.00    +0.000 A 
ATOM      6  C   UNL     1       3.174   3.110  17.093  0.00  0.00    +0.000 A 
ENDROOT
BRANCH   1  10
ATOM      7  C   UNL     1       6.954   4.869  13.946  0.00  0.00    +0.000 A 
ATOM      8  C   UNL     1       7.138   5.425  15.215  0.00  0.00    +0.000 A 
ATOM      9  C   UNL     1       6.306   5.064  16.279  0.00  0.00    +0.000 A 
ATOM     10  C   UNL     1       5.252   4.148  16.112  0.00  0.00    +0.000 A 
ATOM     11  C   UNL     1       5.045   3.641  14.816  0.00  0.00    +0.000 A 
ATOM     12  C   UNL     1       5.885   3.989  13.749  0.00  0.00    +0.000 A 
BRANCH   7  13
ATOM     13  C   UNL     1       7.914   5.192  12.831  0.00  0.00    +0.000 C 
BRANCH  13  14
ATOM     14  N   UNL     1       9.026   6.001  13.320  0.00  0.00    +0.000 NA
ATOM     15  H   UNL     1       9.513   6.417  12.529  0.00  0.00    +0.000 HD
ATOM     16  H   UNL     1       9.696   5.388  13.785  0.00  0.00    +0.000 HD
ENDBRANCH  13  14
ENDBRANCH   7  13
ENDBRANCH   1  10
BRANCH   4  17
ATOM     17  O   UNL     1       2.336   2.259  20.604  0.00  0.00    +0.000 OA
BRANCH  17  18
ATOM     18  C   UNL     1       1.568   3.141  21.406  0.00  0.00    +0.000 C 
ATOM     19  F   UNL     1       0.784   2.525  22.316  0.00  0.00    +0.000 F 
ATOM     20  F   UNL     1       2.392   3.996  22.047  0.00  0.00    +0.000 F 
ATOM     21  F   UNL     1       0.764   3.865  20.591  0.00  0.00    +0.000 F 
ENDBRANCH  17  18
ENDBRANCH   4  17
TORSDOF 5
ENDMDL
MODEL 6
REMARK VINA RESULT:      -6.9      0.329      1.149
REMARK  Name = 
REMARK  5 active torsions:
REMARK  status: ('A' for Active; 'I' for Inactive)
REMARK    1  A    between atoms: N_1  and  C_2
REMARK    2  A    between atoms: C_2  and  C_3
REMARK    3  A    between atoms: C_6  and  C_7
REMARK    4  A    between atoms: C_10  and  O_11
REMARK    5  A    between atoms: O_11  and  C_12
REMARK                            x       y       z     vdW  Elec       q    Type
REMARK                         _______ _______ _______ _____ _____    ______ ____
ROOT
ATOM      1  C   UNL     1       3.769   6.254  17.592  0.00  0.00    +0.000 A 
ATOM      2  C   UNL     1       4.821   6.691  16.771  0.00  0.00    +0.000 A 
ATOM      3  C   UNL     1       5.553   5.795  15.986  0.00  0.00    +0.000 A 
ATOM      4  C   UNL     1       5.280   4.428  16.021  0.00  0.00    +0.000 A 
ATOM      5  C   UNL     1       4.237   3.970  16.814  0.00  0.00    +0.000 A 
ATOM      6  C   UNL     1       3.500   4.872  17.599  0.00  0.00    +0.000 A 
ENDROOT
BRANCH   1  10
ATOM      7  C   UNL     1       1.175   8.971  19.739  0.00  0.00    +0.000 A 
ATOM      8  C   UNL     1       1.639   9.283  18.458  0.00  0.00    +0.000 A 
ATOM      9  C   UNL     1       2.497   8.413  17.779  0.00  0.00    +0.000 A 
ATOM     10  C   UNL     1       2.936   7.210  18.359  0.00  0.00    +0.000 A 
ATOM     11  C   UNL     1       2.507   6.938  19.670  0.00  0.00    +0.000 A 
ATOM     12  C   UNL     1       1.634   7.800  20.350  0.00  0.00    +0.000 A 
BRANCH   7  13
ATOM     13  C   UNL     1       0.177   9.868  20.422  0.00  0.00    +0.000 C 
BRANCH  13  14
ATOM     14  N   UNL     1       0.815  10.651  21.476  0.00  0.00    +0.000 NA
ATOM     15  H   UNL     1       1.821  10.501  21.444  0.00  0.00    +0.000 HD
ATOM     16  H   UNL     1       0.497  10.304  22.380  0.00  0.00    +0.000 HD
ENDBRANCH  13  14
ENDBRANCH   7  13
ENDBRANCH   1  10
BRANCH   4  17
ATOM     17  O   UNL     1       6.047   3.676  15.184  0.00  0.00    +0.000 OA
BRANCH  17  18
ATOM     18  C   UNL     1       6.005   3.921  13.788  0.00  0.00    +0.000 C 
ATOM     19  F   UNL     1       4.777   4.218  13.312  0.00  0.00    +0.000 F 
ATOM     20  F   UNL     1       6.847   4.931  13.486  0.00  0.00    +0.000 F 
ATOM     21  F   UNL     1       6.438   2.809  13.148  0.00  0.00    +0.000 F 
ENDBRANCH  17  18
ENDBRANCH   4  17
TORSDOF 5
ENDMDL
MODEL 7
REMARK VINA RESULT:      -6.9      1.033      1.434
REMARK  Name = 
REMARK  5 active torsions:
REMARK  status: ('A' for Active; 'I' for Inactive)
REMARK    1  A    between atoms: N_1  and  C_2
REMARK    2  A    between atoms: C_2  and  C_3
REMARK    3  A    between atoms: C_6  and  C_7
REMARK    4  A    between atoms: C_10  and  O_11
REMARK    5  A    between atoms: O_11  and  C_12
REMARK                            x       y       z     vdW  Elec       q    Type
REMARK                         _______ _______ _______ _____ _____    ______ ____
ROOT
ATOM      1  C   UNL     1       4.259   5.493  17.106  0.00  0.00    +0.000 A 
ATOM      2  C   UNL     1       4.970   6.276  16.182  0.00  0.00    +0.000 A 
ATOM      3  C   UNL     1       5.761   5.691  15.187  0.00  0.00    +0.000 A 
ATOM      4  C   UNL     1       5.894   4.306  15.105  0.00  0.00    +0.000 A 
ATOM      5  C   UNL     1       5.191   3.508  15.997  0.00  0.00    +0.000 A 
ATOM      6  C   UNL     1       4.394   4.096  16.992  0.00  0.00    +0.000 A 
ENDROOT
BRANCH   1  10
ATOM      7  C   UNL     1       1.770   7.313  20.141  0.00  0.00    +0.000 A 
ATOM      8  C   UNL     1       2.116   5.962  20.213  0.00  0.00    +0.000 A 
ATOM      9  C   UNL     1       2.900   5.372  19.216  0.00  0.00    +0.000 A 
ATOM     10  C   UNL     1       3.352   6.105  18.105  0.00  0.00    +0.000 A 
ATOM     11  C   UNL     1       2.948   7.450  18.018  0.00  0.00    +0.000 A 
ATOM     12  C   UNL     1       2.174   8.050  19.023  0.00  0.00    +0.000 A 
BRANCH   7  13
ATOM     13  C   UNL     1       1.007   7.961  21.266  0.00  0.00    +0.000 C 
BRANCH  13  14
ATOM     14  N   UNL     1       1.868   8.855  22.033  0.00  0.00    +0.000 NA
ATOM     15  H   UNL     1       2.219   8.364  22.852  0.00  0.00    +0.000 HD
ATOM     16  H   UNL     1       1.307   9.634  22.379  0.00  0.00    +0.000 HD
ENDBRANCH  13  14
ENDBRANCH   7  13
ENDBRANCH   1  10
BRANCH   4  17
ATOM     17  O   UNL     1       6.667   3.872  14.071  0.00  0.00    +0.000 OA
BRANCH  17  18
ATOM     18  C   UNL     1       6.068   3.614  12.812  0.00  0.00    +0.000 C 
ATOM     19  F   UNL     1       6.059   2.312  12.456  0.00  0.00    +0.000 F 
ATOM     20  F   UNL     1       4.800   4.074  12.817  0.00  0.00    +0.000 F 
ATOM     21  F   UNL     1       6.758   4.295  11.866  0.00  0.00    +0.000 F 
ENDBRANCH  17  18
ENDBRANCH   4  17
TORSDOF 5
ENDMDL
MODEL 8
REMARK VINA RESULT:      -6.9      5.575      7.617
REMARK  Name = 
REMARK  5 active torsions:
REMARK  status: ('A' for Active; 'I' for Inactive)
REMARK    1  A    between atoms: N_1  and  C_2
REMARK    2  A    between atoms: C_2  and  C_3
REMARK    3  A    between atoms: C_6  and  C_7
REMARK    4  A    between atoms: C_10  and  O_11
REMARK    5  A    between atoms: O_11  and  C_12
REMARK                            x       y       z     vdW  Elec       q    Type
REMARK                         _______ _______ _______ _____ _____    ______ ____
ROOT
ATOM      1  C   UNL     1       4.271   3.835  17.242  0.00  0.00    +0.000 A 
ATOM      2  C   UNL     1       4.092   2.544  17.764  0.00  0.00    +0.000 A 
ATOM      3  C   UNL     1       3.127   2.281  18.742  0.00  0.00    +0.000 A 
ATOM      4  C   UNL     1       2.334   3.307  19.255  0.00  0.00    +0.000 A 
ATOM      5  C   UNL     1       2.481   4.590  18.747  0.00  0.00    +0.000 A 
ATOM      6  C   UNL     1       3.447   4.851  17.761  0.00  0.00    +0.000 A 
ENDROOT
BRANCH   1  10
ATOM      7  C   UNL     1       6.965   4.771  13.988  0.00  0.00    +0.000 A 
ATOM      8  C   UNL     1       5.797   4.038  13.764  0.00  0.00    +0.000 A 
ATOM      9  C   UNL     1       4.942   3.716  14.822  0.00  0.00    +0.000 A 
ATOM     10  C   UNL     1       5.230   4.101  16.144  0.00  0.00    +0.000 A 
ATOM     11  C   UNL     1       6.438   4.788  16.361  0.00  0.00    +0.000 A 
ATOM     12  C   UNL     1       7.292   5.125  15.300  0.00  0.00    +0.000 A 
BRANCH   7  13
ATOM     13  C   UNL     1       7.828   5.192  12.828  0.00  0.00    +0.000 C 
BRANCH  13  14
ATOM     14  N   UNL     1       8.954   6.001  13.284  0.00  0.00    +0.000 NA
ATOM     15  H   UNL     1       9.806   5.448  13.240  0.00  0.00    +0.000 HD
ATOM     16  H   UNL     1       8.810   6.239  14.266  0.00  0.00    +0.000 HD
ENDBRANCH  13  14
ENDBRANCH   7  13
ENDBRANCH   1  10
BRANCH   4  17
ATOM     17  O   UNL     1       1.417   2.905  20.178  0.00  0.00    +0.000 OA
BRANCH  17  18
ATOM     18  C   UNL     1       1.742   2.964  21.557  0.00  0.00    +0.000 C 
ATOM     19  F   UNL     1       0.761   2.536  22.380  0.00  0.00    +0.000 F 
ATOM     20  F   UNL     1       2.853   2.233  21.786  0.00  0.00    +0.000 F 
ATOM     21  F   UNL     1       2.015   4.252  21.875  0.00  0.00    +0.000 F 
ENDBRANCH  17  18
ENDBRANCH   4  17
TORSDOF 5
ENDMDL
MODEL 9
REMARK VINA RESULT:      -6.8      5.477      7.494
REMARK  Name = 
REMARK  5 active torsions:
REMARK  status: ('A' for Active; 'I' for Inactive)
REMARK    1  A    between atoms: N_1  and  C_2
REMARK    2  A    between atoms: C_2  and  C_3
REMARK    3  A    between atoms: C_6  and  C_7
REMARK    4  A    between atoms: C_10  and  O_11
REMARK    5  A    between atoms: O_11  and  C_12
REMARK                            x       y       z     vdW  Elec       q    Type
REMARK                         _______ _______ _______ _____ _____    ______ ____
ROOT
ATOM      1  C   UNL     1       4.098   4.302  17.226  0.00  0.00    +0.000 A 
ATOM      2  C   UNL     1       4.265   4.935  18.468  0.00  0.00    +0.000 A 
ATOM      3  C   UNL     1       3.341   4.761  19.504  0.00  0.00    +0.000 A 
ATOM      4  C   UNL     1       2.204   3.975  19.321  0.00  0.00    +0.000 A 
ATOM      5  C   UNL     1       2.022   3.327  18.107  0.00  0.00    +0.000 A 
ATOM      6  C   UNL     1       2.953   3.499  17.069  0.00  0.00    +0.000 A 
ENDROOT
BRANCH   1  10
ATOM      7  C   UNL     1       6.981   4.792  14.037  0.00  0.00    +0.000 A 
ATOM      8  C   UNL     1       5.778   4.115  13.819  0.00  0.00    +0.000 A 
ATOM      9  C   UNL     1       4.861   3.938  14.859  0.00  0.00    +0.000 A 
ATOM     10  C   UNL     1       5.118   4.414  16.156  0.00  0.00    +0.000 A 
ATOM     11  C   UNL     1       6.358   5.042  16.373  0.00  0.00    +0.000 A 
ATOM     12  C   UNL     1       7.275   5.235  15.329  0.00  0.00    +0.000 A 
BRANCH   7  13
ATOM     13  C   UNL     1       7.917   5.060  12.888  0.00  0.00    +0.000 C 
BRANCH  13  14
ATOM     14  N   UNL     1       8.922   6.053  13.256  0.00  0.00    +0.000 NA
ATOM     15  H   UNL     1       9.820   5.785  12.861  0.00  0.00    +0.000 HD
ATOM     16  H   UNL     1       9.034   6.045  14.270  0.00  0.00    +0.000 HD
ENDBRANCH  13  14
ENDBRANCH   7  13
ENDBRANCH   1  10
BRANCH   4  17
ATOM     17  O   UNL     1       1.408   3.867  20.420  0.00  0.00    +0.000 OA
BRANCH  17  18
ATOM     18  C   UNL     1       1.864   3.131  21.543  0.00  0.00    +0.000 C 
ATOM     19  F   UNL     1       2.779   2.181  21.253  0.00  0.00    +0.000 F 
ATOM     20  F   UNL     1       2.390   3.980  22.450  0.00  0.00    +0.000 F 
ATOM     21  F   UNL     1       0.798   2.518  22.111  0.00  0.00    +0.000 F 
ENDBRANCH  17  18
ENDBRANCH   4  17
TORSDOF 5
ENDMDL
