MODEL 1
REMARK VINA RESULT:      -7.8      0.000      0.000
REMARK  Name = 
REMARK  10 active torsions:
REMARK  status: ('A' for Active; 'I' for Inactive)
REMARK    1  A    between atoms: C_1  and  C_2
REMARK    2  A    between atoms: C_5  and  C_6
REMARK    3  A    between atoms: C_7  and  C_8
REMARK    4  A    between atoms: C_10  and  C_11
REMARK    5  A    between atoms: N_13  and  C_14
REMARK    6  A    between atoms: C_14  and  C_15
REMARK    7  A    between atoms: C_14  and  C_21
REMARK    8  A    between atoms: N_17  and  C_18
REMARK    9  A    between atoms: C_21  and  C_22
REMARK   10  A    between atoms: C_21  and  C_23
REMARK                            x       y       z     vdW  Elec       q    Type
REMARK                         _______ _______ _______ _____ _____    ______ ____
ROOT
ATOM      1  C   UNL     1       0.745   9.816  19.968  0.00  0.00    +0.000 C 
ATOM      2  O   UNL     1      -0.033   9.955  20.907  0.00  0.00    +0.000 OA
ATOM      3  N   UNL     1       0.963  10.815  19.034  0.00  0.00    +0.000 N 
ATOM      4  H   UNL     1       1.632  10.638  18.290  0.00  0.00    +0.000 HD
ENDROOT
BRANCH   1   7
ATOM      5  C   UNL     1       2.674   6.945  18.824  0.00  0.00    +0.000 A 
ATOM      6  C   UNL     1       2.106   8.165  18.545  0.00  0.00    +0.000 A 
ATOM      7  C   UNL     1       1.459   8.558  19.744  0.00  0.00    +0.000 A 
ATOM      8  N   UNL     1       1.609   7.621  20.696  0.00  0.00    +0.000 NA
ATOM      9  O   UNL     1       2.361   6.609  20.108  0.00  0.00    +0.000 OA
BRANCH   5  16
ATOM     10  C   UNL     1       7.039   5.878  16.684  0.00  0.00    +0.000 C 
ATOM     11  C   UNL     1       5.633   5.468  17.007  0.00  0.00    +0.000 A 
ATOM     12  C   UNL     1       5.125   4.245  16.572  0.00  0.00    +0.000 A 
ATOM     13  C   UNL     1       3.807   3.891  16.862  0.00  0.00    +0.000 A 
ATOM     14  C   UNL     1       2.963   4.750  17.591  0.00  0.00    +0.000 A 
ATOM     15  C   UNL     1       1.558   4.288  17.874  0.00  0.00    +0.000 C 
ATOM     16  C   UNL     1       3.461   5.993  18.039  0.00  0.00    +0.000 A 
ATOM     17  C   UNL     1       4.801   6.324  17.744  0.00  0.00    +0.000 A 
ENDBRANCH   5  16
ENDBRANCH   1   7
BRANCH   3  18
ATOM     18  C   UNL     1       0.253  12.099  19.132  0.00  0.00    +0.000 C 
BRANCH  18  19
ATOM     19  C   UNL     1      -1.224  12.002  18.663  0.00  0.00    +0.000 C 
ATOM     20  O   UNL     1      -2.148  12.494  19.312  0.00  0.00    +0.000 OA
ATOM     21  N   UNL     1      -1.392  11.425  17.418  0.00  0.00    +0.000 N 
ATOM     22  H   UNL     1      -0.590  10.955  17.017  0.00  0.00    +0.000 HD
BRANCH  21  23
ATOM     23  C   UNL     1      -2.675  11.196  16.839  0.00  0.00    +0.000 C 
ATOM     24  C   UNL     1      -2.824  10.781  15.403  0.00  0.00    +0.000 C 
ATOM     25  C   UNL     1      -3.101   9.794  16.497  0.00  0.00    +0.000 C 
ENDBRANCH  21  23
ENDBRANCH  18  19
BRANCH  18  26
ATOM     26  C   UNL     1       0.968  13.267  18.408  0.00  0.00    +0.000 C 
ATOM     27  C   UNL     1       0.776  14.597  19.141  0.00  0.00    +0.000 C 
ATOM     28  C   UNL     1       2.456  13.016  18.154  0.00  0.00    +0.000 C 
ENDBRANCH  18  26
ENDBRANCH   3  18
TORSDOF 6
ENDMDL
MODEL 2
REMARK VINA RESULT:      -7.7      2.234      8.423
REMARK  Name = 
REMARK  10 active torsions:
REMARK  status: ('A' for Active; 'I' for Inactive)
REMARK    1  A    between atoms: C_1  and  C_2
REMARK    2  A    between atoms: C_5  and  C_6
REMARK    3  A    between atoms: C_7  and  C_8
REMARK    4  A    between atoms: C_10  and  C_11
REMARK    5  A    between atoms: N_13  and  C_14
REMARK    6  A    between atoms: C_14  and  C_15
REMARK    7  A    between atoms: C_14  and  C_21
REMARK    8  A    between atoms: N_17  and  C_18
REMARK    9  A    between atoms: C_21  and  C_22
REMARK   10  A    between atoms: C_21  and  C_23
REMARK                            x       y       z     vdW  Elec       q    Type
REMARK                         _______ _______ _______ _____ _____    ______ ____
ROOT
ATOM      1  C   UNL     1       3.067   6.337  18.492  0.00  0.00    +0.000 C 
ATOM      2  O   UNL     1       3.540   6.238  17.364  0.00  0.00    +0.000 OA
ATOM      3  N   UNL     1       3.131   5.304  19.413  0.00  0.00    +0.000 N 
ATOM      4  H   UNL     1       2.732   5.459  20.335  0.00  0.00    +0.000 HD
ENDROOT
BRANCH   1   7
ATOM      5  C   UNL     1       1.332   9.511  18.929  0.00  0.00    +0.000 A 
ATOM      6  C   UNL     1       2.041   8.662  18.113  0.00  0.00    +0.000 A 
ATOM      7  C   UNL     1       2.355   7.541  18.922  0.00  0.00    +0.000 A 
ATOM      8  N   UNL     1       1.879   7.705  20.168  0.00  0.00    +0.000 NA
ATOM      9  O   UNL     1       1.250   8.945  20.167  0.00  0.00    +0.000 OA
BRANCH   5  16
ATOM     10  C   UNL     1       2.007  14.438  18.750  0.00  0.00    +0.000 C 
ATOM     11  C   UNL     1       1.082  13.263  18.627  0.00  0.00    +0.000 A 
ATOM     12  C   UNL     1      -0.270  13.442  18.346  0.00  0.00    +0.000 A 
ATOM     13  C   UNL     1      -1.120  12.339  18.258  0.00  0.00    +0.000 A 
ATOM     14  C   UNL     1      -0.639  11.029  18.451  0.00  0.00    +0.000 A 
ATOM     15  C   UNL     1      -1.617   9.891  18.325  0.00  0.00    +0.000 C 
ATOM     16  C   UNL     1       0.729  10.830  18.737  0.00  0.00    +0.000 A 
ATOM     17  C   UNL     1       1.571  11.960  18.809  0.00  0.00    +0.000 A 
ENDBRANCH   5  16
ENDBRANCH   1   7
BRANCH   3  18
ATOM     18  C   UNL     1       3.773   4.029  19.064  0.00  0.00    +0.000 C 
BRANCH  18  19
ATOM     19  C   UNL     1       5.148   4.223  18.370  0.00  0.00    +0.000 C 
ATOM     20  O   UNL     1       6.169   4.490  19.007  0.00  0.00    +0.000 OA
ATOM     21  N   UNL     1       5.147   3.960  17.013  0.00  0.00    +0.000 N 
ATOM     22  H   UNL     1       4.245   3.858  16.566  0.00  0.00    +0.000 HD
BRANCH  21  23
ATOM     23  C   UNL     1       6.299   4.136  16.191  0.00  0.00    +0.000 C 
ATOM     24  C   UNL     1       6.258   3.853  14.715  0.00  0.00    +0.000 C 
ATOM     25  C   UNL     1       6.344   5.269  15.201  0.00  0.00    +0.000 C 
ENDBRANCH  21  23
ENDBRANCH  18  19
BRANCH  18  26
ATOM     26  C   UNL     1       2.878   3.086  18.222  0.00  0.00    +0.000 C 
ATOM     27  C   UNL     1       3.210   1.612  18.468  0.00  0.00    +0.000 C 
ATOM     28  C   UNL     1       1.379   3.327  18.412  0.00  0.00    +0.000 C 
ENDBRANCH  18  26
ENDBRANCH   3  18
TORSDOF 6
ENDMDL
MODEL 3
REMARK VINA RESULT:      -7.6      2.323      8.471
REMARK  Name = 
REMARK  10 active torsions:
REMARK  status: ('A' for Active; 'I' for Inactive)
REMARK    1  A    between atoms: C_1  and  C_2
REMARK    2  A    between atoms: C_5  and  C_6
REMARK    3  A    between atoms: C_7  and  C_8
REMARK    4  A    between atoms: C_10  and  C_11
REMARK    5  A    between atoms: N_13  and  C_14
REMARK    6  A    between atoms: C_14  and  C_15
REMARK    7  A    between atoms: C_14  and  C_21
REMARK    8  A    between atoms: N_17  and  C_18
REMARK    9  A    between atoms: C_21  and  C_22
REMARK   10  A    between atoms: C_21  and  C_23
REMARK                            x       y       z     vdW  Elec       q    Type
REMARK                         _______ _______ _______ _____ _____    ______ ____
ROOT
ATOM      1  C   UNL     1       2.046   7.034  19.745  0.00  0.00    +0.000 C 
ATOM      2  O   UNL     1       1.554   6.776  20.839  0.00  0.00    +0.000 OA
ATOM      3  N   UNL     1       2.833   6.128  19.055  0.00  0.00    +0.000 N 
ATOM      4  H   UNL     1       3.196   6.402  18.146  0.00  0.00    +0.000 HD
ENDROOT
BRANCH   1   7
ATOM      5  C   UNL     1       1.415  10.491  18.781  0.00  0.00    +0.000 A 
ATOM      6  C   UNL     1       1.328   9.502  19.732  0.00  0.00    +0.000 A 
ATOM      7  C   UNL     1       1.873   8.345  19.117  0.00  0.00    +0.000 A 
ATOM      8  N   UNL     1       2.256   8.611  17.857  0.00  0.00    +0.000 NA
ATOM      9  O   UNL     1       1.954   9.953  17.650  0.00  0.00    +0.000 OA
BRANCH   5  16
ATOM     10  C   UNL     1       2.881  15.244  18.944  0.00  0.00    +0.000 C 
ATOM     11  C   UNL     1       1.768  14.247  18.808  0.00  0.00    +0.000 A 
ATOM     12  C   UNL     1       0.447  14.664  18.665  0.00  0.00    +0.000 A 
ATOM     13  C   UNL     1      -0.578  13.722  18.564  0.00  0.00    +0.000 A 
ATOM     14  C   UNL     1      -0.308  12.340  18.606  0.00  0.00    +0.000 A 
ATOM     15  C   UNL     1      -1.467  11.389  18.476  0.00  0.00    +0.000 C 
ATOM     16  C   UNL     1       1.026  11.901  18.751  0.00  0.00    +0.000 A 
ATOM     17  C   UNL     1       2.047  12.872  18.840  0.00  0.00    +0.000 A 
ENDBRANCH   5  16
ENDBRANCH   1   7
BRANCH   3  18
ATOM     18  C   UNL     1       3.118   4.801  19.621  0.00  0.00    +0.000 C 
BRANCH  18  19
ATOM     19  C   UNL     1       4.613   4.403  19.485  0.00  0.00    +0.000 C 
ATOM     20  O   UNL     1       4.982   3.228  19.521  0.00  0.00    +0.000 OA
ATOM     21  N   UNL     1       5.463   5.459  19.210  0.00  0.00    +0.000 N 
ATOM     22  H   UNL     1       5.084   6.392  19.311  0.00  0.00    +0.000 HD
BRANCH  21  23
ATOM     23  C   UNL     1       6.877   5.305  19.106  0.00  0.00    +0.000 C 
ATOM     24  C   UNL     1       7.532   4.948  17.801  0.00  0.00    +0.000 C 
ATOM     25  C   UNL     1       7.687   6.331  18.360  0.00  0.00    +0.000 C 
ENDBRANCH  21  23
ENDBRANCH  18  19
BRANCH  18  26
ATOM     26  C   UNL     1       2.213   3.674  19.064  0.00  0.00    +0.000 C 
ATOM     27  C   UNL     1       1.079   3.323  20.030  0.00  0.00    +0.000 C 
ATOM     28  C   UNL     1       1.648   3.968  17.673  0.00  0.00    +0.000 C 
ENDBRANCH  18  26
ENDBRANCH   3  18
TORSDOF 6
ENDMDL
MODEL 4
REMARK VINA RESULT:      -7.5      2.329      8.157
REMARK  Name = 
REMARK  10 active torsions:
REMARK  status: ('A' for Active; 'I' for Inactive)
REMARK    1  A    between atoms: C_1  and  C_2
REMARK    2  A    between atoms: C_5  and  C_6
REMARK    3  A    between atoms: C_7  and  C_8
REMARK    4  A    between atoms: C_10  and  C_11
REMARK    5  A    between atoms: N_13  and  C_14
REMARK    6  A    between atoms: C_14  and  C_15
REMARK    7  A    between atoms: C_14  and  C_21
REMARK    8  A    between atoms: N_17  and  C_18
REMARK    9  A    between atoms: C_21  and  C_22
REMARK   10  A    between atoms: C_21  and  C_23
REMARK                            x       y       z     vdW  Elec       q    Type
REMARK                         _______ _______ _______ _____ _____    ______ ____
ROOT
ATOM      1  C   UNL     1       2.818   6.292  18.280  0.00  0.00    +0.000 C 
ATOM      2  O   UNL     1       2.128   5.490  17.658  0.00  0.00    +0.000 OA
ATOM      3  N   UNL     1       4.137   6.032  18.612  0.00  0.00    +0.000 N 
ATOM      4  H   UNL     1       4.654   6.746  19.116  0.00  0.00    +0.000 HD
ENDROOT
BRANCH   1   7
ATOM      5  C   UNL     1       1.422   9.611  18.836  0.00  0.00    +0.000 A 
ATOM      6  C   UNL     1       1.942   8.687  17.962  0.00  0.00    +0.000 A 
ATOM      7  C   UNL     1       2.271   7.563  18.760  0.00  0.00    +0.000 A 
ATOM      8  N   UNL     1       1.983   7.794  20.052  0.00  0.00    +0.000 NA
ATOM      9  O   UNL     1       1.463   9.084  20.093  0.00  0.00    +0.000 OA
BRANCH   5  16
ATOM     10  C   UNL     1       2.454  14.471  18.542  0.00  0.00    +0.000 C 
ATOM     11  C   UNL     1       1.435  13.370  18.512  0.00  0.00    +0.000 A 
ATOM     12  C   UNL     1       0.081  13.652  18.346  0.00  0.00    +0.000 A 
ATOM     13  C   UNL     1      -0.855  12.617  18.345  0.00  0.00    +0.000 A 
ATOM     14  C   UNL     1      -0.462  11.275  18.511  0.00  0.00    +0.000 A 
ATOM     15  C   UNL     1      -1.531  10.216  18.483  0.00  0.00    +0.000 C 
ATOM     16  C   UNL     1       0.907  10.972  18.680  0.00  0.00    +0.000 A 
ATOM     17  C   UNL     1       1.836  12.035  18.667  0.00  0.00    +0.000 A 
ENDBRANCH   5  16
ENDBRANCH   1   7
BRANCH   3  18
ATOM     18  C   UNL     1       4.768   4.761  18.228  0.00  0.00    +0.000 C 
BRANCH  18  19
ATOM     19  C   UNL     1       4.394   3.596  19.185  0.00  0.00    +0.000 C 
ATOM     20  O   UNL     1       5.246   2.852  19.671  0.00  0.00    +0.000 OA
ATOM     21  N   UNL     1       3.055   3.545  19.526  0.00  0.00    +0.000 N 
ATOM     22  H   UNL     1       2.422   4.125  18.992  0.00  0.00    +0.000 HD
BRANCH  21  23
ATOM     23  C   UNL     1       2.507   2.516  20.348  0.00  0.00    +0.000 C 
ATOM     24  C   UNL     1       2.376   2.688  21.835  0.00  0.00    +0.000 C 
ATOM     25  C   UNL     1       1.150   2.702  20.972  0.00  0.00    +0.000 C 
ENDBRANCH  21  23
ENDBRANCH  18  19
BRANCH  18  26
ATOM     26  C   UNL     1       6.306   4.849  18.069  0.00  0.00    +0.000 C 
ATOM     27  C   UNL     1       6.712   5.220  16.641  0.00  0.00    +0.000 C 
ATOM     28  C   UNL     1       6.977   5.792  19.069  0.00  0.00    +0.000 C 
ENDBRANCH  18  26
ENDBRANCH   3  18
TORSDOF 6
ENDMDL
MODEL 5
REMARK VINA RESULT:      -7.5      2.373      8.541
REMARK  Name = 
REMARK  10 active torsions:
REMARK  status: ('A' for Active; 'I' for Inactive)
REMARK    1  A    between atoms: C_1  and  C_2
REMARK    2  A    between atoms: C_5  and  C_6
REMARK    3  A    between atoms: C_7  and  C_8
REMARK    4  A    between atoms: C_10  and  C_11
REMARK    5  A    between atoms: N_13  and  C_14
REMARK    6  A    between atoms: C_14  and  C_15
REMARK    7  A    between atoms: C_14  and  C_21
REMARK    8  A    between atoms: N_17  and  C_18
REMARK    9  A    between atoms: C_21  and  C_22
REMARK   10  A    between atoms: C_21  and  C_23
REMARK                            x       y       z     vdW  Elec       q    Type
REMARK                         _______ _______ _______ _____ _____    ______ ____
ROOT
ATOM      1  C   UNL     1       2.662   6.664  19.045  0.00  0.00    +0.000 C 
ATOM      2  O   UNL     1       2.504   6.275  20.198  0.00  0.00    +0.000 OA
ATOM      3  N   UNL     1       3.299   5.894  18.086  0.00  0.00    +0.000 N 
ATOM      4  H   UNL     1       3.383   6.272  17.146  0.00  0.00    +0.000 HD
ENDROOT
BRANCH   1   7
ATOM      5  C   UNL     1       1.351  10.034  18.599  0.00  0.00    +0.000 A 
ATOM      6  C   UNL     1       1.465   8.912  19.385  0.00  0.00    +0.000 A 
ATOM      7  C   UNL     1       2.230   7.996  18.619  0.00  0.00    +0.000 A 
ATOM      8  N   UNL     1       2.551   8.524  17.426  0.00  0.00    +0.000 NA
ATOM      9  O   UNL     1       1.986   9.795  17.416  0.00  0.00    +0.000 OA
BRANCH   5  16
ATOM     10  C   UNL     1       1.829  14.887  19.591  0.00  0.00    +0.000 C 
ATOM     11  C   UNL     1       0.942  13.729  19.240  0.00  0.00    +0.000 A 
ATOM     12  C   UNL     1      -0.433  13.899  19.092  0.00  0.00    +0.000 A 
ATOM     13  C   UNL     1      -1.245  12.806  18.788  0.00  0.00    +0.000 A 
ATOM     14  C   UNL     1      -0.704  11.516  18.625  0.00  0.00    +0.000 A 
ATOM     15  C   UNL     1      -1.645  10.392  18.284  0.00  0.00    +0.000 C 
ATOM     16  C   UNL     1       0.687  11.326  18.772  0.00  0.00    +0.000 A 
ATOM     17  C   UNL     1       1.490  12.449  19.068  0.00  0.00    +0.000 A 
ENDBRANCH   5  16
ENDBRANCH   1   7
BRANCH   3  18
ATOM     18  C   UNL     1       3.824   4.563  18.422  0.00  0.00    +0.000 C 
BRANCH  18  19
ATOM     19  C   UNL     1       5.192   4.273  17.746  0.00  0.00    +0.000 C 
ATOM     20  O   UNL     1       6.233   4.171  18.397  0.00  0.00    +0.000 OA
ATOM     21  N   UNL     1       5.118   4.028  16.387  0.00  0.00    +0.000 N 
ATOM     22  H   UNL     1       4.242   4.244  15.929  0.00  0.00    +0.000 HD
BRANCH  21  23
ATOM     23  C   UNL     1       6.271   3.798  15.580  0.00  0.00    +0.000 C 
ATOM     24  C   UNL     1       6.206   3.878  14.081  0.00  0.00    +0.000 C 
ATOM     25  C   UNL     1       6.917   4.947  14.855  0.00  0.00    +0.000 C 
ENDBRANCH  21  23
ENDBRANCH  18  19
BRANCH  18  26
ATOM     26  C   UNL     1       2.832   3.408  18.138  0.00  0.00    +0.000 C 
ATOM     27  C   UNL     1       2.662   2.490  19.351  0.00  0.00    +0.000 C 
ATOM     28  C   UNL     1       1.464   3.879  17.638  0.00  0.00    +0.000 C 
ENDBRANCH  18  26
ENDBRANCH   3  18
TORSDOF 6
ENDMDL
MODEL 6
REMARK VINA RESULT:      -7.5      2.273      3.503
REMARK  Name = 
REMARK  10 active torsions:
REMARK  status: ('A' for Active; 'I' for Inactive)
REMARK    1  A    between atoms: C_1  and  C_2
REMARK    2  A    between atoms: C_5  and  C_6
REMARK    3  A    between atoms: C_7  and  C_8
REMARK    4  A    between atoms: C_10  and  C_11
REMARK    5  A    between atoms: N_13  and  C_14
REMARK    6  A    between atoms: C_14  and  C_15
REMARK    7  A    between atoms: C_14  and  C_21
REMARK    8  A    between atoms: N_17  and  C_18
REMARK    9  A    between atoms: C_21  and  C_22
REMARK   10  A    between atoms: C_21  and  C_23
REMARK                            x       y       z     vdW  Elec       q    Type
REMARK                         _______ _______ _______ _____ _____    ______ ____
ROOT
ATOM      1  C   UNL     1       0.804  10.071  19.466  0.00  0.00    +0.000 C 
ATOM      2  O   UNL     1       0.349  10.630  18.473  0.00  0.00    +0.000 OA
ATOM      3  N   UNL     1       0.726  10.630  20.731  0.00  0.00    +0.000 N 
ATOM      4  H   UNL     1       1.111  10.105  21.512  0.00  0.00    +0.000 HD
ENDROOT
BRANCH   1   7
ATOM      5  C   UNL     1       2.690   7.074  18.607  0.00  0.00    +0.000 A 
ATOM      6  C   UNL     1       2.114   8.255  18.205  0.00  0.00    +0.000 A 
ATOM      7  C   UNL     1       1.509   8.791  19.370  0.00  0.00    +0.000 A 
ATOM      8  N   UNL     1       1.692   7.975  20.421  0.00  0.00    +0.000 NA
ATOM      9  O   UNL     1       2.422   6.896  19.933  0.00  0.00    +0.000 OA
BRANCH   5  16
ATOM     10  C   UNL     1       6.980   5.734  16.471  0.00  0.00    +0.000 C 
ATOM     11  C   UNL     1       5.584   5.374  16.884  0.00  0.00    +0.000 A 
ATOM     12  C   UNL     1       5.059   4.112  16.613  0.00  0.00    +0.000 A 
ATOM     13  C   UNL     1       3.750   3.803  16.983  0.00  0.00    +0.000 A 
ATOM     14  C   UNL     1       2.932   4.748  17.633  0.00  0.00    +0.000 A 
ATOM     15  C   UNL     1       1.536   4.332  18.013  0.00  0.00    +0.000 C 
ATOM     16  C   UNL     1       3.448   6.031  17.916  0.00  0.00    +0.000 A 
ATOM     17  C   UNL     1       4.779   6.317  17.542  0.00  0.00    +0.000 A 
ENDBRANCH   5  16
ENDBRANCH   1   7
BRANCH   3  18
ATOM     18  C   UNL     1       0.089  11.939  20.932  0.00  0.00    +0.000 C 
BRANCH  18  19
ATOM     19  C   UNL     1       1.112  13.108  20.924  0.00  0.00    +0.000 C 
ATOM     20  O   UNL     1       1.397  13.733  21.947  0.00  0.00    +0.000 OA
ATOM     21  N   UNL     1       1.748  13.302  19.712  0.00  0.00    +0.000 N 
ATOM     22  H   UNL     1       1.368  12.816  18.910  0.00  0.00    +0.000 HD
BRANCH  21  23
ATOM     23  C   UNL     1       2.678  14.360  19.489  0.00  0.00    +0.000 C 
ATOM     24  C   UNL     1       3.704  14.283  18.393  0.00  0.00    +0.000 C 
ATOM     25  C   UNL     1       2.545  15.226  18.265  0.00  0.00    +0.000 C 
ENDBRANCH  21  23
ENDBRANCH  18  19
BRANCH  18  26
ATOM     26  C   UNL     1      -0.800  12.016  22.198  0.00  0.00    +0.000 C 
ATOM     27  C   UNL     1      -2.210  12.518  21.877  0.00  0.00    +0.000 C 
ATOM     28  C   UNL     1      -0.874  10.702  22.980  0.00  0.00    +0.000 C 
ENDBRANCH  18  26
ENDBRANCH   3  18
TORSDOF 6
ENDMDL
MODEL 7
REMARK VINA RESULT:      -7.4      2.466      8.435
REMARK  Name = 
REMARK  10 active torsions:
REMARK  status: ('A' for Active; 'I' for Inactive)
REMARK    1  A    between atoms: C_1  and  C_2
REMARK    2  A    between atoms: C_5  and  C_6
REMARK    3  A    between atoms: C_7  and  C_8
REMARK    4  A    between atoms: C_10  and  C_11
REMARK    5  A    between atoms: N_13  and  C_14
REMARK    6  A    between atoms: C_14  and  C_15
REMARK    7  A    between atoms: C_14  and  C_21
REMARK    8  A    between atoms: N_17  and  C_18
REMARK    9  A    between atoms: C_21  and  C_22
REMARK   10  A    between atoms: C_21  and  C_23
REMARK                            x       y       z     vdW  Elec       q    Type
REMARK                         _______ _______ _______ _____ _____    ______ ____
ROOT
ATOM      1  C   UNL     1       3.100   6.180  19.116  0.00  0.00    +0.000 C 
ATOM      2  O   UNL     1       4.227   6.132  19.601  0.00  0.00    +0.000 OA
ATOM      3  N   UNL     1       2.354   5.040  18.866  0.00  0.00    +0.000 N 
ATOM      4  H   UNL     1       1.422   5.153  18.476  0.00  0.00    +0.000 HD
ENDROOT
BRANCH   1   7
ATOM      5  C   UNL     1       1.364   9.362  18.754  0.00  0.00    +0.000 A 
ATOM      6  C   UNL     1       1.646   8.259  19.523  0.00  0.00    +0.000 A 
ATOM      7  C   UNL     1       2.490   7.450  18.720  0.00  0.00    +0.000 A 
ATOM      8  N   UNL     1       2.697   8.020  17.521  0.00  0.00    +0.000 NA
ATOM      9  O   UNL     1       1.979   9.211  17.546  0.00  0.00    +0.000 OA
BRANCH   5  16
ATOM     10  C   UNL     1       0.960  13.817  20.936  0.00  0.00    +0.000 C 
ATOM     11  C   UNL     1       0.376  12.773  20.030  0.00  0.00    +0.000 A 
ATOM     12  C   UNL     1      -0.870  12.955  19.435  0.00  0.00    +0.000 A 
ATOM     13  C   UNL     1      -1.406  11.963  18.614  0.00  0.00    +0.000 A 
ATOM     14  C   UNL     1      -0.712  10.763  18.369  0.00  0.00    +0.000 A 
ATOM     15  C   UNL     1      -1.353   9.748  17.460  0.00  0.00    +0.000 C 
ATOM     16  C   UNL     1       0.552  10.561  18.964  0.00  0.00    +0.000 A 
ATOM     17  C   UNL     1       1.080  11.584  19.781  0.00  0.00    +0.000 A 
ENDBRANCH   5  16
ENDBRANCH   1   7
BRANCH   3  18
ATOM     18  C   UNL     1       2.896   3.709  19.173  0.00  0.00    +0.000 C 
BRANCH  18  19
ATOM     19  C   UNL     1       3.722   3.116  17.999  0.00  0.00    +0.000 C 
ATOM     20  O   UNL     1       3.692   1.916  17.721  0.00  0.00    +0.000 OA
ATOM     21  N   UNL     1       4.389   4.057  17.237  0.00  0.00    +0.000 N 
ATOM     22  H   UNL     1       4.442   4.996  17.609  0.00  0.00    +0.000 HD
BRANCH  21  23
ATOM     23  C   UNL     1       5.244   3.705  16.151  0.00  0.00    +0.000 C 
ATOM     24  C   UNL     1       5.558   4.683  15.054  0.00  0.00    +0.000 C 
ATOM     25  C   UNL     1       6.616   4.317  16.052  0.00  0.00    +0.000 C 
ENDBRANCH  21  23
ENDBRANCH  18  19
BRANCH  18  26
ATOM     26  C   UNL     1       1.827   2.691  19.643  0.00  0.00    +0.000 C 
ATOM     27  C   UNL     1       1.445   2.900  21.110  0.00  0.00    +0.000 C 
ATOM     28  C   UNL     1       0.572   2.667  18.769  0.00  0.00    +0.000 C 
ENDBRANCH  18  26
ENDBRANCH   3  18
TORSDOF 6
ENDMDL
MODEL 8
REMARK VINA RESULT:      -7.4      1.392      3.226
REMARK  Name = 
REMARK  10 active torsions:
REMARK  status: ('A' for Active; 'I' for Inactive)
REMARK    1  A    between atoms: C_1  and  C_2
REMARK    2  A    between atoms: C_5  and  C_6
REMARK    3  A    between atoms: C_7  and  C_8
REMARK    4  A    between atoms: C_10  and  C_11
REMARK    5  A    between atoms: N_13  and  C_14
REMARK    6  A    between atoms: C_14  and  C_15
REMARK    7  A    between atoms: C_14  and  C_21
REMARK    8  A    between atoms: N_17  and  C_18
REMARK    9  A    between atoms: C_21  and  C_22
REMARK   10  A    between atoms: C_21  and  C_23
REMARK                            x       y       z     vdW  Elec       q    Type
REMARK                         _______ _______ _______ _____ _____    ______ ____
ROOT
ATOM      1  C   UNL     1       0.722  10.296  18.368  0.00  0.00    +0.000 C 
ATOM      2  O   UNL     1       1.216  11.393  18.611  0.00  0.00    +0.000 OA
ATOM      3  N   UNL     1      -0.578  10.155  17.910  0.00  0.00    +0.000 N 
ATOM      4  H   UNL     1      -0.918   9.218  17.715  0.00  0.00    +0.000 HD
ENDROOT
BRANCH   1   7
ATOM      5  C   UNL     1       2.721   7.251  18.298  0.00  0.00    +0.000 A 
ATOM      6  C   UNL     1       2.135   8.288  17.612  0.00  0.00    +0.000 A 
ATOM      7  C   UNL     1       1.462   9.054  18.596  0.00  0.00    +0.000 A 
ATOM      8  N   UNL     1       1.615   8.506  19.814  0.00  0.00    +0.000 NA
ATOM      9  O   UNL     1       2.394   7.371  19.617  0.00  0.00    +0.000 OA
BRANCH   5  16
ATOM     10  C   UNL     1       7.259   5.512  17.227  0.00  0.00    +0.000 C 
ATOM     11  C   UNL     1       5.791   5.253  17.393  0.00  0.00    +0.000 A 
ATOM     12  C   UNL     1       5.257   3.986  17.170  0.00  0.00    +0.000 A 
ATOM     13  C   UNL     1       3.885   3.770  17.306  0.00  0.00    +0.000 A 
ATOM     14  C   UNL     1       3.012   4.815  17.667  0.00  0.00    +0.000 A 
ATOM     15  C   UNL     1       1.548   4.496  17.806  0.00  0.00    +0.000 C 
ATOM     16  C   UNL     1       3.537   6.105  17.896  0.00  0.00    +0.000 A 
ATOM     17  C   UNL     1       4.929   6.297  17.763  0.00  0.00    +0.000 A 
ENDBRANCH   5  16
ENDBRANCH   1   7
BRANCH   3  18
ATOM     18  C   UNL     1      -1.429  11.335  17.700  0.00  0.00    +0.000 C 
BRANCH  18  19
ATOM     19  C   UNL     1      -1.531  12.230  18.965  0.00  0.00    +0.000 C 
ATOM     20  O   UNL     1      -2.013  11.815  20.021  0.00  0.00    +0.000 OA
ATOM     21  N   UNL     1      -0.938  13.472  18.836  0.00  0.00    +0.000 N 
ATOM     22  H   UNL     1      -0.671  13.759  17.904  0.00  0.00    +0.000 HD
BRANCH  21  23
ATOM     23  C   UNL     1      -0.975  14.456  19.868  0.00  0.00    +0.000 C 
ATOM     24  C   UNL     1       0.144  14.592  20.862  0.00  0.00    +0.000 C 
ATOM     25  C   UNL     1      -0.046  15.639  19.805  0.00  0.00    +0.000 C 
ENDBRANCH  21  23
ENDBRANCH  18  19
BRANCH  18  26
ATOM     26  C   UNL     1      -2.844  11.000  17.167  0.00  0.00    +0.000 C 
ATOM     27  C   UNL     1      -2.924  11.119  15.643  0.00  0.00    +0.000 C 
ATOM     28  C   UNL     1      -3.364   9.632  17.615  0.00  0.00    +0.000 C 
ENDBRANCH  18  26
ENDBRANCH   3  18
TORSDOF 6
ENDMDL
MODEL 9
REMARK VINA RESULT:      -7.4      2.112      8.217
REMARK  Name = 
REMARK  10 active torsions:
REMARK  status: ('A' for Active; 'I' for Inactive)
REMARK    1  A    between atoms: C_1  and  C_2
REMARK    2  A    between atoms: C_5  and  C_6
REMARK    3  A    between atoms: C_7  and  C_8
REMARK    4  A    between atoms: C_10  and  C_11
REMARK    5  A    between atoms: N_13  and  C_14
REMARK    6  A    between atoms: C_14  and  C_15
REMARK    7  A    between atoms: C_14  and  C_21
REMARK    8  A    between atoms: N_17  and  C_18
REMARK    9  A    between atoms: C_21  and  C_22
REMARK   10  A    between atoms: C_21  and  C_23
REMARK                            x       y       z     vdW  Elec       q    Type
REMARK                         _______ _______ _______ _____ _____    ______ ____
ROOT
ATOM      1  C   UNL     1       2.281   6.266  20.039  0.00  0.00    +0.000 C 
ATOM      2  O   UNL     1       2.172   5.438  20.938  0.00  0.00    +0.000 OA
ATOM      3  N   UNL     1       2.961   5.997  18.863  0.00  0.00    +0.000 N 
ATOM      4  H   UNL     1       3.000   6.724  18.154  0.00  0.00    +0.000 HD
ENDROOT
BRANCH   1   7
ATOM      5  C   UNL     1       0.986   9.657  19.717  0.00  0.00    +0.000 A 
ATOM      6  C   UNL     1       1.569   8.561  19.127  0.00  0.00    +0.000 A 
ATOM      7  C   UNL     1       1.739   7.620  20.174  0.00  0.00    +0.000 A 
ATOM      8  N   UNL     1       1.299   8.120  21.341  0.00  0.00    +0.000 NA
ATOM      9  O   UNL     1       0.841   9.400  21.049  0.00  0.00    +0.000 OA
BRANCH   5  16
ATOM     10  C   UNL     1       2.121  14.459  19.073  0.00  0.00    +0.000 C 
ATOM     11  C   UNL     1       1.146  13.334  18.887  0.00  0.00    +0.000 A 
ATOM     12  C   UNL     1      -0.087  13.547  18.276  0.00  0.00    +0.000 A 
ATOM     13  C   UNL     1      -0.990  12.493  18.134  0.00  0.00    +0.000 A 
ATOM     14  C   UNL     1      -0.684  11.200  18.600  0.00  0.00    +0.000 A 
ATOM     15  C   UNL     1      -1.706  10.114  18.395  0.00  0.00    +0.000 C 
ATOM     16  C   UNL     1       0.562  10.967  19.222  0.00  0.00    +0.000 A 
ATOM     17  C   UNL     1       1.464  12.046  19.344  0.00  0.00    +0.000 A 
ENDBRANCH   5  16
ENDBRANCH   1   7
BRANCH   3  18
ATOM     18  C   UNL     1       3.594   4.687  18.648  0.00  0.00    +0.000 C 
BRANCH  18  19
ATOM     19  C   UNL     1       4.956   4.796  17.912  0.00  0.00    +0.000 C 
ATOM     20  O   UNL     1       5.280   4.013  17.018  0.00  0.00    +0.000 OA
ATOM     21  N   UNL     1       5.709   5.902  18.262  0.00  0.00    +0.000 N 
ATOM     22  H   UNL     1       5.411   6.420  19.079  0.00  0.00    +0.000 HD
BRANCH  21  23
ATOM     23  C   UNL     1       7.012   6.147  17.738  0.00  0.00    +0.000 C 
ATOM     24  C   UNL     1       7.514   7.546  17.510  0.00  0.00    +0.000 C 
ATOM     25  C   UNL     1       8.080   6.724  18.629  0.00  0.00    +0.000 C 
ENDBRANCH  21  23
ENDBRANCH  18  19
BRANCH  18  26
ATOM     26  C   UNL     1       2.681   3.660  17.933  0.00  0.00    +0.000 C 
ATOM     27  C   UNL     1       2.431   2.420  18.795  0.00  0.00    +0.000 C 
ATOM     28  C   UNL     1       1.350   4.245  17.455  0.00  0.00    +0.000 C 
ENDBRANCH  18  26
ENDBRANCH   3  18
TORSDOF 6
ENDMDL
