MODEL 1
REMARK VINA RESULT:      -9.1      0.000      0.000
REMARK  Name = 
REMARK  10 active torsions:
REMARK  status: ('A' for Active; 'I' for Inactive)
REMARK    1  A    between atoms: C_1  and  O_2
REMARK    2  A    between atoms: O_2  and  C_3
REMARK    3  A    between atoms: C_6  and  C_7
REMARK    4  A    between atoms: C_7  and  O_9
REMARK    5  A    between atoms: C_11  and  C_12
REMARK    6  A    between atoms: C_12  and  C_14
REMARK    7  A    between atoms: C_15  and  C_16
REMARK    8  A    between atoms: C_19  and  O_20
REMARK    9  A    between atoms: O_20  and  C_21
REMARK   10  A    between atoms: C_21  and  C_22
REMARK                            x       y       z     vdW  Elec       q    Type
REMARK                         _______ _______ _______ _____ _____    ______ ____
ROOT
ATOM      1  C   UNL     1       2.156   7.706  18.849  0.00  0.00    +0.000 A 
ATOM      2  C   UNL     1       1.792   8.698  17.924  0.00  0.00    +0.000 A 
ATOM      3  C   UNL     1       1.071   9.854  18.306  0.00  0.00    +0.000 A 
ATOM      4  C   UNL     1       0.676  10.048  19.628  0.00  0.00    +0.000 A 
ATOM      5  C   UNL     1       1.052   9.072  20.561  0.00  0.00    +0.000 A 
ATOM      6  C   UNL     1       1.773   7.915  20.177  0.00  0.00    +0.000 A 
ENDROOT
BRANCH   1   8
ATOM      7  C   UNL     1       2.202   5.361  17.878  0.00  0.00    +0.000 C 
ATOM      8  C   UNL     1       2.812   6.457  18.372  0.00  0.00    +0.000 C 
BRANCH   7   9
ATOM      9  C   UNL     1       3.005   4.186  17.372  0.00  0.00    +0.000 C 
ATOM     10  O   UNL     1       2.432   3.129  17.109  0.00  0.00    +0.000 OA
BRANCH   9  16
ATOM     11  C   UNL     1       5.465   4.178  18.248  0.00  0.00    +0.000 A 
ATOM     12  C   UNL     1       6.831   4.325  17.942  0.00  0.00    +0.000 A 
ATOM     13  C   UNL     1       7.272   4.461  16.626  0.00  0.00    +0.000 A 
ATOM     14  C   UNL     1       6.354   4.469  15.582  0.00  0.00    +0.000 A 
ATOM     15  C   UNL     1       4.977   4.372  15.876  0.00  0.00    +0.000 A 
ATOM     16  C   UNL     1       4.509   4.226  17.212  0.00  0.00    +0.000 A 
BRANCH  11  18
ATOM     17  C   UNL     1       4.540   2.762  19.920  0.00  0.00    +0.000 C 
ATOM     18  O   UNL     1       5.041   4.043  19.541  0.00  0.00    +0.000 OA
ENDBRANCH  11  18
BRANCH  14  19
ATOM     19  C   UNL     1       6.900   4.658  14.211  0.00  0.00    +0.000 C 
ATOM     20  O   UNL     1       6.447   4.074  13.246  0.00  0.00    +0.000 OA
BRANCH  19  21
ATOM     21  O   UNL     1       7.879   5.587  14.112  0.00  0.00    +0.000 OA
ATOM     22  H   UNL     1       7.610   6.496  13.895  0.00  0.00    +0.000 HD
ENDBRANCH  19  21
ENDBRANCH  14  19
ENDBRANCH   9  16
ENDBRANCH   7   9
ENDBRANCH   1   8
BRANCH   4  23
ATOM     23  O   UNL     1      -0.023  11.133  20.111  0.00  0.00    +0.000 OA
BRANCH  23  24
ATOM     24  C   UNL     1      -0.763  11.945  19.162  0.00  0.00    +0.000 C 
BRANCH  24  25
ATOM     25  C   UNL     1      -2.261  12.095  19.470  0.00  0.00    +0.000 A 
ATOM     26  C   UNL     1      -2.700  12.874  20.531  0.00  0.00    +0.000 A 
ATOM     27  C   UNL     1      -4.068  13.003  20.769  0.00  0.00    +0.000 A 
ATOM     28  C   UNL     1      -4.990  12.478  19.864  0.00  0.00    +0.000 A 
ATOM     29  C   UNL     1      -6.362  12.742  20.008  0.00  0.00    +0.000 A 
ATOM     30  C   UNL     1      -7.261  12.378  19.011  0.00  0.00    +0.000 A 
ATOM     31  C   UNL     1      -6.792  11.688  17.904  0.00  0.00    +0.000 A 
ATOM     32  C   UNL     1      -5.433  11.365  17.802  0.00  0.00    +0.000 A 
ATOM     33  C   UNL     1      -4.492  11.759  18.758  0.00  0.00    +0.000 A 
ATOM     34  N   UNL     1      -3.158  11.530  18.597  0.00  0.00    +0.000 NA
ENDBRANCH  24  25
ENDBRANCH  23  24
ENDBRANCH   4  23
TORSDOF 9
ENDMDL
MODEL 2
REMARK VINA RESULT:      -8.9      1.322      2.272
REMARK  Name = 
REMARK  10 active torsions:
REMARK  status: ('A' for Active; 'I' for Inactive)
REMARK    1  A    between atoms: C_1  and  O_2
REMARK    2  A    between atoms: O_2  and  C_3
REMARK    3  A    between atoms: C_6  and  C_7
REMARK    4  A    between atoms: C_7  and  O_9
REMARK    5  A    between atoms: C_11  and  C_12
REMARK    6  A    between atoms: C_12  and  C_14
REMARK    7  A    between atoms: C_15  and  C_16
REMARK    8  A    between atoms: C_19  and  O_20
REMARK    9  A    between atoms: O_20  and  C_21
REMARK   10  A    between atoms: C_21  and  C_22
REMARK                            x       y       z     vdW  Elec       q    Type
REMARK                         _______ _______ _______ _____ _____    ______ ____
ROOT
ATOM      1  C   UNL     1       2.460   7.247  18.843  0.00  0.00    +0.000 A 
ATOM      2  C   UNL     1       2.030   7.374  20.174  0.00  0.00    +0.000 A 
ATOM      3  C   UNL     1       1.248   8.470  20.611  0.00  0.00    +0.000 A 
ATOM      4  C   UNL     1       0.882   9.485  19.729  0.00  0.00    +0.000 A 
ATOM      5  C   UNL     1       1.291   9.355  18.395  0.00  0.00    +0.000 A 
ATOM      6  C   UNL     1       2.074   8.259  17.959  0.00  0.00    +0.000 A 
ENDROOT
BRANCH   1   8
ATOM      7  C   UNL     1       3.137   5.157  17.570  0.00  0.00    +0.000 C 
ATOM      8  C   UNL     1       3.377   6.135  18.466  0.00  0.00    +0.000 C 
BRANCH   7   9
ATOM      9  C   UNL     1       4.192   4.127  17.243  0.00  0.00    +0.000 C 
ATOM     10  O   UNL     1       4.183   3.046  17.830  0.00  0.00    +0.000 OA
BRANCH   9  16
ATOM     11  C   UNL     1       6.467   5.143  16.466  0.00  0.00    +0.000 A 
ATOM     12  C   UNL     1       7.365   5.362  15.403  0.00  0.00    +0.000 A 
ATOM     13  C   UNL     1       7.162   4.789  14.149  0.00  0.00    +0.000 A 
ATOM     14  C   UNL     1       6.044   3.993  13.920  0.00  0.00    +0.000 A 
ATOM     15  C   UNL     1       5.110   3.805  14.960  0.00  0.00    +0.000 A 
ATOM     16  C   UNL     1       5.304   4.376  16.249  0.00  0.00    +0.000 A 
BRANCH  11  18
ATOM     17  C   UNL     1       7.682   5.110  18.510  0.00  0.00    +0.000 C 
ATOM     18  O   UNL     1       6.675   5.707  17.694  0.00  0.00    +0.000 OA
ENDBRANCH  11  18
BRANCH  14  19
ATOM     19  C   UNL     1       5.878   3.452  12.544  0.00  0.00    +0.000 C 
ATOM     20  O   UNL     1       6.802   2.965  11.922  0.00  0.00    +0.000 OA
BRANCH  19  21
ATOM     21  O   UNL     1       4.608   3.469  12.076  0.00  0.00    +0.000 OA
ATOM     22  H   UNL     1       3.940   2.976  12.583  0.00  0.00    +0.000 HD
ENDBRANCH  19  21
ENDBRANCH  14  19
ENDBRANCH   9  16
ENDBRANCH   7   9
ENDBRANCH   1   8
BRANCH   4  23
ATOM     23  O   UNL     1       0.123  10.592  20.042  0.00  0.00    +0.000 OA
BRANCH  23  24
ATOM     24  C   UNL     1      -0.334  11.435  18.953  0.00  0.00    +0.000 C 
BRANCH  24  25
ATOM     25  C   UNL     1      -1.830  11.313  18.625  0.00  0.00    +0.000 A 
ATOM     26  C   UNL     1      -2.305  10.293  17.814  0.00  0.00    +0.000 A 
ATOM     27  C   UNL     1      -3.672  10.201  17.554  0.00  0.00    +0.000 A 
ATOM     28  C   UNL     1      -4.570  11.035  18.220  0.00  0.00    +0.000 A 
ATOM     29  C   UNL     1      -5.956  10.842  18.088  0.00  0.00    +0.000 A 
ATOM     30  C   UNL     1      -6.847  11.548  18.889  0.00  0.00    +0.000 A 
ATOM     31  C   UNL     1      -6.351  12.496  19.771  0.00  0.00    +0.000 A 
ATOM     32  C   UNL     1      -4.972  12.732  19.845  0.00  0.00    +0.000 A 
ATOM     33  C   UNL     1      -4.043  12.007  19.094  0.00  0.00    +0.000 A 
ATOM     34  N   UNL     1      -2.699  12.174  19.251  0.00  0.00    +0.000 NA
ENDBRANCH  24  25
ENDBRANCH  23  24
ENDBRANCH   4  23
TORSDOF 9
ENDMDL
MODEL 3
REMARK VINA RESULT:      -8.8      2.659      3.556
REMARK  Name = 
REMARK  10 active torsions:
REMARK  status: ('A' for Active; 'I' for Inactive)
REMARK    1  A    between atoms: C_1  and  O_2
REMARK    2  A    between atoms: O_2  and  C_3
REMARK    3  A    between atoms: C_6  and  C_7
REMARK    4  A    between atoms: C_7  and  O_9
REMARK    5  A    between atoms: C_11  and  C_12
REMARK    6  A    between atoms: C_12  and  C_14
REMARK    7  A    between atoms: C_15  and  C_16
REMARK    8  A    between atoms: C_19  and  O_20
REMARK    9  A    between atoms: O_20  and  C_21
REMARK   10  A    between atoms: C_21  and  C_22
REMARK                            x       y       z     vdW  Elec       q    Type
REMARK                         _______ _______ _______ _____ _____    ______ ____
ROOT
ATOM      1  C   UNL     1       2.050   7.752  18.596  0.00  0.00    +0.000 A 
ATOM      2  C   UNL     1       1.665   7.891  19.939  0.00  0.00    +0.000 A 
ATOM      3  C   UNL     1       1.105   9.091  20.441  0.00  0.00    +0.000 A 
ATOM      4  C   UNL     1       0.928  10.198  19.614  0.00  0.00    +0.000 A 
ATOM      5  C   UNL     1       1.293  10.060  18.268  0.00  0.00    +0.000 A 
ATOM      6  C   UNL     1       1.852   8.860  17.768  0.00  0.00    +0.000 A 
ENDROOT
BRANCH   1   8
ATOM      7  C   UNL     1       2.161   5.332  17.835  0.00  0.00    +0.000 C 
ATOM      8  C   UNL     1       2.739   6.508  18.151  0.00  0.00    +0.000 C 
BRANCH   7   9
ATOM      9  C   UNL     1       2.987   4.170  17.336  0.00  0.00    +0.000 C 
ATOM     10  O   UNL     1       2.432   3.105  17.066  0.00  0.00    +0.000 OA
BRANCH   9  16
ATOM     11  C   UNL     1       5.436   4.222  18.239  0.00  0.00    +0.000 A 
ATOM     12  C   UNL     1       6.804   4.385  17.945  0.00  0.00    +0.000 A 
ATOM     13  C   UNL     1       7.257   4.502  16.631  0.00  0.00    +0.000 A 
ATOM     14  C   UNL     1       6.350   4.473  15.577  0.00  0.00    +0.000 A 
ATOM     15  C   UNL     1       4.972   4.359  15.858  0.00  0.00    +0.000 A 
ATOM     16  C   UNL     1       4.491   4.232  17.191  0.00  0.00    +0.000 A 
BRANCH  11  18
ATOM     17  C   UNL     1       4.620   2.801  19.962  0.00  0.00    +0.000 C 
ATOM     18  O   UNL     1       5.000   4.107  19.530  0.00  0.00    +0.000 OA
ENDBRANCH  11  18
BRANCH  14  19
ATOM     19  C   UNL     1       6.908   4.643  14.209  0.00  0.00    +0.000 C 
ATOM     20  O   UNL     1       6.467   4.042  13.248  0.00  0.00    +0.000 OA
BRANCH  19  21
ATOM     21  O   UNL     1       7.885   5.575  14.104  0.00  0.00    +0.000 OA
ATOM     22  H   UNL     1       7.621   6.507  14.187  0.00  0.00    +0.000 HD
ENDBRANCH  19  21
ENDBRANCH  14  19
ENDBRANCH   9  16
ENDBRANCH   7   9
ENDBRANCH   1   8
BRANCH   4  23
ATOM     23  O   UNL     1       0.392  11.411  19.992  0.00  0.00    +0.000 OA
BRANCH  23  24
ATOM     24  C   UNL     1       0.745  11.934  21.299  0.00  0.00    +0.000 C 
BRANCH  24  25
ATOM     25  C   UNL     1      -0.424  12.538  22.091  0.00  0.00    +0.000 A 
ATOM     26  C   UNL     1      -1.608  11.836  22.268  0.00  0.00    +0.000 A 
ATOM     27  C   UNL     1      -2.642  12.408  23.010  0.00  0.00    +0.000 A 
ATOM     28  C   UNL     1      -2.436  13.607  23.691  0.00  0.00    +0.000 A 
ATOM     29  C   UNL     1      -3.413  14.106  24.569  0.00  0.00    +0.000 A 
ATOM     30  C   UNL     1      -3.139  15.197  25.386  0.00  0.00    +0.000 A 
ATOM     31  C   UNL     1      -1.910  15.829  25.272  0.00  0.00    +0.000 A 
ATOM     32  C   UNL     1      -0.968  15.369  24.342  0.00  0.00    +0.000 A 
ATOM     33  C   UNL     1      -1.188  14.244  23.541  0.00  0.00    +0.000 A 
ATOM     34  N   UNL     1      -0.224  13.744  22.717  0.00  0.00    +0.000 NA
ENDBRANCH  24  25
ENDBRANCH  23  24
ENDBRANCH   4  23
TORSDOF 9
ENDMDL
MODEL 4
REMARK VINA RESULT:      -8.8      1.893      2.857
REMARK  Name = 
REMARK  10 active torsions:
REMARK  status: ('A' for Active; 'I' for Inactive)
REMARK    1  A    between atoms: C_1  and  O_2
REMARK    2  A    between atoms: O_2  and  C_3
REMARK    3  A    between atoms: C_6  and  C_7
REMARK    4  A    between atoms: C_7  and  O_9
REMARK    5  A    between atoms: C_11  and  C_12
REMARK    6  A    between atoms: C_12  and  C_14
REMARK    7  A    between atoms: C_15  and  C_16
REMARK    8  A    between atoms: C_19  and  O_20
REMARK    9  A    between atoms: O_20  and  C_21
REMARK   10  A    between atoms: C_21  and  C_22
REMARK                            x       y       z     vdW  Elec       q    Type
REMARK                         _______ _______ _______ _____ _____    ______ ____
ROOT
ATOM      1  C   UNL     1       1.517   8.369  19.865  0.00  0.00    +0.000 A 
ATOM      2  C   UNL     1       1.484   9.272  18.791  0.00  0.00    +0.000 A 
ATOM      3  C   UNL     1       0.713  10.459  18.829  0.00  0.00    +0.000 A 
ATOM      4  C   UNL     1      -0.066  10.771  19.941  0.00  0.00    +0.000 A 
ATOM      5  C   UNL     1      -0.023   9.884  21.025  0.00  0.00    +0.000 A 
ATOM      6  C   UNL     1       0.748   8.698  20.986  0.00  0.00    +0.000 A 
ENDROOT
BRANCH   1   8
ATOM      7  C   UNL     1       1.983   5.922  20.358  0.00  0.00    +0.000 C 
ATOM      8  C   UNL     1       2.253   7.082  19.725  0.00  0.00    +0.000 C 
BRANCH   7   9
ATOM      9  C   UNL     1       2.783   4.674  20.067  0.00  0.00    +0.000 C 
ATOM     10  O   UNL     1       2.521   3.634  20.670  0.00  0.00    +0.000 OA
BRANCH   9  16
ATOM     11  C   UNL     1       3.938   4.051  17.810  0.00  0.00    +0.000 A 
ATOM     12  C   UNL     1       5.127   4.023  17.056  0.00  0.00    +0.000 A 
ATOM     13  C   UNL     1       6.297   4.621  17.521  0.00  0.00    +0.000 A 
ATOM     14  C   UNL     1       6.312   5.251  18.761  0.00  0.00    +0.000 A 
ATOM     15  C   UNL     1       5.142   5.245  19.549  0.00  0.00    +0.000 A 
ATOM     16  C   UNL     1       3.936   4.645  19.089  0.00  0.00    +0.000 A 
BRANCH  11  18
ATOM     17  C   UNL     1       2.653   2.062  17.582  0.00  0.00    +0.000 C 
ATOM     18  O   UNL     1       2.793   3.463  17.347  0.00  0.00    +0.000 OA
ENDBRANCH  11  18
BRANCH  14  19
ATOM     19  C   UNL     1       7.609   5.830  19.202  0.00  0.00    +0.000 C 
ATOM     20  O   UNL     1       8.190   6.685  18.561  0.00  0.00    +0.000 OA
BRANCH  19  21
ATOM     21  O   UNL     1       8.046   5.394  20.407  0.00  0.00    +0.000 OA
ATOM     22  H   UNL     1       8.543   4.558  20.424  0.00  0.00    +0.000 HD
ENDBRANCH  19  21
ENDBRANCH  14  19
ENDBRANCH   9  16
ENDBRANCH   7   9
ENDBRANCH   1   8
BRANCH   4  23
ATOM     23  O   UNL     1      -0.850  11.896  20.088  0.00  0.00    +0.000 OA
BRANCH  23  24
ATOM     24  C   UNL     1      -1.599  12.359  18.935  0.00  0.00    +0.000 C 
BRANCH  24  25
ATOM     25  C   UNL     1      -3.110  12.089  18.995  0.00  0.00    +0.000 A 
ATOM     26  C   UNL     1      -3.725  11.253  18.074  0.00  0.00    +0.000 A 
ATOM     27  C   UNL     1      -5.096  11.014  18.171  0.00  0.00    +0.000 A 
ATOM     28  C   UNL     1      -5.815  11.490  19.267  0.00  0.00    +0.000 A 
ATOM     29  C   UNL     1      -7.157  11.119  19.456  0.00  0.00    +0.000 A 
ATOM     30  C   UNL     1      -7.820  11.440  20.636  0.00  0.00    +0.000 A 
ATOM     31  C   UNL     1      -7.158  12.192  21.595  0.00  0.00    +0.000 A 
ATOM     32  C   UNL     1      -5.843  12.618  21.367  0.00  0.00    +0.000 A 
ATOM     33  C   UNL     1      -5.128  12.272  20.216  0.00  0.00    +0.000 A 
ATOM     34  N   UNL     1      -3.816  12.606  20.053  0.00  0.00    +0.000 NA
ENDBRANCH  24  25
ENDBRANCH  23  24
ENDBRANCH   4  23
TORSDOF 9
ENDMDL
MODEL 5
REMARK VINA RESULT:      -8.8      3.486      4.355
REMARK  Name = 
REMARK  10 active torsions:
REMARK  status: ('A' for Active; 'I' for Inactive)
REMARK    1  A    between atoms: C_1  and  O_2
REMARK    2  A    between atoms: O_2  and  C_3
REMARK    3  A    between atoms: C_6  and  C_7
REMARK    4  A    between atoms: C_7  and  O_9
REMARK    5  A    between atoms: C_11  and  C_12
REMARK    6  A    between atoms: C_12  and  C_14
REMARK    7  A    between atoms: C_15  and  C_16
REMARK    8  A    between atoms: C_19  and  O_20
REMARK    9  A    between atoms: O_20  and  C_21
REMARK   10  A    between atoms: C_21  and  C_22
REMARK                            x       y       z     vdW  Elec       q    Type
REMARK                         _______ _______ _______ _____ _____    ______ ____
ROOT
ATOM      1  C   UNL     1       2.397   7.576  18.567  0.00  0.00    +0.000 A 
ATOM      2  C   UNL     1       1.899   7.717  19.872  0.00  0.00    +0.000 A 
ATOM      3  C   UNL     1       1.231   8.890  20.299  0.00  0.00    +0.000 A 
ATOM      4  C   UNL     1       1.054   9.968  19.436  0.00  0.00    +0.000 A 
ATOM      5  C   UNL     1       1.531   9.827  18.125  0.00  0.00    +0.000 A 
ATOM      6  C   UNL     1       2.200   8.654  17.699  0.00  0.00    +0.000 A 
ENDROOT
BRANCH   1   8
ATOM      7  C   UNL     1       2.915   5.091  18.534  0.00  0.00    +0.000 C 
ATOM      8  C   UNL     1       3.192   6.369  18.207  0.00  0.00    +0.000 C 
BRANCH   7   9
ATOM      9  C   UNL     1       3.784   3.957  18.042  0.00  0.00    +0.000 C 
ATOM     10  O   UNL     1       3.472   2.797  18.307  0.00  0.00    +0.000 OA
BRANCH   9  16
ATOM     11  C   UNL     1       6.304   4.592  17.794  0.00  0.00    +0.000 A 
ATOM     12  C   UNL     1       7.381   4.849  16.924  0.00  0.00    +0.000 A 
ATOM     13  C   UNL     1       7.268   4.650  15.548  0.00  0.00    +0.000 A 
ATOM     14  C   UNL     1       6.069   4.202  15.006  0.00  0.00    +0.000 A 
ATOM     15  C   UNL     1       4.966   3.987  15.860  0.00  0.00    +0.000 A 
ATOM     16  C   UNL     1       5.063   4.178  17.266  0.00  0.00    +0.000 A 
BRANCH  11  18
ATOM     17  C   UNL     1       7.492   5.629  19.575  0.00  0.00    +0.000 C 
ATOM     18  O   UNL     1       6.423   4.788  19.142  0.00  0.00    +0.000 OA
ENDBRANCH  11  18
BRANCH  14  19
ATOM     19  C   UNL     1       6.017   4.053  13.527  0.00  0.00    +0.000 C 
ATOM     20  O   UNL     1       7.009   4.145  12.830  0.00  0.00    +0.000 OA
BRANCH  19  21
ATOM     21  O   UNL     1       4.801   3.727  13.030  0.00  0.00    +0.000 OA
ATOM     22  H   UNL     1       4.758   2.976  12.414  0.00  0.00    +0.000 HD
ENDBRANCH  19  21
ENDBRANCH  14  19
ENDBRANCH   9  16
ENDBRANCH   7   9
ENDBRANCH   1   8
BRANCH   4  23
ATOM     23  O   UNL     1       0.418  11.153  19.742  0.00  0.00    +0.000 OA
BRANCH  23  24
ATOM     24  C   UNL     1       1.110  12.095  20.601  0.00  0.00    +0.000 C 
BRANCH  24  25
ATOM     25  C   UNL     1       1.439  13.446  19.947  0.00  0.00    +0.000 A 
ATOM     26  C   UNL     1       2.707  13.711  19.450  0.00  0.00    +0.000 A 
ATOM     27  C   UNL     1       2.964  14.942  18.844  0.00  0.00    +0.000 A 
ATOM     28  C   UNL     1       1.921  15.837  18.606  0.00  0.00    +0.000 A 
ATOM     29  C   UNL     1       2.140  17.004  17.854  0.00  0.00    +0.000 A 
ATOM     30  C   UNL     1       1.072  17.802  17.460  0.00  0.00    +0.000 A 
ATOM     31  C   UNL     1      -0.207  17.467  17.879  0.00  0.00    +0.000 A 
ATOM     32  C   UNL     1      -0.407  16.342  18.689  0.00  0.00    +0.000 A 
ATOM     33  C   UNL     1       0.635  15.488  19.062  0.00  0.00    +0.000 A 
ATOM     34  N   UNL     1       0.412  14.339  19.763  0.00  0.00    +0.000 NA
ENDBRANCH  24  25
ENDBRANCH  23  24
ENDBRANCH   4  23
TORSDOF 9
ENDMDL
MODEL 6
REMARK VINA RESULT:      -8.8      1.123      1.714
REMARK  Name = 
REMARK  10 active torsions:
REMARK  status: ('A' for Active; 'I' for Inactive)
REMARK    1  A    between atoms: C_1  and  O_2
REMARK    2  A    between atoms: O_2  and  C_3
REMARK    3  A    between atoms: C_6  and  C_7
REMARK    4  A    between atoms: C_7  and  O_9
REMARK    5  A    between atoms: C_11  and  C_12
REMARK    6  A    between atoms: C_12  and  C_14
REMARK    7  A    between atoms: C_15  and  C_16
REMARK    8  A    between atoms: C_19  and  O_20
REMARK    9  A    between atoms: O_20  and  C_21
REMARK   10  A    between atoms: C_21  and  C_22
REMARK                            x       y       z     vdW  Elec       q    Type
REMARK                         _______ _______ _______ _____ _____    ______ ____
ROOT
ATOM      1  C   UNL     1       2.300   7.172  18.733  0.00  0.00    +0.000 A 
ATOM      2  C   UNL     1       1.997   7.095  20.101  0.00  0.00    +0.000 A 
ATOM      3  C   UNL     1       1.398   8.170  20.801  0.00  0.00    +0.000 A 
ATOM      4  C   UNL     1       1.098   9.367  20.154  0.00  0.00    +0.000 A 
ATOM      5  C   UNL     1       1.380   9.445  18.783  0.00  0.00    +0.000 A 
ATOM      6  C   UNL     1       1.979   8.369  18.085  0.00  0.00    +0.000 A 
ENDROOT
BRANCH   1   8
ATOM      7  C   UNL     1       3.176   4.797  18.538  0.00  0.00    +0.000 C 
ATOM      8  C   UNL     1       3.034   6.055  18.075  0.00  0.00    +0.000 C 
BRANCH   7   9
ATOM      9  C   UNL     1       3.899   3.748  17.727  0.00  0.00    +0.000 C 
ATOM     10  O   UNL     1       3.495   2.586  17.744  0.00  0.00    +0.000 OA
BRANCH   9  16
ATOM     11  C   UNL     1       6.367   4.537  17.411  0.00  0.00    +0.000 A 
ATOM     12  C   UNL     1       7.402   4.857  16.511  0.00  0.00    +0.000 A 
ATOM     13  C   UNL     1       7.266   4.647  15.140  0.00  0.00    +0.000 A 
ATOM     14  C   UNL     1       6.082   4.125  14.630  0.00  0.00    +0.000 A 
ATOM     15  C   UNL     1       5.018   3.844  15.514  0.00  0.00    +0.000 A 
ATOM     16  C   UNL     1       5.141   4.046  16.916  0.00  0.00    +0.000 A 
BRANCH  11  18
ATOM     17  C   UNL     1       7.490   5.701  19.154  0.00  0.00    +0.000 C 
ATOM     18  O   UNL     1       6.510   4.744  18.755  0.00  0.00    +0.000 OA
ENDBRANCH  11  18
BRANCH  14  19
ATOM     19  C   UNL     1       6.000   3.968  13.153  0.00  0.00    +0.000 C 
ATOM     20  O   UNL     1       6.976   4.065  12.435  0.00  0.00    +0.000 OA
BRANCH  19  21
ATOM     21  O   UNL     1       4.776   3.629  12.684  0.00  0.00    +0.000 OA
ATOM     22  H   UNL     1       4.215   4.347  12.343  0.00  0.00    +0.000 HD
ENDBRANCH  19  21
ENDBRANCH  14  19
ENDBRANCH   9  16
ENDBRANCH   7   9
ENDBRANCH   1   8
BRANCH   4  23
ATOM     23  O   UNL     1       0.514  10.473  20.733  0.00  0.00    +0.000 OA
BRANCH  23  24
ATOM     24  C   UNL     1       0.116  11.566  19.865  0.00  0.00    +0.000 C 
BRANCH  24  25
ATOM     25  C   UNL     1      -1.401  11.790  19.762  0.00  0.00    +0.000 A 
ATOM     26  C   UNL     1      -2.087  12.503  20.734  0.00  0.00    +0.000 A 
ATOM     27  C   UNL     1      -3.461  12.704  20.598  0.00  0.00    +0.000 A 
ATOM     28  C   UNL     1      -4.112  12.322  19.426  0.00  0.00    +0.000 A 
ATOM     29  C   UNL     1      -5.459  12.665  19.213  0.00  0.00    +0.000 A 
ATOM     30  C   UNL     1      -6.056  12.448  17.976  0.00  0.00    +0.000 A 
ATOM     31  C   UNL     1      -5.325  11.824  16.977  0.00  0.00    +0.000 A 
ATOM     32  C   UNL     1      -4.006  11.421  17.221  0.00  0.00    +0.000 A 
ATOM     33  C   UNL     1      -3.355  11.668  18.434  0.00  0.00    +0.000 A 
ATOM     34  N   UNL     1      -2.039  11.363  18.623  0.00  0.00    +0.000 NA
ENDBRANCH  24  25
ENDBRANCH  23  24
ENDBRANCH   4  23
TORSDOF 9
ENDMDL
MODEL 7
REMARK VINA RESULT:      -8.7      1.785      2.784
REMARK  Name = 
REMARK  10 active torsions:
REMARK  status: ('A' for Active; 'I' for Inactive)
REMARK    1  A    between atoms: C_1  and  O_2
REMARK    2  A    between atoms: O_2  and  C_3
REMARK    3  A    between atoms: C_6  and  C_7
REMARK    4  A    between atoms: C_7  and  O_9
REMARK    5  A    between atoms: C_11  and  C_12
REMARK    6  A    between atoms: C_12  and  C_14
REMARK    7  A    between atoms: C_15  and  C_16
REMARK    8  A    between atoms: C_19  and  O_20
REMARK    9  A    between atoms: O_20  and  C_21
REMARK   10  A    between atoms: C_21  and  C_22
REMARK                            x       y       z     vdW  Elec       q    Type
REMARK                         _______ _______ _______ _____ _____    ______ ____
ROOT
ATOM      1  C   UNL     1       2.434   7.201  18.567  0.00  0.00    +0.000 A 
ATOM      2  C   UNL     1       2.148   7.150  19.940  0.00  0.00    +0.000 A 
ATOM      3  C   UNL     1       1.505   8.215  20.615  0.00  0.00    +0.000 A 
ATOM      4  C   UNL     1       1.140   9.376  19.937  0.00  0.00    +0.000 A 
ATOM      5  C   UNL     1       1.405   9.427  18.562  0.00  0.00    +0.000 A 
ATOM      6  C   UNL     1       2.049   8.361  17.888  0.00  0.00    +0.000 A 
ENDROOT
BRANCH   1   8
ATOM      7  C   UNL     1       3.285   4.820  18.343  0.00  0.00    +0.000 C 
ATOM      8  C   UNL     1       3.215   6.102  17.934  0.00  0.00    +0.000 C 
BRANCH   7   9
ATOM      9  C   UNL     1       4.072   3.796  17.559  0.00  0.00    +0.000 C 
ATOM     10  O   UNL     1       3.804   2.602  17.685  0.00  0.00    +0.000 OA
BRANCH   9  16
ATOM     11  C   UNL     1       6.386   4.873  17.011  0.00  0.00    +0.000 A 
ATOM     12  C   UNL     1       7.324   5.225  16.021  0.00  0.00    +0.000 A 
ATOM     13  C   UNL     1       7.159   4.839  14.692  0.00  0.00    +0.000 A 
ATOM     14  C   UNL     1       6.041   4.103  14.315  0.00  0.00    +0.000 A 
ATOM     15  C   UNL     1       5.067   3.785  15.286  0.00  0.00    +0.000 A 
ATOM     16  C   UNL     1       5.222   4.164  16.648  0.00  0.00    +0.000 A 
BRANCH  11  18
ATOM     17  C   UNL     1       7.658   6.119  18.588  0.00  0.00    +0.000 C 
ATOM     18  O   UNL     1       6.557   5.254  18.313  0.00  0.00    +0.000 OA
ENDBRANCH  11  18
BRANCH  14  19
ATOM     19  C   UNL     1       5.917   3.764  12.871  0.00  0.00    +0.000 C 
ATOM     20  O   UNL     1       6.887   3.576  12.163  0.00  0.00    +0.000 OA
BRANCH  19  21
ATOM     21  O   UNL     1       4.647   3.602  12.432  0.00  0.00    +0.000 OA
ATOM     22  H   UNL     1       4.299   2.695  12.400  0.00  0.00    +0.000 HD
ENDBRANCH  19  21
ENDBRANCH  14  19
ENDBRANCH   9  16
ENDBRANCH   7   9
ENDBRANCH   1   8
BRANCH   4  23
ATOM     23  O   UNL     1       0.509  10.470  20.490  0.00  0.00    +0.000 OA
BRANCH  23  24
ATOM     24  C   UNL     1      -0.302  11.300  19.619  0.00  0.00    +0.000 C 
BRANCH  24  25
ATOM     25  C   UNL     1      -1.558  11.893  20.277  0.00  0.00    +0.000 A 
ATOM     26  C   UNL     1      -2.663  12.249  19.518  0.00  0.00    +0.000 A 
ATOM     27  C   UNL     1      -3.794  12.766  20.152  0.00  0.00    +0.000 A 
ATOM     28  C   UNL     1      -3.870  12.785  21.544  0.00  0.00    +0.000 A 
ATOM     29  C   UNL     1      -5.064  13.151  22.189  0.00  0.00    +0.000 A 
ATOM     30  C   UNL     1      -5.201  12.996  23.564  0.00  0.00    +0.000 A 
ATOM     31  C   UNL     1      -4.118  12.541  24.300  0.00  0.00    +0.000 A 
ATOM     32  C   UNL     1      -2.907  12.247  23.658  0.00  0.00    +0.000 A 
ATOM     33  C   UNL     1      -2.748  12.341  22.272  0.00  0.00    +0.000 A 
ATOM     34  N   UNL     1      -1.599  11.953  21.649  0.00  0.00    +0.000 NA
ENDBRANCH  24  25
ENDBRANCH  23  24
ENDBRANCH   4  23
TORSDOF 9
ENDMDL
MODEL 8
REMARK VINA RESULT:      -8.7      3.195      4.184
REMARK  Name = 
REMARK  10 active torsions:
REMARK  status: ('A' for Active; 'I' for Inactive)
REMARK    1  A    between atoms: C_1  and  O_2
REMARK    2  A    between atoms: O_2  and  C_3
REMARK    3  A    between atoms: C_6  and  C_7
REMARK    4  A    between atoms: C_7  and  O_9
REMARK    5  A    between atoms: C_11  and  C_12
REMARK    6  A    between atoms: C_12  and  C_14
REMARK    7  A    between atoms: C_15  and  C_16
REMARK    8  A    between atoms: C_19  and  O_20
REMARK    9  A    between atoms: O_20  and  C_21
REMARK   10  A    between atoms: C_21  and  C_22
REMARK                            x       y       z     vdW  Elec       q    Type
REMARK                         _______ _______ _______ _____ _____    ______ ____
ROOT
ATOM      1  C   UNL     1       2.426   7.614  18.887  0.00  0.00    +0.000 A 
ATOM      2  C   UNL     1       2.141   8.478  17.818  0.00  0.00    +0.000 A 
ATOM      3  C   UNL     1       1.288   9.599  17.964  0.00  0.00    +0.000 A 
ATOM      4  C   UNL     1       0.680   9.882  19.185  0.00  0.00    +0.000 A 
ATOM      5  C   UNL     1       0.976   9.034  20.262  0.00  0.00    +0.000 A 
ATOM      6  C   UNL     1       1.828   7.913  20.114  0.00  0.00    +0.000 A 
ENDROOT
BRANCH   1   8
ATOM      7  C   UNL     1       2.773   5.129  18.493  0.00  0.00    +0.000 C 
ATOM      8  C   UNL     1       3.236   6.386  18.648  0.00  0.00    +0.000 C 
BRANCH   7   9
ATOM      9  C   UNL     1       3.714   3.987  18.192  0.00  0.00    +0.000 C 
ATOM     10  O   UNL     1       3.478   2.871  18.654  0.00  0.00    +0.000 OA
BRANCH   9  16
ATOM     11  C   UNL     1       6.231   4.591  17.852  0.00  0.00    +0.000 A 
ATOM     12  C   UNL     1       7.289   4.790  16.945  0.00  0.00    +0.000 A 
ATOM     13  C   UNL     1       7.146   4.510  15.587  0.00  0.00    +0.000 A 
ATOM     14  C   UNL     1       5.932   4.038  15.098  0.00  0.00    +0.000 A 
ATOM     15  C   UNL     1       4.848   3.880  15.987  0.00  0.00    +0.000 A 
ATOM     16  C   UNL     1       4.977   4.154  17.377  0.00  0.00    +0.000 A 
BRANCH  11  18
ATOM     17  C   UNL     1       7.525   5.635  19.553  0.00  0.00    +0.000 C 
ATOM     18  O   UNL     1       6.381   4.866  19.183  0.00  0.00    +0.000 OA
ENDBRANCH  11  18
BRANCH  14  19
ATOM     19  C   UNL     1       5.847   3.801  13.632  0.00  0.00    +0.000 C 
ATOM     20  O   UNL     1       4.807   3.924  13.014  0.00  0.00    +0.000 OA
BRANCH  19  21
ATOM     21  O   UNL     1       7.027   3.521  13.031  0.00  0.00    +0.000 OA
ATOM     22  H   UNL     1       7.769   4.127  13.201  0.00  0.00    +0.000 HD
ENDBRANCH  19  21
ENDBRANCH  14  19
ENDBRANCH   9  16
ENDBRANCH   7   9
ENDBRANCH   1   8
BRANCH   4  23
ATOM     23  O   UNL     1      -0.161  10.943  19.442  0.00  0.00    +0.000 OA
BRANCH  23  24
ATOM     24  C   UNL     1       0.251  11.914  20.438  0.00  0.00    +0.000 C 
BRANCH  24  25
ATOM     25  C   UNL     1       0.849  13.209  19.868  0.00  0.00    +0.000 A 
ATOM     26  C   UNL     1       2.179  13.273  19.478  0.00  0.00    +0.000 A 
ATOM     27  C   UNL     1       2.684  14.460  18.946  0.00  0.00    +0.000 A 
ATOM     28  C   UNL     1       1.826  15.525  18.672  0.00  0.00    +0.000 A 
ATOM     29  C   UNL     1       2.294  16.661  17.988  0.00  0.00    +0.000 A 
ATOM     30  C   UNL     1       1.407  17.639  17.552  0.00  0.00    +0.000 A 
ATOM     31  C   UNL     1       0.061  17.512  17.862  0.00  0.00    +0.000 A 
ATOM     32  C   UNL     1      -0.386  16.412  18.606  0.00  0.00    +0.000 A 
ATOM     33  C   UNL     1       0.467  15.383  19.017  0.00  0.00    +0.000 A 
ATOM     34  N   UNL     1       0.003  14.268  19.649  0.00  0.00    +0.000 NA
ENDBRANCH  24  25
ENDBRANCH  23  24
ENDBRANCH   4  23
TORSDOF 9
ENDMDL
MODEL 9
REMARK VINA RESULT:      -8.7      3.527     11.357
REMARK  Name = 
REMARK  10 active torsions:
REMARK  status: ('A' for Active; 'I' for Inactive)
REMARK    1  A    between atoms: C_1  and  O_2
REMARK    2  A    between atoms: O_2  and  C_3
REMARK    3  A    between atoms: C_6  and  C_7
REMARK    4  A    between atoms: C_7  and  O_9
REMARK    5  A    between atoms: C_11  and  C_12
REMARK    6  A    between atoms: C_12  and  C_14
REMARK    7  A    between atoms: C_15  and  C_16
REMARK    8  A    between atoms: C_19  and  O_20
REMARK    9  A    between atoms: O_20  and  C_21
REMARK   10  A    between atoms: C_21  and  C_22
REMARK                            x       y       z     vdW  Elec       q    Type
REMARK                         _______ _______ _______ _____ _____    ______ ____
ROOT
ATOM      1  C   UNL     1       1.754   6.724  20.296  0.00  0.00    +0.000 A 
ATOM      2  C   UNL     1       1.522   5.476  20.896  0.00  0.00    +0.000 A 
ATOM      3  C   UNL     1       1.660   4.261  20.182  0.00  0.00    +0.000 A 
ATOM      4  C   UNL     1       2.019   4.258  18.836  0.00  0.00    +0.000 A 
ATOM      5  C   UNL     1       2.272   5.500  18.236  0.00  0.00    +0.000 A 
ATOM      6  C   UNL     1       2.133   6.714  18.951  0.00  0.00    +0.000 A 
ENDROOT
BRANCH   1   8
ATOM      7  C   UNL     1       0.321   8.325  21.649  0.00  0.00    +0.000 C 
ATOM      8  C   UNL     1       1.483   7.972  21.062  0.00  0.00    +0.000 C 
BRANCH   7   9
ATOM      9  C   UNL     1       0.212   9.601  22.450  0.00  0.00    +0.000 C 
ATOM     10  O   UNL     1       0.926   9.757  23.440  0.00  0.00    +0.000 OA
BRANCH   9  16
ATOM     11  C   UNL     1      -0.877  11.399  20.901  0.00  0.00    +0.000 A 
ATOM     12  C   UNL     1      -1.791  12.464  20.783  0.00  0.00    +0.000 A 
ATOM     13  C   UNL     1      -2.645  12.809  21.830  0.00  0.00    +0.000 A 
ATOM     14  C   UNL     1      -2.598  12.105  23.028  0.00  0.00    +0.000 A 
ATOM     15  C   UNL     1      -1.653  11.067  23.179  0.00  0.00    +0.000 A 
ATOM     16  C   UNL     1      -0.778  10.697  22.121  0.00  0.00    +0.000 A 
BRANCH  11  18
ATOM     17  C   UNL     1      -0.651  10.479  18.720  0.00  0.00    +0.000 C 
ATOM     18  O   UNL     1      -0.043  11.066  19.870  0.00  0.00    +0.000 OA
ENDBRANCH  11  18
BRANCH  14  19
ATOM     19  C   UNL     1      -3.514  12.559  24.109  0.00  0.00    +0.000 C 
ATOM     20  O   UNL     1      -3.591  13.725  24.447  0.00  0.00    +0.000 OA
BRANCH  19  21
ATOM     21  O   UNL     1      -4.308  11.593  24.625  0.00  0.00    +0.000 OA
ATOM     22  H   UNL     1      -3.952  11.071  25.365  0.00  0.00    +0.000 HD
ENDBRANCH  19  21
ENDBRANCH  14  19
ENDBRANCH   9  16
ENDBRANCH   7   9
ENDBRANCH   1   8
BRANCH   4  23
ATOM     23  O   UNL     1       2.185   3.141  18.047  0.00  0.00    +0.000 OA
BRANCH  23  24
ATOM     24  C   UNL     1       3.529   2.621  17.875  0.00  0.00    +0.000 C 
BRANCH  24  25
ATOM     25  C   UNL     1       4.590   3.676  17.523  0.00  0.00    +0.000 A 
ATOM     26  C   UNL     1       4.552   4.352  16.313  0.00  0.00    +0.000 A 
ATOM     27  C   UNL     1       5.520   5.318  16.035  0.00  0.00    +0.000 A 
ATOM     28  C   UNL     1       6.427   5.706  17.021  0.00  0.00    +0.000 A 
ATOM     29  C   UNL     1       7.297   6.788  16.805  0.00  0.00    +0.000 A 
ATOM     30  C   UNL     1       8.069   7.293  17.846  0.00  0.00    +0.000 A 
ATOM     31  C   UNL     1       8.020   6.668  19.083  0.00  0.00    +0.000 A 
ATOM     32  C   UNL     1       7.204   5.545  19.269  0.00  0.00    +0.000 A 
ATOM     33  C   UNL     1       6.375   5.041  18.263  0.00  0.00    +0.000 A 
ATOM     34  N   UNL     1       5.508   4.013  18.487  0.00  0.00    +0.000 NA
ENDBRANCH  24  25
ENDBRANCH  23  24
ENDBRANCH   4  23
TORSDOF 9
ENDMDL
