MODEL 1
REMARK VINA RESULT:      -8.7      0.000      0.000
REMARK  Name = 
REMARK  8 active torsions:
REMARK  status: ('A' for Active; 'I' for Inactive)
REMARK    1  A    between atoms: C_2  and  O_3
REMARK    2  A    between atoms: C_2  and  C_4
REMARK    3  A    between atoms: C_10  and  C_11
REMARK    4  A    between atoms: C_11  and  O_12
REMARK    5  A    between atoms: C_11  and  C_23
REMARK    6  A    between atoms: O_12  and  C_13
REMARK    7  A    between atoms: C_13  and  C_14
REMARK    8  A    between atoms: C_14  and  N_15
REMARK                            x       y       z     vdW  Elec       q    Type
REMARK                         _______ _______ _______ _____ _____    ______ ____
ROOT
ATOM      1  C   UNL     1       3.281   5.785  19.076  0.00  0.00    +0.000 C 
ENDROOT
BRANCH   1   8
ATOM      2  C   UNL     1       0.673   9.655  20.986  0.00  0.00    +0.000 A 
ATOM      3  C   UNL     1       0.153  10.809  20.404  0.00  0.00    +0.000 A 
ATOM      4  C   UNL     1       0.285  10.990  19.040  0.00  0.00    +0.000 A 
ATOM      5  N   UNL     1       0.878  10.122  18.196  0.00  0.00    +0.000 NA
ATOM      6  C   UNL     1       1.435   9.034  18.779  0.00  0.00    +0.000 A 
ATOM      7  C   UNL     1       2.113   7.951  18.176  0.00  0.00    +0.000 A 
ATOM      8  C   UNL     1       2.542   7.096  19.183  0.00  0.00    +0.000 A 
ATOM      9  N   UNL     1       2.114   7.643  20.376  0.00  0.00    +0.000 N 
ATOM     10  C   UNL     1       1.387   8.792  20.145  0.00  0.00    +0.000 A 
ATOM     11  H   UNL     1       2.305   7.253  21.296  0.00  0.00    +0.000 HD
BRANCH   2  13
ATOM     12  O   UNL     1       1.436   9.370  23.207  0.00  0.00    +0.000 OA
ATOM     13  C   UNL     1       0.514   9.343  22.416  0.00  0.00    +0.000 C 
BRANCH  13  14
ATOM     14  O   UNL     1      -0.741   8.954  22.746  0.00  0.00    +0.000 OA
ATOM     15  H   UNL     1      -1.448   9.332  22.188  0.00  0.00    +0.000 HD
ENDBRANCH  13  14
ENDBRANCH   2  13
ENDBRANCH   1   8
BRANCH   1  16
ATOM     16  C   UNL     1       2.491   4.659  19.726  0.00  0.00    +0.000 A 
ATOM     17  C   UNL     1       2.698   4.373  21.091  0.00  0.00    +0.000 A 
ATOM     18  C   UNL     1       1.997   3.353  21.732  0.00  0.00    +0.000 A 
ATOM     19  C   UNL     1       1.074   2.596  21.020  0.00  0.00    +0.000 A 
ATOM     20  C   UNL     1       0.877   2.841  19.662  0.00  0.00    +0.000 A 
ATOM     21  C   UNL     1       1.583   3.860  19.014  0.00  0.00    +0.000 A 
ATOM     22 CL   UNL     1       1.323   4.038  17.314  0.00  0.00    +0.000 Cl
ENDBRANCH   1  16
BRANCH   1  23
ATOM     23  O   UNL     1       4.570   5.931  19.704  0.00  0.00    +0.000 OA
BRANCH  23  24
ATOM     24  C   UNL     1       5.433   4.830  19.367  0.00  0.00    +0.000 C 
BRANCH  24  25
ATOM     25  C   UNL     1       6.614   5.236  18.461  0.00  0.00    +0.000 C 
BRANCH  25  26
ATOM     26  N   UNL     1       6.704   4.583  17.132  0.00  0.00    +0.000 NA
ATOM     27  C   UNL     1       7.122   5.579  16.129  0.00  0.00    +0.000 C 
ATOM     28  C   UNL     1       7.225   4.986  14.729  0.00  0.00    +0.000 C 
ATOM     29  C   UNL     1       5.928   4.304  14.363  0.00  0.00    +0.000 C 
ATOM     30  F   UNL     1       6.042   3.719  13.146  0.00  0.00    +0.000 F 
ATOM     31  F   UNL     1       4.942   5.234  14.245  0.00  0.00    +0.000 F 
ATOM     32  C   UNL     1       5.526   3.274  15.389  0.00  0.00    +0.000 C 
ATOM     33  C   UNL     1       5.443   3.928  16.760  0.00  0.00    +0.000 C 
ENDBRANCH  25  26
ENDBRANCH  24  25
ENDBRANCH  23  24
ENDBRANCH   1  23
TORSDOF 8
ENDMDL
MODEL 2
REMARK VINA RESULT:      -8.7      0.745      1.242
REMARK  Name = 
REMARK  8 active torsions:
REMARK  status: ('A' for Active; 'I' for Inactive)
REMARK    1  A    between atoms: C_2  and  O_3
REMARK    2  A    between atoms: C_2  and  C_4
REMARK    3  A    between atoms: C_10  and  C_11
REMARK    4  A    between atoms: C_11  and  O_12
REMARK    5  A    between atoms: C_11  and  C_23
REMARK    6  A    between atoms: O_12  and  C_13
REMARK    7  A    between atoms: C_13  and  C_14
REMARK    8  A    between atoms: C_14  and  N_15
REMARK                            x       y       z     vdW  Elec       q    Type
REMARK                         _______ _______ _______ _____ _____    ______ ____
ROOT
ATOM      1  C   UNL     1       3.353   5.717  19.048  0.00  0.00    +0.000 C 
ENDROOT
BRANCH   1   8
ATOM      2  C   UNL     1       0.793   9.652  20.885  0.00  0.00    +0.000 A 
ATOM      3  C   UNL     1       0.277  10.797  20.280  0.00  0.00    +0.000 A 
ATOM      4  C   UNL     1       0.399  10.944  18.911  0.00  0.00    +0.000 A 
ATOM      5  N   UNL     1       0.979  10.051  18.083  0.00  0.00    +0.000 NA
ATOM      6  C   UNL     1       1.531   8.973  18.687  0.00  0.00    +0.000 A 
ATOM      7  C   UNL     1       2.195   7.870  18.105  0.00  0.00    +0.000 A 
ATOM      8  C   UNL     1       2.626   7.036  19.129  0.00  0.00    +0.000 A 
ATOM      9  N   UNL     1       2.212   7.615  20.312  0.00  0.00    +0.000 N 
ATOM     10  C   UNL     1       1.492   8.764  20.059  0.00  0.00    +0.000 A 
ATOM     11  H   UNL     1       2.407   7.245  21.239  0.00  0.00    +0.000 HD
BRANCH   2  13
ATOM     12  O   UNL     1      -0.438   9.326  22.879  0.00  0.00    +0.000 OA
ATOM     13  C   UNL     1       0.642   9.376  22.323  0.00  0.00    +0.000 C 
BRANCH  13  14
ATOM     14  O   UNL     1       1.823   9.259  22.976  0.00  0.00    +0.000 OA
ATOM     15  H   UNL     1       1.749   9.159  23.945  0.00  0.00    +0.000 HD
ENDBRANCH  13  14
ENDBRANCH   2  13
ENDBRANCH   1   8
BRANCH   1  16
ATOM     16  C   UNL     1       2.547   4.608  19.707  0.00  0.00    +0.000 A 
ATOM     17  C   UNL     1       2.825   4.260  21.046  0.00  0.00    +0.000 A 
ATOM     18  C   UNL     1       2.114   3.253  21.695  0.00  0.00    +0.000 A 
ATOM     19  C   UNL     1       1.108   2.571  21.019  0.00  0.00    +0.000 A 
ATOM     20  C   UNL     1       0.839   2.877  19.685  0.00  0.00    +0.000 A 
ATOM     21  C   UNL     1       1.556   3.883  19.029  0.00  0.00    +0.000 A 
ATOM     22 CL   UNL     1       1.198   4.138  17.357  0.00  0.00    +0.000 Cl
ENDBRANCH   1  16
BRANCH   1  23
ATOM     23  O   UNL     1       4.639   5.860  19.683  0.00  0.00    +0.000 OA
BRANCH  23  24
ATOM     24  C   UNL     1       5.698   5.460  18.794  0.00  0.00    +0.000 C 
BRANCH  24  25
ATOM     25  C   UNL     1       6.048   6.532  17.742  0.00  0.00    +0.000 C 
BRANCH  25  26
ATOM     26  N   UNL     1       6.141   6.090  16.329  0.00  0.00    +0.000 NA
ATOM     27  C   UNL     1       4.918   5.348  15.972  0.00  0.00    +0.000 C 
ATOM     28  C   UNL     1       4.942   4.846  14.532  0.00  0.00    +0.000 C 
ATOM     29  C   UNL     1       6.198   4.044  14.290  0.00  0.00    +0.000 C 
ATOM     30  F   UNL     1       6.254   3.654  12.992  0.00  0.00    +0.000 F 
ATOM     31  F   UNL     1       6.159   2.901  15.027  0.00  0.00    +0.000 F 
ATOM     32  C   UNL     1       7.440   4.824  14.641  0.00  0.00    +0.000 C 
ATOM     33  C   UNL     1       7.352   5.296  16.085  0.00  0.00    +0.000 C 
ENDBRANCH  25  26
ENDBRANCH  24  25
ENDBRANCH  23  24
ENDBRANCH   1  23
TORSDOF 8
ENDMDL
MODEL 3
REMARK VINA RESULT:      -8.3      2.846      4.926
REMARK  Name = 
REMARK  8 active torsions:
REMARK  status: ('A' for Active; 'I' for Inactive)
REMARK    1  A    between atoms: C_2  and  O_3
REMARK    2  A    between atoms: C_2  and  C_4
REMARK    3  A    between atoms: C_10  and  C_11
REMARK    4  A    between atoms: C_11  and  O_12
REMARK    5  A    between atoms: C_11  and  C_23
REMARK    6  A    between atoms: O_12  and  C_13
REMARK    7  A    between atoms: C_13  and  C_14
REMARK    8  A    between atoms: C_14  and  N_15
REMARK                            x       y       z     vdW  Elec       q    Type
REMARK                         _______ _______ _______ _____ _____    ______ ____
ROOT
ATOM      1  C   UNL     1       3.672   5.578  18.423  0.00  0.00    +0.000 C 
ENDROOT
BRANCH   1   8
ATOM      2  C   UNL     1       0.865   9.264  20.409  0.00  0.00    +0.000 A 
ATOM      3  C   UNL     1       0.487  10.516  19.925  0.00  0.00    +0.000 A 
ATOM      4  C   UNL     1       0.865  10.882  18.647  0.00  0.00    +0.000 A 
ATOM      5  N   UNL     1       1.578  10.114  17.798  0.00  0.00    +0.000 NA
ATOM      6  C   UNL     1       1.994   8.927  18.300  0.00  0.00    +0.000 A 
ATOM      7  C   UNL     1       2.740   7.907  17.668  0.00  0.00    +0.000 A 
ATOM      8  C   UNL     1       2.961   6.896  18.595  0.00  0.00    +0.000 A 
ATOM      9  N   UNL     1       2.339   7.289  19.764  0.00  0.00    +0.000 N 
ATOM     10  C   UNL     1       1.695   8.495  19.585  0.00  0.00    +0.000 A 
ATOM     11  H   UNL     1       2.352   6.762  20.634  0.00  0.00    +0.000 HD
BRANCH   2  13
ATOM     12  O   UNL     1      -0.534   8.056  21.885  0.00  0.00    +0.000 OA
ATOM     13  C   UNL     1       0.444   8.761  21.726  0.00  0.00    +0.000 C 
BRANCH  13  14
ATOM     14  O   UNL     1       1.206   9.220  22.747  0.00  0.00    +0.000 OA
ATOM     15  H   UNL     1       2.151   9.341  22.532  0.00  0.00    +0.000 HD
ENDBRANCH  13  14
ENDBRANCH   2  13
ENDBRANCH   1   8
BRANCH   1  16
ATOM     16  C   UNL     1       5.179   5.775  18.359  0.00  0.00    +0.000 A 
ATOM     17  C   UNL     1       5.962   5.464  19.490  0.00  0.00    +0.000 A 
ATOM     18  C   UNL     1       7.346   5.625  19.481  0.00  0.00    +0.000 A 
ATOM     19  C   UNL     1       7.978   6.101  18.338  0.00  0.00    +0.000 A 
ATOM     20  C   UNL     1       7.220   6.445  17.219  0.00  0.00    +0.000 A 
ATOM     21  C   UNL     1       5.830   6.291  17.228  0.00  0.00    +0.000 A 
ATOM     22 CL   UNL     1       4.973   6.813  15.820  0.00  0.00    +0.000 Cl
ENDBRANCH   1  16
BRANCH   1  23
ATOM     23  O   UNL     1       3.189   4.948  17.220  0.00  0.00    +0.000 OA
BRANCH  23  24
ATOM     24  C   UNL     1       3.744   3.628  17.072  0.00  0.00    +0.000 C 
BRANCH  24  25
ATOM     25  C   UNL     1       2.724   2.504  17.349  0.00  0.00    +0.000 C 
BRANCH  25  26
ATOM     26  N   UNL     1       2.334   2.275  18.761  0.00  0.00    +0.000 NA
ATOM     27  C   UNL     1       1.187   3.140  19.095  0.00  0.00    +0.000 C 
ATOM     28  C   UNL     1       0.734   2.972  20.541  0.00  0.00    +0.000 C 
ATOM     29  C   UNL     1       1.905   3.176  21.473  0.00  0.00    +0.000 C 
ATOM     30  F   UNL     1       1.517   2.961  22.754  0.00  0.00    +0.000 F 
ATOM     31  F   UNL     1       2.314   4.473  21.414  0.00  0.00    +0.000 F 
ATOM     32  C   UNL     1       3.060   2.270  21.130  0.00  0.00    +0.000 C 
ATOM     33  C   UNL     1       3.462   2.484  19.679  0.00  0.00    +0.000 C 
ENDBRANCH  25  26
ENDBRANCH  24  25
ENDBRANCH  23  24
ENDBRANCH   1  23
TORSDOF 8
ENDMDL
MODEL 4
REMARK VINA RESULT:      -8.2      0.913      1.189
REMARK  Name = 
REMARK  8 active torsions:
REMARK  status: ('A' for Active; 'I' for Inactive)
REMARK    1  A    between atoms: C_2  and  O_3
REMARK    2  A    between atoms: C_2  and  C_4
REMARK    3  A    between atoms: C_10  and  C_11
REMARK    4  A    between atoms: C_11  and  O_12
REMARK    5  A    between atoms: C_11  and  C_23
REMARK    6  A    between atoms: O_12  and  C_13
REMARK    7  A    between atoms: C_13  and  C_14
REMARK    8  A    between atoms: C_14  and  N_15
REMARK                            x       y       z     vdW  Elec       q    Type
REMARK                         _______ _______ _______ _____ _____    ______ ____
ROOT
ATOM      1  C   UNL     1       3.190   5.872  19.131  0.00  0.00    +0.000 C 
ENDROOT
BRANCH   1   8
ATOM      2  C   UNL     1       0.460   9.643  21.066  0.00  0.00    +0.000 A 
ATOM      3  C   UNL     1       0.023  10.853  20.528  0.00  0.00    +0.000 A 
ATOM      4  C   UNL     1       0.300  11.136  19.203  0.00  0.00    +0.000 A 
ATOM      5  N   UNL     1       0.965  10.323  18.358  0.00  0.00    +0.000 NA
ATOM      6  C   UNL     1       1.440   9.179  18.906  0.00  0.00    +0.000 A 
ATOM      7  C   UNL     1       2.159   8.130  18.292  0.00  0.00    +0.000 A 
ATOM      8  C   UNL     1       2.466   7.189  19.266  0.00  0.00    +0.000 A 
ATOM      9  N   UNL     1       1.924   7.651  20.448  0.00  0.00    +0.000 N 
ATOM     10  C   UNL     1       1.244   8.832  20.236  0.00  0.00    +0.000 A 
ATOM     11  H   UNL     1       2.010   7.186  21.348  0.00  0.00    +0.000 HD
BRANCH   2  13
ATOM     12  O   UNL     1       0.706   9.684  23.418  0.00  0.00    +0.000 OA
ATOM     13  C   UNL     1       0.146   9.225  22.441  0.00  0.00    +0.000 C 
BRANCH  13  14
ATOM     14  O   UNL     1      -0.771   8.231  22.506  0.00  0.00    +0.000 OA
ATOM     15  H   UNL     1      -0.583   7.461  21.934  0.00  0.00    +0.000 HD
ENDBRANCH  13  14
ENDBRANCH   2  13
ENDBRANCH   1   8
BRANCH   1  16
ATOM     16  C   UNL     1       2.403   4.747  19.785  0.00  0.00    +0.000 A 
ATOM     17  C   UNL     1       2.653   4.428  21.136  0.00  0.00    +0.000 A 
ATOM     18  C   UNL     1       1.958   3.408  21.781  0.00  0.00    +0.000 A 
ATOM     19  C   UNL     1       0.995   2.682  21.087  0.00  0.00    +0.000 A 
ATOM     20  C   UNL     1       0.755   2.959  19.741  0.00  0.00    +0.000 A 
ATOM     21  C   UNL     1       1.456   3.978  19.090  0.00  0.00    +0.000 A 
ATOM     22 CL   UNL     1       1.140   4.197  17.405  0.00  0.00    +0.000 Cl
ENDBRANCH   1  16
BRANCH   1  23
ATOM     23  O   UNL     1       4.493   6.000  19.733  0.00  0.00    +0.000 OA
BRANCH  23  24
ATOM     24  C   UNL     1       5.477   5.253  18.994  0.00  0.00    +0.000 C 
BRANCH  24  25
ATOM     25  C   UNL     1       4.859   4.220  18.030  0.00  0.00    +0.000 C 
BRANCH  25  26
ATOM     26  N   UNL     1       5.045   4.453  16.577  0.00  0.00    +0.000 NA
ATOM     27  C   UNL     1       5.918   3.401  16.024  0.00  0.00    +0.000 C 
ATOM     28  C   UNL     1       6.169   3.580  14.531  0.00  0.00    +0.000 C 
ATOM     29  C   UNL     1       6.695   4.970  14.261  0.00  0.00    +0.000 C 
ATOM     30  F   UNL     1       6.855   5.151  12.928  0.00  0.00    +0.000 F 
ATOM     31  F   UNL     1       7.932   5.104  14.813  0.00  0.00    +0.000 F 
ATOM     32  C   UNL     1       5.780   6.033  14.816  0.00  0.00    +0.000 C 
ATOM     33  C   UNL     1       5.570   5.798  16.303  0.00  0.00    +0.000 C 
ENDBRANCH  25  26
ENDBRANCH  24  25
ENDBRANCH  23  24
ENDBRANCH   1  23
TORSDOF 8
ENDMDL
MODEL 5
REMARK VINA RESULT:      -7.9      1.701      2.161
REMARK  Name = 
REMARK  8 active torsions:
REMARK  status: ('A' for Active; 'I' for Inactive)
REMARK    1  A    between atoms: C_2  and  O_3
REMARK    2  A    between atoms: C_2  and  C_4
REMARK    3  A    between atoms: C_10  and  C_11
REMARK    4  A    between atoms: C_11  and  O_12
REMARK    5  A    between atoms: C_11  and  C_23
REMARK    6  A    between atoms: O_12  and  C_13
REMARK    7  A    between atoms: C_13  and  C_14
REMARK    8  A    between atoms: C_14  and  N_15
REMARK                            x       y       z     vdW  Elec       q    Type
REMARK                         _______ _______ _______ _____ _____    ______ ____
ROOT
ATOM      1  C   UNL     1       2.613   6.307  19.244  0.00  0.00    +0.000 C 
ENDROOT
BRANCH   1   8
ATOM      2  C   UNL     1       0.578  10.856  20.003  0.00  0.00    +0.000 A 
ATOM      3  C   UNL     1      -0.149  11.390  21.066  0.00  0.00    +0.000 A 
ATOM      4  C   UNL     1      -0.358  10.614  22.191  0.00  0.00    +0.000 A 
ATOM      5  N   UNL     1       0.098   9.356  22.362  0.00  0.00    +0.000 NA
ATOM      6  C   UNL     1       0.749   8.825  21.300  0.00  0.00    +0.000 A 
ATOM      7  C   UNL     1       1.346   7.552  21.169  0.00  0.00    +0.000 A 
ATOM      8  C   UNL     1       1.856   7.444  19.882  0.00  0.00    +0.000 A 
ATOM      9  N   UNL     1       1.590   8.642  19.249  0.00  0.00    +0.000 N 
ATOM     10  C   UNL     1       0.969   9.517  20.117  0.00  0.00    +0.000 A 
ATOM     11  H   UNL     1       1.820   8.852  18.281  0.00  0.00    +0.000 HD
BRANCH   2  13
ATOM     12  O   UNL     1       0.233  12.556  18.394  0.00  0.00    +0.000 OA
ATOM     13  C   UNL     1       0.914  11.634  18.800  0.00  0.00    +0.000 C 
BRANCH  13  14
ATOM     14  O   UNL     1       2.010  11.175  18.150  0.00  0.00    +0.000 OA
ATOM     15  H   UNL     1       2.148  10.210  18.207  0.00  0.00    +0.000 HD
ENDBRANCH  13  14
ENDBRANCH   2  13
ENDBRANCH   1   8
BRANCH   1  16
ATOM     16  C   UNL     1       2.148   4.966  19.790  0.00  0.00    +0.000 A 
ATOM     17  C   UNL     1       2.387   4.655  21.145  0.00  0.00    +0.000 A 
ATOM     18  C   UNL     1       1.978   3.442  21.694  0.00  0.00    +0.000 A 
ATOM     19  C   UNL     1       1.320   2.511  20.897  0.00  0.00    +0.000 A 
ATOM     20  C   UNL     1       1.102   2.784  19.548  0.00  0.00    +0.000 A 
ATOM     21  C   UNL     1       1.517   3.998  18.993  0.00  0.00    +0.000 A 
ATOM     22 CL   UNL     1       1.267   4.213  17.296  0.00  0.00    +0.000 Cl
ENDBRANCH   1  16
BRANCH   1  23
ATOM     23  O   UNL     1       4.021   6.497  19.490  0.00  0.00    +0.000 OA
BRANCH  23  24
ATOM     24  C   UNL     1       4.725   5.242  19.444  0.00  0.00    +0.000 C 
BRANCH  24  25
ATOM     25  C   UNL     1       6.140   5.359  18.842  0.00  0.00    +0.000 C 
BRANCH  25  26
ATOM     26  N   UNL     1       6.388   4.669  17.552  0.00  0.00    +0.000 NA
ATOM     27  C   UNL     1       7.044   5.605  16.620  0.00  0.00    +0.000 C 
ATOM     28  C   UNL     1       7.320   4.972  15.261  0.00  0.00    +0.000 C 
ATOM     29  C   UNL     1       6.046   4.390  14.697  0.00  0.00    +0.000 C 
ATOM     30  F   UNL     1       6.305   3.768  13.520  0.00  0.00    +0.000 F 
ATOM     31  F   UNL     1       5.174   5.394  14.411  0.00  0.00    +0.000 F 
ATOM     32  C   UNL     1       5.399   3.420  15.654  0.00  0.00    +0.000 C 
ATOM     33  C   UNL     1       5.152   4.111  16.987  0.00  0.00    +0.000 C 
ENDBRANCH  25  26
ENDBRANCH  24  25
ENDBRANCH  23  24
ENDBRANCH   1  23
TORSDOF 8
ENDMDL
MODEL 6
REMARK VINA RESULT:      -7.8      1.092      1.562
REMARK  Name = 
REMARK  8 active torsions:
REMARK  status: ('A' for Active; 'I' for Inactive)
REMARK    1  A    between atoms: C_2  and  O_3
REMARK    2  A    between atoms: C_2  and  C_4
REMARK    3  A    between atoms: C_10  and  C_11
REMARK    4  A    between atoms: C_11  and  O_12
REMARK    5  A    between atoms: C_11  and  C_23
REMARK    6  A    between atoms: O_12  and  C_13
REMARK    7  A    between atoms: C_13  and  C_14
REMARK    8  A    between atoms: C_14  and  N_15
REMARK                            x       y       z     vdW  Elec       q    Type
REMARK                         _______ _______ _______ _____ _____    ______ ____
ROOT
ATOM      1  C   UNL     1       3.253   5.875  18.800  0.00  0.00    +0.000 C 
ENDROOT
BRANCH   1   8
ATOM      2  C   UNL     1       0.745   9.667  20.979  0.00  0.00    +0.000 A 
ATOM      3  C   UNL     1       0.130  10.803  20.457  0.00  0.00    +0.000 A 
ATOM      4  C   UNL     1       0.109  10.984  19.087  0.00  0.00    +0.000 A 
ATOM      5  N   UNL     1       0.636  10.132  18.183  0.00  0.00    +0.000 NA
ATOM      6  C   UNL     1       1.286   9.064  18.703  0.00  0.00    +0.000 A 
ATOM      7  C   UNL     1       1.929   8.000  18.031  0.00  0.00    +0.000 A 
ATOM      8  C   UNL     1       2.490   7.163  18.986  0.00  0.00    +0.000 A 
ATOM      9  N   UNL     1       2.175   7.699  20.218  0.00  0.00    +0.000 N 
ATOM     10  C   UNL     1       1.391   8.825  20.066  0.00  0.00    +0.000 A 
ATOM     11  H   UNL     1       2.475   7.319  21.112  0.00  0.00    +0.000 HD
BRANCH   2  13
ATOM     12  O   UNL     1      -0.265   9.284  23.084  0.00  0.00    +0.000 OA
ATOM     13  C   UNL     1       0.750   9.355  22.417  0.00  0.00    +0.000 C 
BRANCH  13  14
ATOM     14  O   UNL     1       1.994   9.230  22.938  0.00  0.00    +0.000 OA
ATOM     15  H   UNL     1       2.579   9.999  22.794  0.00  0.00    +0.000 HD
ENDBRANCH  13  14
ENDBRANCH   2  13
ENDBRANCH   1   8
BRANCH   1  16
ATOM     16  C   UNL     1       2.324   4.674  18.874  0.00  0.00    +0.000 A 
ATOM     17  C   UNL     1       1.781   4.150  17.682  0.00  0.00    +0.000 A 
ATOM     18  C   UNL     1       0.927   3.050  17.696  0.00  0.00    +0.000 A 
ATOM     19  C   UNL     1       0.596   2.448  18.905  0.00  0.00    +0.000 A 
ATOM     20  C   UNL     1       1.095   2.969  20.098  0.00  0.00    +0.000 A 
ATOM     21  C   UNL     1       1.948   4.078  20.088  0.00  0.00    +0.000 A 
ATOM     22 CL   UNL     1       2.455   4.693  21.621  0.00  0.00    +0.000 Cl
ENDBRANCH   1  16
BRANCH   1  23
ATOM     23  O   UNL     1       4.272   5.794  19.817  0.00  0.00    +0.000 OA
BRANCH  23  24
ATOM     24  C   UNL     1       5.582   5.706  19.225  0.00  0.00    +0.000 C 
BRANCH  24  25
ATOM     25  C   UNL     1       5.952   4.277  18.776  0.00  0.00    +0.000 C 
BRANCH  25  26
ATOM     26  N   UNL     1       6.371   4.098  17.364  0.00  0.00    +0.000 NA
ATOM     27  C   UNL     1       7.073   5.313  16.908  0.00  0.00    +0.000 C 
ATOM     28  C   UNL     1       7.525   5.212  15.456  0.00  0.00    +0.000 C 
ATOM     29  C   UNL     1       6.350   4.856  14.576  0.00  0.00    +0.000 C 
ATOM     30  F   UNL     1       6.764   4.700  13.295  0.00  0.00    +0.000 F 
ATOM     31  F   UNL     1       5.462   5.887  14.564  0.00  0.00    +0.000 F 
ATOM     32  C   UNL     1       5.656   3.602  15.044  0.00  0.00    +0.000 C 
ATOM     33  C   UNL     1       5.234   3.766  16.496  0.00  0.00    +0.000 C 
ENDBRANCH  25  26
ENDBRANCH  24  25
ENDBRANCH  23  24
ENDBRANCH   1  23
TORSDOF 8
ENDMDL
MODEL 7
REMARK VINA RESULT:      -7.8      3.375      5.450
REMARK  Name = 
REMARK  8 active torsions:
REMARK  status: ('A' for Active; 'I' for Inactive)
REMARK    1  A    between atoms: C_2  and  O_3
REMARK    2  A    between atoms: C_2  and  C_4
REMARK    3  A    between atoms: C_10  and  C_11
REMARK    4  A    between atoms: C_11  and  O_12
REMARK    5  A    between atoms: C_11  and  C_23
REMARK    6  A    between atoms: O_12  and  C_13
REMARK    7  A    between atoms: C_13  and  C_14
REMARK    8  A    between atoms: C_14  and  N_15
REMARK                            x       y       z     vdW  Elec       q    Type
REMARK                         _______ _______ _______ _____ _____    ______ ____
ROOT
ATOM      1  C   UNL     1       4.147   5.216  18.313  0.00  0.00    +0.000 C 
ENDROOT
BRANCH   1   8
ATOM      2  C   UNL     1       1.244   9.229  19.252  0.00  0.00    +0.000 A 
ATOM      3  C   UNL     1       0.437   9.566  20.338  0.00  0.00    +0.000 A 
ATOM      4  C   UNL     1       0.403   8.724  21.434  0.00  0.00    +0.000 A 
ATOM      5  N   UNL     1       1.106   7.579  21.556  0.00  0.00    +0.000 NA
ATOM      6  C   UNL     1       1.837   7.229  20.472  0.00  0.00    +0.000 A 
ATOM      7  C   UNL     1       2.678   6.109  20.290  0.00  0.00    +0.000 A 
ATOM      8  C   UNL     1       3.183   6.153  18.997  0.00  0.00    +0.000 A 
ATOM      9  N   UNL     1       2.673   7.294  18.411  0.00  0.00    +0.000 N 
ATOM     10  C   UNL     1       1.898   7.993  19.314  0.00  0.00    +0.000 A 
ATOM     11  H   UNL     1       2.844   7.581  17.451  0.00  0.00    +0.000 HD
BRANCH   2  13
ATOM     12  O   UNL     1       2.402  10.112  17.388  0.00  0.00    +0.000 OA
ATOM     13  C   UNL     1       1.400  10.101  18.078  0.00  0.00    +0.000 C 
BRANCH  13  14
ATOM     14  O   UNL     1       0.353  10.939  17.885  0.00  0.00    +0.000 OA
ATOM     15  H   UNL     1       0.352  11.732  18.455  0.00  0.00    +0.000 HD
ENDBRANCH  13  14
ENDBRANCH   2  13
ENDBRANCH   1   8
BRANCH   1  16
ATOM     16  C   UNL     1       5.551   5.801  18.286  0.00  0.00    +0.000 A 
ATOM     17  C   UNL     1       6.439   5.508  19.341  0.00  0.00    +0.000 A 
ATOM     18  C   UNL     1       7.735   6.017  19.361  0.00  0.00    +0.000 A 
ATOM     19  C   UNL     1       8.172   6.834  18.323  0.00  0.00    +0.000 A 
ATOM     20  C   UNL     1       7.301   7.163  17.286  0.00  0.00    +0.000 A 
ATOM     21  C   UNL     1       5.997   6.658  17.267  0.00  0.00    +0.000 A 
ATOM     22 CL   UNL     1       4.971   7.182  15.978  0.00  0.00    +0.000 Cl
ENDBRANCH   1  16
BRANCH   1  23
ATOM     23  O   UNL     1       3.674   4.965  16.975  0.00  0.00    +0.000 OA
BRANCH  23  24
ATOM     24  C   UNL     1       3.004   3.693  16.897  0.00  0.00    +0.000 C 
BRANCH  24  25
ATOM     25  C   UNL     1       3.652   2.608  17.782  0.00  0.00    +0.000 C 
BRANCH  25  26
ATOM     26  N   UNL     1       2.905   2.185  18.992  0.00  0.00    +0.000 NA
ATOM     27  C   UNL     1       1.560   2.788  18.967  0.00  0.00    +0.000 C 
ATOM     28  C   UNL     1       0.731   2.409  20.190  0.00  0.00    +0.000 C 
ATOM     29  C   UNL     1       1.493   2.743  21.450  0.00  0.00    +0.000 C 
ATOM     30  F   UNL     1       0.786   2.345  22.536  0.00  0.00    +0.000 F 
ATOM     31  F   UNL     1       1.626   4.093  21.558  0.00  0.00    +0.000 F 
ATOM     32  C   UNL     1       2.859   2.103  21.467  0.00  0.00    +0.000 C 
ATOM     33  C   UNL     1       3.631   2.517  20.225  0.00  0.00    +0.000 C 
ENDBRANCH  25  26
ENDBRANCH  24  25
ENDBRANCH  23  24
ENDBRANCH   1  23
TORSDOF 8
ENDMDL
MODEL 8
REMARK VINA RESULT:      -7.8      3.937      8.027
REMARK  Name = 
REMARK  8 active torsions:
REMARK  status: ('A' for Active; 'I' for Inactive)
REMARK    1  A    between atoms: C_2  and  O_3
REMARK    2  A    between atoms: C_2  and  C_4
REMARK    3  A    between atoms: C_10  and  C_11
REMARK    4  A    between atoms: C_11  and  O_12
REMARK    5  A    between atoms: C_11  and  C_23
REMARK    6  A    between atoms: O_12  and  C_13
REMARK    7  A    between atoms: C_13  and  C_14
REMARK    8  A    between atoms: C_14  and  N_15
REMARK                            x       y       z     vdW  Elec       q    Type
REMARK                         _______ _______ _______ _____ _____    ______ ____
ROOT
ATOM      1  C   UNL     1       2.918   6.298  19.675  0.00  0.00    +0.000 C 
ENDROOT
BRANCH   1   8
ATOM      2  C   UNL     1       7.108   5.120  17.132  0.00  0.00    +0.000 A 
ATOM      3  C   UNL     1       7.435   5.202  15.780  0.00  0.00    +0.000 A 
ATOM      4  C   UNL     1       6.516   5.743  14.900  0.00  0.00    +0.000 A 
ATOM      5  N   UNL     1       5.302   6.221  15.241  0.00  0.00    +0.000 NA
ATOM      6  C   UNL     1       4.970   6.080  16.546  0.00  0.00    +0.000 A 
ATOM      7  C   UNL     1       3.790   6.482  17.212  0.00  0.00    +0.000 A 
ATOM      8  C   UNL     1       3.887   6.086  18.540  0.00  0.00    +0.000 A 
ATOM      9  N   UNL     1       5.115   5.472  18.681  0.00  0.00    +0.000 N 
ATOM     10  C   UNL     1       5.813   5.512  17.491  0.00  0.00    +0.000 A 
ATOM     11  H   UNL     1       5.459   5.051  19.541  0.00  0.00    +0.000 HD
BRANCH   2  13
ATOM     12  O   UNL     1       8.909   3.800  17.915  0.00  0.00    +0.000 OA
ATOM     13  C   UNL     1       8.051   4.630  18.149  0.00  0.00    +0.000 C 
BRANCH  13  14
ATOM     14  O   UNL     1       7.822   5.135  19.385  0.00  0.00    +0.000 OA
ATOM     15  H   UNL     1       7.779   6.110  19.429  0.00  0.00    +0.000 HD
ENDBRANCH  13  14
ENDBRANCH   2  13
ENDBRANCH   1   8
BRANCH   1  16
ATOM     16  C   UNL     1       2.276   4.986  20.098  0.00  0.00    +0.000 A 
ATOM     17  C   UNL     1       2.493   4.505  21.406  0.00  0.00    +0.000 A 
ATOM     18  C   UNL     1       1.926   3.309  21.843  0.00  0.00    +0.000 A 
ATOM     19  C   UNL     1       1.128   2.568  20.978  0.00  0.00    +0.000 A 
ATOM     20  C   UNL     1       0.926   3.008  19.671  0.00  0.00    +0.000 A 
ATOM     21  C   UNL     1       1.500   4.204  19.228  0.00  0.00    +0.000 A 
ATOM     22 CL   UNL     1       1.251   4.629  17.571  0.00  0.00    +0.000 Cl
ENDBRANCH   1  16
BRANCH   1  23
ATOM     23  O   UNL     1       1.914   7.243  19.253  0.00  0.00    +0.000 OA
BRANCH  23  24
ATOM     24  C   UNL     1       1.569   8.140  20.325  0.00  0.00    +0.000 C 
BRANCH  24  25
ATOM     25  C   UNL     1       0.793   9.386  19.851  0.00  0.00    +0.000 C 
BRANCH  25  26
ATOM     26  N   UNL     1      -0.274   9.900  20.744  0.00  0.00    +0.000 NA
ATOM     27  C   UNL     1      -0.673  11.247  20.297  0.00  0.00    +0.000 C 
ATOM     28  C   UNL     1      -1.762  11.852  21.176  0.00  0.00    +0.000 C 
ATOM     29  C   UNL     1      -1.327  11.827  22.622  0.00  0.00    +0.000 C 
ATOM     30  F   UNL     1      -2.321  12.302  23.411  0.00  0.00    +0.000 F 
ATOM     31  F   UNL     1      -0.271  12.667  22.796  0.00  0.00    +0.000 F 
ATOM     32  C   UNL     1      -0.941  10.438  23.068  0.00  0.00    +0.000 C 
ATOM     33  C   UNL     1       0.143   9.893  22.152  0.00  0.00    +0.000 C 
ENDBRANCH  25  26
ENDBRANCH  24  25
ENDBRANCH  23  24
ENDBRANCH   1  23
TORSDOF 8
ENDMDL
MODEL 9
REMARK VINA RESULT:      -7.6      4.375      7.098
REMARK  Name = 
REMARK  8 active torsions:
REMARK  status: ('A' for Active; 'I' for Inactive)
REMARK    1  A    between atoms: C_2  and  O_3
REMARK    2  A    between atoms: C_2  and  C_4
REMARK    3  A    between atoms: C_10  and  C_11
REMARK    4  A    between atoms: C_11  and  O_12
REMARK    5  A    between atoms: C_11  and  C_23
REMARK    6  A    between atoms: O_12  and  C_13
REMARK    7  A    between atoms: C_13  and  C_14
REMARK    8  A    between atoms: C_14  and  N_15
REMARK                            x       y       z     vdW  Elec       q    Type
REMARK                         _______ _______ _______ _____ _____    ______ ____
ROOT
ATOM      1  C   UNL     1       0.709  10.355  18.641  0.00  0.00    +0.000 C 
ENDROOT
BRANCH   1   8
ATOM      2  C   UNL     1      -3.688  10.754  16.208  0.00  0.00    +0.000 A 
ATOM      3  C   UNL     1      -4.929  11.257  16.596  0.00  0.00    +0.000 A 
ATOM      4  C   UNL     1      -5.061  11.820  17.852  0.00  0.00    +0.000 A 
ATOM      5  N   UNL     1      -4.069  11.939  18.758  0.00  0.00    +0.000 NA
ATOM      6  C   UNL     1      -2.885  11.391  18.396  0.00  0.00    +0.000 A 
ATOM      7  C   UNL     1      -1.665  11.359  19.109  0.00  0.00    +0.000 A 
ATOM      8  C   UNL     1      -0.741  10.650  18.351  0.00  0.00    +0.000 A 
ATOM      9  N   UNL     1      -1.385  10.277  17.188  0.00  0.00    +0.000 N 
ATOM     10  C   UNL     1      -2.673  10.771  17.172  0.00  0.00    +0.000 A 
ATOM     11  H   UNL     1      -0.969   9.719  16.447  0.00  0.00    +0.000 HD
BRANCH   2  13
ATOM     12  O   UNL     1      -2.324  10.118  14.383  0.00  0.00    +0.000 OA
ATOM     13  C   UNL     1      -3.437  10.207  14.866  0.00  0.00    +0.000 C 
BRANCH  13  14
ATOM     14  O   UNL     1      -4.568   9.884  14.195  0.00  0.00    +0.000 OA
ATOM     15  H   UNL     1      -4.873   8.964  14.322  0.00  0.00    +0.000 HD
ENDBRANCH  13  14
ENDBRANCH   2  13
ENDBRANCH   1   8
BRANCH   1  16
ATOM     16  C   UNL     1       1.452  11.618  19.049  0.00  0.00    +0.000 A 
ATOM     17  C   UNL     1       2.218  12.307  18.085  0.00  0.00    +0.000 A 
ATOM     18  C   UNL     1       2.915  13.469  18.408  0.00  0.00    +0.000 A 
ATOM     19  C   UNL     1       2.861  13.968  19.705  0.00  0.00    +0.000 A 
ATOM     20  C   UNL     1       2.137  13.286  20.681  0.00  0.00    +0.000 A 
ATOM     21  C   UNL     1       1.442  12.115  20.361  0.00  0.00    +0.000 A 
ATOM     22 CL   UNL     1       0.634  11.303  21.656  0.00  0.00    +0.000 Cl
ENDBRANCH   1  16
BRANCH   1  23
ATOM     23  O   UNL     1       1.304   9.771  17.465  0.00  0.00    +0.000 OA
BRANCH  23  24
ATOM     24  C   UNL     1       1.625   8.385  17.685  0.00  0.00    +0.000 C 
BRANCH  24  25
ATOM     25  C   UNL     1       2.136   8.098  19.112  0.00  0.00    +0.000 C 
BRANCH  25  26
ATOM     26  N   UNL     1       2.622   6.725  19.394  0.00  0.00    +0.000 NA
ATOM     27  C   UNL     1       2.599   5.937  18.148  0.00  0.00    +0.000 C 
ATOM     28  C   UNL     1       3.073   4.503  18.360  0.00  0.00    +0.000 C 
ATOM     29  C   UNL     1       2.278   3.858  19.469  0.00  0.00    +0.000 C 
ATOM     30  F   UNL     1       2.744   2.606  19.703  0.00  0.00    +0.000 F 
ATOM     31  F   UNL     1       0.983   3.712  19.077  0.00  0.00    +0.000 F 
ATOM     32  C   UNL     1       2.329   4.667  20.741  0.00  0.00    +0.000 C 
ATOM     33  C   UNL     1       1.846   6.082  20.463  0.00  0.00    +0.000 C 
ENDBRANCH  25  26
ENDBRANCH  24  25
ENDBRANCH  23  24
ENDBRANCH   1  23
TORSDOF 8
ENDMDL
