MODEL 1
REMARK VINA RESULT:      -8.4      0.000      0.000
REMARK  Name = 
REMARK  3 active torsions:
REMARK  status: ('A' for Active; 'I' for Inactive)
REMARK    1  A    between atoms: C_1  and  C_2
REMARK    2  A    between atoms: C_8  and  C_9
REMARK    3  A    between atoms: C_11  and  C_12
REMARK                            x       y       z     vdW  Elec       q    Type
REMARK                         _______ _______ _______ _____ _____    ______ ____
ROOT
ATOM      1  C   UNL     1       6.760   4.005  12.319  0.00  0.00    +0.000 C 
ATOM      2  C   UNL     1       6.810   4.494  13.742  0.00  0.00    +0.000 C 
ATOM      3  O   UNL     1       7.792   5.087  14.171  0.00  0.00    +0.000 OA
ATOM      4  N   UNL     1       5.646   4.233  14.443  0.00  0.00    +0.000 N 
ATOM      5  C   UNL     1       5.466   4.483  15.770  0.00  0.00    +0.000 C 
ATOM      6  N   UNL     1       6.307   5.040  16.568  0.00  0.00    +0.000 NA
ATOM      7  N   UNL     1       5.827   5.069  17.856  0.00  0.00    +0.000 N 
ATOM      8  C   UNL     1       6.655   5.446  18.903  0.00  0.00    +0.000 C 
ATOM      9  C   UNL     1       8.001   6.028  18.537  0.00  0.00    +0.000 C 
ATOM     10  O   UNL     1       6.310   5.359  20.082  0.00  0.00    +0.000 OA
ATOM     11  C   UNL     1       4.550   4.388  18.098  0.00  0.00    +0.000 C 
ATOM     12  S   UNL     1       3.949   3.952  16.420  0.00  0.00    +0.000 S 
ATOM     13  H   UNL     1       4.894   3.748  13.978  0.00  0.00    +0.000 HD
ENDROOT
BRANCH  11  14
ATOM     14  C   UNL     1       3.531   5.186  18.872  0.00  0.00    +0.000 A 
ATOM     15  C   UNL     1       3.155   6.484  18.500  0.00  0.00    +0.000 A 
ATOM     16  C   UNL     1       2.289   7.238  19.306  0.00  0.00    +0.000 A 
ATOM     17  C   UNL     1       1.958   8.567  18.989  0.00  0.00    +0.000 A 
ATOM     18  C   UNL     1       1.115   9.292  19.828  0.00  0.00    +0.000 A 
ATOM     19 BR   UNL     1       0.676  11.079  19.402  0.00  0.00    +0.000 Br
ATOM     20  C   UNL     1       0.600   8.706  20.977  0.00  0.00    +0.000 A 
ATOM     21  C   UNL     1       0.934   7.383  21.285  0.00  0.00    +0.000 A 
ATOM     22  C   UNL     1       1.773   6.633  20.470  0.00  0.00    +0.000 A 
ATOM     23  N   UNL     1       2.072   5.372  20.811  0.00  0.00    +0.000 NA
ATOM     24  C   UNL     1       2.937   4.690  20.026  0.00  0.00    +0.000 A 
ATOM     25 CL   UNL     1       3.225   3.097  20.621  0.00  0.00    +0.000 Cl
ENDBRANCH  11  14
TORSDOF 1
ENDMDL
MODEL 2
REMARK VINA RESULT:      -6.6      5.803      9.004
REMARK  Name = 
REMARK  3 active torsions:
REMARK  status: ('A' for Active; 'I' for Inactive)
REMARK    1  A    between atoms: C_1  and  C_2
REMARK    2  A    between atoms: C_8  and  C_9
REMARK    3  A    between atoms: C_11  and  C_12
REMARK                            x       y       z     vdW  Elec       q    Type
REMARK                         _______ _______ _______ _____ _____    ______ ____
ROOT
ATOM      1  C   UNL     1      -5.966  12.756  19.185  0.00  0.00    +0.000 C 
ATOM      2  C   UNL     1      -4.524  12.720  19.615  0.00  0.00    +0.000 C 
ATOM      3  O   UNL     1      -4.119  13.430  20.528  0.00  0.00    +0.000 OA
ATOM      4  N   UNL     1      -3.773  11.799  18.906  0.00  0.00    +0.000 N 
ATOM      5  C   UNL     1      -2.426  11.636  19.030  0.00  0.00    +0.000 C 
ATOM      6  N   UNL     1      -1.648  12.256  19.845  0.00  0.00    +0.000 NA
ATOM      7  N   UNL     1      -0.335  11.898  19.650  0.00  0.00    +0.000 N 
ATOM      8  C   UNL     1       0.682  12.593  20.287  0.00  0.00    +0.000 C 
ATOM      9  C   UNL     1       0.272  13.584  21.352  0.00  0.00    +0.000 C 
ATOM     10  O   UNL     1       1.872  12.396  20.040  0.00  0.00    +0.000 OA
ATOM     11  C   UNL     1      -0.058  10.999  18.523  0.00  0.00    +0.000 C 
ATOM     12  S   UNL     1      -1.720  10.489  17.938  0.00  0.00    +0.000 S 
ATOM     13  H   UNL     1      -4.220  11.258  18.182  0.00  0.00    +0.000 HD
ENDROOT
BRANCH  11  14
ATOM     14  C   UNL     1       0.815   9.812  18.846  0.00  0.00    +0.000 A 
ATOM     15  C   UNL     1       1.783   9.329  17.955  0.00  0.00    +0.000 A 
ATOM     16  C   UNL     1       2.497   8.155  18.240  0.00  0.00    +0.000 A 
ATOM     17  C   UNL     1       3.419   7.614  17.327  0.00  0.00    +0.000 A 
ATOM     18  C   UNL     1       4.091   6.434  17.635  0.00  0.00    +0.000 A 
ATOM     19 BR   UNL     1       5.325   5.707  16.405  0.00  0.00    +0.000 Br
ATOM     20  C   UNL     1       3.853   5.790  18.844  0.00  0.00    +0.000 A 
ATOM     21  C   UNL     1       2.934   6.335  19.746  0.00  0.00    +0.000 A 
ATOM     22  C   UNL     1       2.247   7.510  19.468  0.00  0.00    +0.000 A 
ATOM     23  N   UNL     1       1.370   7.989  20.360  0.00  0.00    +0.000 NA
ATOM     24  C   UNL     1       0.676   9.104  20.034  0.00  0.00    +0.000 A 
ATOM     25 CL   UNL     1      -0.420   9.567  21.281  0.00  0.00    +0.000 Cl
ENDBRANCH  11  14
TORSDOF 1
ENDMDL
MODEL 3
REMARK VINA RESULT:      -6.2      5.912      8.793
REMARK  Name = 
REMARK  3 active torsions:
REMARK  status: ('A' for Active; 'I' for Inactive)
REMARK    1  A    between atoms: C_1  and  C_2
REMARK    2  A    between atoms: C_8  and  C_9
REMARK    3  A    between atoms: C_11  and  C_12
REMARK                            x       y       z     vdW  Elec       q    Type
REMARK                         _______ _______ _______ _____ _____    ______ ____
ROOT
ATOM      1  C   UNL     1       0.982  17.254  19.398  0.00  0.00    +0.000 C 
ATOM      2  C   UNL     1       0.477  15.899  18.980  0.00  0.00    +0.000 C 
ATOM      3  O   UNL     1      -0.210  15.764  17.973  0.00  0.00    +0.000 OA
ATOM      4  N   UNL     1       0.902  14.883  19.817  0.00  0.00    +0.000 N 
ATOM      5  C   UNL     1       0.509  13.582  19.721  0.00  0.00    +0.000 C 
ATOM      6  N   UNL     1      -0.263  13.076  18.825  0.00  0.00    +0.000 NA
ATOM      7  N   UNL     1      -0.508  11.746  19.072  0.00  0.00    +0.000 N 
ATOM      8  C   UNL     1      -1.470  11.065  18.342  0.00  0.00    +0.000 C 
ATOM      9  C   UNL     1      -2.053  11.777  17.143  0.00  0.00    +0.000 C 
ATOM     10  O   UNL     1      -1.816   9.916  18.617  0.00  0.00    +0.000 OA
ATOM     11  C   UNL     1       0.038  11.197  20.318  0.00  0.00    +0.000 C 
ATOM     12  S   UNL     1       1.107  12.539  20.970  0.00  0.00    +0.000 S 
ATOM     13  H   UNL     1       1.479  15.114  20.611  0.00  0.00    +0.000 HD
ENDROOT
BRANCH  11  14
ATOM     14  C   UNL     1       0.790   9.897  20.174  0.00  0.00    +0.000 A 
ATOM     15  C   UNL     1       1.667   9.651  19.108  0.00  0.00    +0.000 A 
ATOM     16  C   UNL     1       2.261   8.391  18.946  0.00  0.00    +0.000 A 
ATOM     17  C   UNL     1       3.085   8.103  17.844  0.00  0.00    +0.000 A 
ATOM     18  C   UNL     1       3.637   6.832  17.703  0.00  0.00    +0.000 A 
ATOM     19 BR   UNL     1       4.739   6.446  16.219  0.00  0.00    +0.000 Br
ATOM     20  C   UNL     1       3.377   5.848  18.649  0.00  0.00    +0.000 A 
ATOM     21  C   UNL     1       2.556   6.144  19.743  0.00  0.00    +0.000 A 
ATOM     22  C   UNL     1       1.989   7.401  19.911  0.00  0.00    +0.000 A 
ATOM     23  N   UNL     1       1.203   7.635  20.971  0.00  0.00    +0.000 NA
ATOM     24  C   UNL     1       0.621   8.851  21.074  0.00  0.00    +0.000 A 
ATOM     25 CL   UNL     1      -0.371   8.972  22.479  0.00  0.00    +0.000 Cl
ENDBRANCH  11  14
TORSDOF 1
ENDMDL
MODEL 4
REMARK VINA RESULT:      -6.1      5.579      8.793
REMARK  Name = 
REMARK  3 active torsions:
REMARK  status: ('A' for Active; 'I' for Inactive)
REMARK    1  A    between atoms: C_1  and  C_2
REMARK    2  A    between atoms: C_8  and  C_9
REMARK    3  A    between atoms: C_11  and  C_12
REMARK                            x       y       z     vdW  Elec       q    Type
REMARK                         _______ _______ _______ _____ _____    ______ ____
ROOT
ATOM      1  C   UNL     1      -3.968  14.217  21.436  0.00  0.00    +0.000 C 
ATOM      2  C   UNL     1      -2.566  13.908  20.984  0.00  0.00    +0.000 C 
ATOM      3  O   UNL     1      -1.669  14.734  21.099  0.00  0.00    +0.000 OA
ATOM      4  N   UNL     1      -2.431  12.623  20.487  0.00  0.00    +0.000 N 
ATOM      5  C   UNL     1      -1.296  12.125  19.923  0.00  0.00    +0.000 C 
ATOM      6  N   UNL     1      -0.165  12.727  19.808  0.00  0.00    +0.000 NA
ATOM      7  N   UNL     1       0.743  11.955  19.123  0.00  0.00    +0.000 N 
ATOM      8  C   UNL     1       1.954  12.495  18.719  0.00  0.00    +0.000 C 
ATOM      9  C   UNL     1       2.309  13.863  19.254  0.00  0.00    +0.000 C 
ATOM     10  O   UNL     1       2.739  11.886  17.991  0.00  0.00    +0.000 OA
ATOM     11  C   UNL     1       0.248  10.688  18.574  0.00  0.00    +0.000 C 
ATOM     12  S   UNL     1      -1.438  10.521  19.279  0.00  0.00    +0.000 S 
ATOM     13  H   UNL     1      -3.242  12.025  20.454  0.00  0.00    +0.000 HD
ENDROOT
BRANCH  11  14
ATOM     14  C   UNL     1       1.103   9.481  18.866  0.00  0.00    +0.000 A 
ATOM     15  C   UNL     1       1.955   8.915  17.908  0.00  0.00    +0.000 A 
ATOM     16  C   UNL     1       2.650   7.727  18.179  0.00  0.00    +0.000 A 
ATOM     17  C   UNL     1       3.452   7.104  17.207  0.00  0.00    +0.000 A 
ATOM     18  C   UNL     1       4.106   5.912  17.505  0.00  0.00    +0.000 A 
ATOM     19 BR   UNL     1       5.178   5.075  16.195  0.00  0.00    +0.000 Br
ATOM     20  C   UNL     1       3.969   5.336  18.763  0.00  0.00    +0.000 A 
ATOM     21  C   UNL     1       3.170   5.962  19.725  0.00  0.00    +0.000 A 
ATOM     22  C   UNL     1       2.503   7.151  19.458  0.00  0.00    +0.000 A 
ATOM     23  N   UNL     1       1.742   7.709  20.408  0.00  0.00    +0.000 NA
ATOM     24  C   UNL     1       1.061   8.836  20.097  0.00  0.00    +0.000 A 
ATOM     25 CL   UNL     1       0.118   9.405  21.424  0.00  0.00    +0.000 Cl
ENDBRANCH  11  14
TORSDOF 1
ENDMDL
MODEL 5
REMARK VINA RESULT:      -6.1      8.062     10.022
REMARK  Name = 
REMARK  3 active torsions:
REMARK  status: ('A' for Active; 'I' for Inactive)
REMARK    1  A    between atoms: C_1  and  C_2
REMARK    2  A    between atoms: C_8  and  C_9
REMARK    3  A    between atoms: C_11  and  C_12
REMARK                            x       y       z     vdW  Elec       q    Type
REMARK                         _______ _______ _______ _____ _____    ______ ____
ROOT
ATOM      1  C   UNL     1       3.863  15.899  20.976  0.00  0.00    +0.000 C 
ATOM      2  C   UNL     1       2.992  14.672  21.028  0.00  0.00    +0.000 C 
ATOM      3  O   UNL     1       3.255  13.743  21.783  0.00  0.00    +0.000 OA
ATOM      4  N   UNL     1       1.897  14.751  20.186  0.00  0.00    +0.000 N 
ATOM      5  C   UNL     1       1.009  13.742  19.971  0.00  0.00    +0.000 C 
ATOM      6  N   UNL     1       1.003  12.588  20.540  0.00  0.00    +0.000 NA
ATOM      7  N   UNL     1       0.007  11.788  20.032  0.00  0.00    +0.000 N 
ATOM      8  C   UNL     1      -0.047  10.443  20.365  0.00  0.00    +0.000 C 
ATOM      9  C   UNL     1       0.878   9.970  21.464  0.00  0.00    +0.000 C 
ATOM     10  O   UNL     1      -0.836   9.661  19.834  0.00  0.00    +0.000 OA
ATOM     11  C   UNL     1      -0.761  12.328  18.905  0.00  0.00    +0.000 C 
ATOM     12  S   UNL     1      -0.205  14.072  18.777  0.00  0.00    +0.000 S 
ATOM     13  H   UNL     1       1.776  15.576  19.619  0.00  0.00    +0.000 HD
ENDROOT
BRANCH  11  14
ATOM     14  C   UNL     1      -2.260  12.223  19.038  0.00  0.00    +0.000 A 
ATOM     15  C   UNL     1      -2.945  12.666  20.178  0.00  0.00    +0.000 A 
ATOM     16  C   UNL     1      -4.325  12.449  20.314  0.00  0.00    +0.000 A 
ATOM     17  C   UNL     1      -5.016  12.820  21.481  0.00  0.00    +0.000 A 
ATOM     18  C   UNL     1      -6.381  12.566  21.590  0.00  0.00    +0.000 A 
ATOM     19 BR   UNL     1      -7.306  13.061  23.160  0.00  0.00    +0.000 Br
ATOM     20  C   UNL     1      -7.062  11.948  20.548  0.00  0.00    +0.000 A 
ATOM     21  C   UNL     1      -6.366  11.582  19.391  0.00  0.00    +0.000 A 
ATOM     22  C   UNL     1      -5.004  11.821  19.252  0.00  0.00    +0.000 A 
ATOM     23  N   UNL     1      -4.379  11.445  18.128  0.00  0.00    +0.000 NA
ATOM     24  C   UNL     1      -3.043  11.639  18.048  0.00  0.00    +0.000 A 
ATOM     25 CL   UNL     1      -2.400  11.080  16.550  0.00  0.00    +0.000 Cl
ENDBRANCH  11  14
TORSDOF 1
ENDMDL
MODEL 6
REMARK VINA RESULT:      -6.1      5.309      7.687
REMARK  Name = 
REMARK  3 active torsions:
REMARK  status: ('A' for Active; 'I' for Inactive)
REMARK    1  A    between atoms: C_1  and  C_2
REMARK    2  A    between atoms: C_8  and  C_9
REMARK    3  A    between atoms: C_11  and  C_12
REMARK                            x       y       z     vdW  Elec       q    Type
REMARK                         _______ _______ _______ _____ _____    ______ ____
ROOT
ATOM      1  C   UNL     1       3.548   4.876  18.855  0.00  0.00    +0.000 C 
ATOM      2  C   UNL     1       2.860   6.013  19.562  0.00  0.00    +0.000 C 
ATOM      3  O   UNL     1       2.675   5.984  20.773  0.00  0.00    +0.000 OA
ATOM      4  N   UNL     1       2.523   7.051  18.711  0.00  0.00    +0.000 N 
ATOM      5  C   UNL     1       1.808   8.152  19.076  0.00  0.00    +0.000 C 
ATOM      6  N   UNL     1       1.381   8.436  20.256  0.00  0.00    +0.000 NA
ATOM      7  N   UNL     1       0.633   9.589  20.250  0.00  0.00    +0.000 N 
ATOM      8  C   UNL     1      -0.082   9.964  21.377  0.00  0.00    +0.000 C 
ATOM      9  C   UNL     1       0.180   9.186  22.646  0.00  0.00    +0.000 C 
ATOM     10  O   UNL     1      -0.868  10.912  21.376  0.00  0.00    +0.000 OA
ATOM     11  C   UNL     1       0.373  10.199  18.941  0.00  0.00    +0.000 C 
ATOM     12  S   UNL     1       1.428   9.243  17.783  0.00  0.00    +0.000 S 
ATOM     13  H   UNL     1       2.739   6.968  17.730  0.00  0.00    +0.000 HD
ENDROOT
BRANCH  11  14
ATOM     14  C   UNL     1       0.641  11.680  18.855  0.00  0.00    +0.000 A 
ATOM     15  C   UNL     1       1.896  12.234  19.144  0.00  0.00    +0.000 A 
ATOM     16  C   UNL     1       2.079  13.625  19.164  0.00  0.00    +0.000 A 
ATOM     17  C   UNL     1       3.310  14.201  19.522  0.00  0.00    +0.000 A 
ATOM     18  C   UNL     1       3.446  15.586  19.555  0.00  0.00    +0.000 A 
ATOM     19 BR   UNL     1       5.099  16.357  20.042  0.00  0.00    +0.000 Br
ATOM     20  C   UNL     1       2.367  16.401  19.233  0.00  0.00    +0.000 A 
ATOM     21  C   UNL     1       1.145  15.820  18.877  0.00  0.00    +0.000 A 
ATOM     22  C   UNL     1       0.978  14.442  18.837  0.00  0.00    +0.000 A 
ATOM     23  N   UNL     1      -0.214  13.931  18.498  0.00  0.00    +0.000 NA
ATOM     24  C   UNL     1      -0.360  12.587  18.524  0.00  0.00    +0.000 A 
ATOM     25 CL   UNL     1      -1.956  12.104  18.085  0.00  0.00    +0.000 Cl
ENDBRANCH  11  14
TORSDOF 1
ENDMDL
MODEL 7
REMARK VINA RESULT:      -6.1      3.538      7.448
REMARK  Name = 
REMARK  3 active torsions:
REMARK  status: ('A' for Active; 'I' for Inactive)
REMARK    1  A    between atoms: C_1  and  C_2
REMARK    2  A    between atoms: C_8  and  C_9
REMARK    3  A    between atoms: C_11  and  C_12
REMARK                            x       y       z     vdW  Elec       q    Type
REMARK                         _______ _______ _______ _____ _____    ______ ____
ROOT
ATOM      1  C   UNL     1       1.042   8.257  21.615  0.00  0.00    +0.000 C 
ATOM      2  C   UNL     1       1.351   7.034  20.793  0.00  0.00    +0.000 C 
ATOM      3  O   UNL     1       0.524   6.141  20.655  0.00  0.00    +0.000 OA
ATOM      4  N   UNL     1       2.608   7.076  20.217  0.00  0.00    +0.000 N 
ATOM      5  C   UNL     1       3.172   6.058  19.509  0.00  0.00    +0.000 C 
ATOM      6  N   UNL     1       2.625   4.931  19.214  0.00  0.00    +0.000 NA
ATOM      7  N   UNL     1       3.505   4.109  18.551  0.00  0.00    +0.000 N 
ATOM      8  C   UNL     1       3.181   2.781  18.318  0.00  0.00    +0.000 C 
ATOM      9  C   UNL     1       1.761   2.359  18.617  0.00  0.00    +0.000 C 
ATOM     10  O   UNL     1       3.987   1.977  17.850  0.00  0.00    +0.000 OA
ATOM     11  C   UNL     1       4.881   4.598  18.406  0.00  0.00    +0.000 C 
ATOM     12  S   UNL     1       4.805   6.334  18.996  0.00  0.00    +0.000 S 
ATOM     13  H   UNL     1       3.200   7.874  20.392  0.00  0.00    +0.000 HD
ENDROOT
BRANCH  11  14
ATOM     14  C   UNL     1       5.456   4.500  17.015  0.00  0.00    +0.000 A 
ATOM     15  C   UNL     1       4.652   4.315  15.882  0.00  0.00    +0.000 A 
ATOM     16  C   UNL     1       5.229   4.115  14.619  0.00  0.00    +0.000 A 
ATOM     17  C   UNL     1       4.443   3.855  13.483  0.00  0.00    +0.000 A 
ATOM     18  C   UNL     1       5.053   3.637  12.250  0.00  0.00    +0.000 A 
ATOM     19 BR   UNL     1       3.994   3.282  10.727  0.00  0.00    +0.000 Br
ATOM     20  C   UNL     1       6.438   3.677  12.140  0.00  0.00    +0.000 A 
ATOM     21  C   UNL     1       7.213   3.937  13.275  0.00  0.00    +0.000 A 
ATOM     22  C   UNL     1       6.634   4.157  14.519  0.00  0.00    +0.000 A 
ATOM     23  N   UNL     1       7.418   4.394  15.579  0.00  0.00    +0.000 NA
ATOM     24  C   UNL     1       6.826   4.547  16.785  0.00  0.00    +0.000 A 
ATOM     25 CL   UNL     1       7.979   4.821  18.037  0.00  0.00    +0.000 Cl
ENDBRANCH  11  14
TORSDOF 1
ENDMDL
MODEL 8
REMARK VINA RESULT:      -6.1      8.399     10.534
REMARK  Name = 
REMARK  3 active torsions:
REMARK  status: ('A' for Active; 'I' for Inactive)
REMARK    1  A    between atoms: C_1  and  C_2
REMARK    2  A    between atoms: C_8  and  C_9
REMARK    3  A    between atoms: C_11  and  C_12
REMARK                            x       y       z     vdW  Elec       q    Type
REMARK                         _______ _______ _______ _____ _____    ______ ____
ROOT
ATOM      1  C   UNL     1      -7.822  13.124  18.367  0.00  0.00    +0.000 C 
ATOM      2  C   UNL     1      -6.443  12.578  18.112  0.00  0.00    +0.000 C 
ATOM      3  O   UNL     1      -6.179  11.991  17.068  0.00  0.00    +0.000 OA
ATOM      4  N   UNL     1      -5.557  12.848  19.139  0.00  0.00    +0.000 N 
ATOM      5  C   UNL     1      -4.278  12.384  19.204  0.00  0.00    +0.000 C 
ATOM      6  N   UNL     1      -3.671  11.676  18.318  0.00  0.00    +0.000 NA
ATOM      7  N   UNL     1      -2.412  11.322  18.741  0.00  0.00    +0.000 N 
ATOM      8  C   UNL     1      -1.668  10.397  18.024  0.00  0.00    +0.000 C 
ATOM      9  C   UNL     1      -2.202   9.988  16.670  0.00  0.00    +0.000 C 
ATOM     10  O   UNL     1      -0.596   9.951  18.433  0.00  0.00    +0.000 OA
ATOM     11  C   UNL     1      -2.047  11.700  20.111  0.00  0.00    +0.000 C 
ATOM     12  S   UNL     1      -3.424  12.781  20.660  0.00  0.00    +0.000 S 
ATOM     13  H   UNL     1      -5.886  13.354  19.948  0.00  0.00    +0.000 HD
ENDROOT
BRANCH  11  14
ATOM     14  C   UNL     1      -0.707  12.376  20.257  0.00  0.00    +0.000 A 
ATOM     15  C   UNL     1      -0.283  13.397  19.393  0.00  0.00    +0.000 A 
ATOM     16  C   UNL     1       1.014  13.924  19.489  0.00  0.00    +0.000 A 
ATOM     17  C   UNL     1       1.482  14.895  18.587  0.00  0.00    +0.000 A 
ATOM     18  C   UNL     1       2.783  15.376  18.698  0.00  0.00    +0.000 A 
ATOM     19 BR   UNL     1       3.411  16.677  17.481  0.00  0.00    +0.000 Br
ATOM     20  C   UNL     1       3.621  14.900  19.700  0.00  0.00    +0.000 A 
ATOM     21  C   UNL     1       3.147  13.934  20.593  0.00  0.00    +0.000 A 
ATOM     22  C   UNL     1       1.854  13.433  20.508  0.00  0.00    +0.000 A 
ATOM     23  N   UNL     1       1.448  12.502  21.382  0.00  0.00    +0.000 NA
ATOM     24  C   UNL     1       0.203  11.993  21.235  0.00  0.00    +0.000 A 
ATOM     25 CL   UNL     1      -0.146  10.796  22.426  0.00  0.00    +0.000 Cl
ENDBRANCH  11  14
TORSDOF 1
ENDMDL
MODEL 9
REMARK VINA RESULT:      -5.7      8.503     10.707
REMARK  Name = 
REMARK  3 active torsions:
REMARK  status: ('A' for Active; 'I' for Inactive)
REMARK    1  A    between atoms: C_1  and  C_2
REMARK    2  A    between atoms: C_8  and  C_9
REMARK    3  A    between atoms: C_11  and  C_12
REMARK                            x       y       z     vdW  Elec       q    Type
REMARK                         _______ _______ _______ _____ _____    ______ ____
ROOT
ATOM      1  C   UNL     1      -3.638  11.199  15.926  0.00  0.00    +0.000 C 
ATOM      2  C   UNL     1      -2.766  11.192  17.153  0.00  0.00    +0.000 C 
ATOM      3  O   UNL     1      -1.700  10.587  17.166  0.00  0.00    +0.000 OA
ATOM      4  N   UNL     1      -3.285  11.951  18.187  0.00  0.00    +0.000 N 
ATOM      5  C   UNL     1      -2.745  12.033  19.435  0.00  0.00    +0.000 C 
ATOM      6  N   UNL     1      -1.659  11.478  19.841  0.00  0.00    +0.000 NA
ATOM      7  N   UNL     1      -1.450  11.713  21.180  0.00  0.00    +0.000 N 
ATOM      8  C   UNL     1      -0.445  11.041  21.859  0.00  0.00    +0.000 C 
ATOM      9  C   UNL     1       0.528  10.238  21.026  0.00  0.00    +0.000 C 
ATOM     10  O   UNL     1      -0.307  11.118  23.080  0.00  0.00    +0.000 OA
ATOM     11  C   UNL     1      -2.514  12.425  21.897  0.00  0.00    +0.000 C 
ATOM     12  S   UNL     1      -3.663  12.966  20.573  0.00  0.00    +0.000 S 
ATOM     13  H   UNL     1      -4.169  12.418  18.055  0.00  0.00    +0.000 HD
ENDROOT
BRANCH  11  14
ATOM     14  C   UNL     1      -2.053  13.581  22.750  0.00  0.00    +0.000 A 
ATOM     15  C   UNL     1      -1.002  14.425  22.366  0.00  0.00    +0.000 A 
ATOM     16  C   UNL     1      -0.527  15.419  23.235  0.00  0.00    +0.000 A 
ATOM     17  C   UNL     1       0.573  16.227  22.898  0.00  0.00    +0.000 A 
ATOM     18  C   UNL     1       1.032  17.185  23.797  0.00  0.00    +0.000 A 
ATOM     19 BR   UNL     1       2.513  18.266  23.344  0.00  0.00    +0.000 Br
ATOM     20  C   UNL     1       0.405  17.346  25.027  0.00  0.00    +0.000 A 
ATOM     21  C   UNL     1      -0.689  16.538  25.354  0.00  0.00    +0.000 A 
ATOM     22  C   UNL     1      -1.170  15.572  24.480  0.00  0.00    +0.000 A 
ATOM     23  N   UNL     1      -2.215  14.816  24.841  0.00  0.00    +0.000 NA
ATOM     24  C   UNL     1      -2.622  13.846  23.990  0.00  0.00    +0.000 A 
ATOM     25 CL   UNL     1      -3.959  12.958  24.619  0.00  0.00    +0.000 Cl
ENDBRANCH  11  14
TORSDOF 1
ENDMDL
