MODEL 1
REMARK VINA RESULT:      -6.5      0.000      0.000
REMARK  Name = 
REMARK  19 active torsions:
REMARK  status: ('A' for Active; 'I' for Inactive)
REMARK    1  A    between atoms: C_1  and  C_2
REMARK    2  A    between atoms: C_2  and  C_3
REMARK    3  A    between atoms: C_3  and  C_4
REMARK    4  A    between atoms: C_4  and  C_5
REMARK    5  A    between atoms: C_5  and  C_6
REMARK    6  A    between atoms: C_7  and  C_8
REMARK    7  A    between atoms: C_8  and  C_9
REMARK    8  A    between atoms: C_10  and  C_11
REMARK    9  A    between atoms: C_11  and  C_12
REMARK   10  A    between atoms: C_13  and  C_14
REMARK   11  A    between atoms: C_14  and  C_15
REMARK   12  A    between atoms: C_16  and  C_17
REMARK   13  A    between atoms: C_17  and  C_18
REMARK   14  A    between atoms: C_18  and  C_19
REMARK   15  A    between atoms: C_19  and  C_20
REMARK   16  A    between atoms: C_20  and  O_22
REMARK   17  A    between atoms: O_22  and  C_23
REMARK   18  A    between atoms: C_23  and  C_24
REMARK   19  A    between atoms: C_23  and  C_25
REMARK                            x       y       z     vdW  Elec       q    Type
REMARK                         _______ _______ _______ _____ _____    ______ ____
ROOT
ATOM      1  C   UNL     1       1.985   5.864  18.446  0.00  0.00    +0.000 C 
ATOM      2  C   UNL     1       2.014   7.013  17.752  0.00  0.00    +0.000 C 
ENDROOT
BRANCH   1   3
ATOM      3  C   UNL     1       2.442   5.712  19.864  0.00  0.00    +0.000 C 
BRANCH   3   5
ATOM      4  C   UNL     1       1.609   3.592  20.903  0.00  0.00    +0.000 C 
ATOM      5  C   UNL     1       1.487   4.911  20.688  0.00  0.00    +0.000 C 
BRANCH   4   6
ATOM      6  C   UNL     1       2.696   2.692  20.370  0.00  0.00    +0.000 C 
BRANCH   6   8
ATOM      7  C   UNL     1       2.977   2.049  17.933  0.00  0.00    +0.000 C 
ATOM      8  C   UNL     1       2.314   1.979  19.098  0.00  0.00    +0.000 C 
BRANCH   7   9
ATOM      9  C   UNL     1       4.178   2.918  17.738  0.00  0.00    +0.000 C 
BRANCH   9  11
ATOM     10  C   UNL     1       4.854   4.427  15.861  0.00  0.00    +0.000 C 
ATOM     11  C   UNL     1       3.948   4.035  16.773  0.00  0.00    +0.000 C 
BRANCH  10  12
ATOM     12  C   UNL     1       6.223   3.815  15.746  0.00  0.00    +0.000 C 
BRANCH  12  13
ATOM     13  C   UNL     1       7.338   4.762  16.169  0.00  0.00    +0.000 C 
BRANCH  13  14
ATOM     14  C   UNL     1       7.640   4.591  17.658  0.00  0.00    +0.000 C 
BRANCH  14  16
ATOM     15  C   UNL     1       7.396   7.091  17.587  0.00  0.00    +0.000 C 
ATOM     16  C   UNL     1       7.263   5.844  18.442  0.00  0.00    +0.000 C 
ENDBRANCH  14  16
ENDBRANCH  13  14
ENDBRANCH  12  13
ENDBRANCH  10  12
ENDBRANCH   9  11
ENDBRANCH   7   9
ENDBRANCH   6   8
ENDBRANCH   4   6
ENDBRANCH   3   5
ENDBRANCH   1   3
BRANCH   2  17
ATOM     17  C   UNL     1       2.457   8.343  18.298  0.00  0.00    +0.000 C 
BRANCH  17  18
ATOM     18  C   UNL     1       1.331   9.112  18.992  0.00  0.00    +0.000 C 
BRANCH  18  19
ATOM     19  C   UNL     1       0.393   9.794  18.000  0.00  0.00    +0.000 C 
BRANCH  19  20
ATOM     20  C   UNL     1      -0.769  10.458  18.696  0.00  0.00    +0.000 C 
ATOM     21  O   UNL     1      -0.692  11.182  19.676  0.00  0.00    +0.000 OA
BRANCH  20  22
ATOM     22  O   UNL     1      -1.919  10.120  18.054  0.00  0.00    +0.000 OA
BRANCH  22  23
ATOM     23  C   UNL     1      -2.504  11.153  17.247  0.00  0.00    +0.000 C 
ATOM     24  C   UNL     1      -2.679  10.660  15.815  0.00  0.00    +0.000 C 
BRANCH  23  25
ATOM     25  C   UNL     1      -3.833  11.449  17.859  0.00  0.00    +0.000 A 
ATOM     26  C   UNL     1      -5.139  11.240  17.459  0.00  0.00    +0.000 A 
ATOM     27  C   UNL     1      -5.963  11.776  18.476  0.00  0.00    +0.000 A 
ATOM     28  C   UNL     1      -5.113  12.276  19.433  0.00  0.00    +0.000 A 
ATOM     29  O   UNL     1      -3.819  12.082  19.069  0.00  0.00    +0.000 OA
ENDBRANCH  23  25
ENDBRANCH  22  23
ENDBRANCH  20  22
ENDBRANCH  19  20
ENDBRANCH  18  19
ENDBRANCH  17  18
ENDBRANCH   2  17
TORSDOF 17
ENDMDL
MODEL 2
REMARK VINA RESULT:      -6.5      5.732     10.040
REMARK  Name = 
REMARK  19 active torsions:
REMARK  status: ('A' for Active; 'I' for Inactive)
REMARK    1  A    between atoms: C_1  and  C_2
REMARK    2  A    between atoms: C_2  and  C_3
REMARK    3  A    between atoms: C_3  and  C_4
REMARK    4  A    between atoms: C_4  and  C_5
REMARK    5  A    between atoms: C_5  and  C_6
REMARK    6  A    between atoms: C_7  and  C_8
REMARK    7  A    between atoms: C_8  and  C_9
REMARK    8  A    between atoms: C_10  and  C_11
REMARK    9  A    between atoms: C_11  and  C_12
REMARK   10  A    between atoms: C_13  and  C_14
REMARK   11  A    between atoms: C_14  and  C_15
REMARK   12  A    between atoms: C_16  and  C_17
REMARK   13  A    between atoms: C_17  and  C_18
REMARK   14  A    between atoms: C_18  and  C_19
REMARK   15  A    between atoms: C_19  and  C_20
REMARK   16  A    between atoms: C_20  and  O_22
REMARK   17  A    between atoms: O_22  and  C_23
REMARK   18  A    between atoms: C_23  and  C_24
REMARK   19  A    between atoms: C_23  and  C_25
REMARK                            x       y       z     vdW  Elec       q    Type
REMARK                         _______ _______ _______ _____ _____    ______ ____
ROOT
ATOM      1  C   UNL     1       8.397   7.954  18.117  0.00  0.00    +0.000 C 
ATOM      2  C   UNL     1       7.452   7.104  17.687  0.00  0.00    +0.000 C 
ENDROOT
BRANCH   1   3
ATOM      3  C   UNL     1       8.291   9.447  18.059  0.00  0.00    +0.000 C 
BRANCH   3   5
ATOM      4  C   UNL     1       9.952  11.006  19.098  0.00  0.00    +0.000 C 
ATOM      5  C   UNL     1       8.959  10.112  19.219  0.00  0.00    +0.000 C 
BRANCH   4   6
ATOM      6  C   UNL     1      10.568  11.496  17.811  0.00  0.00    +0.000 C 
BRANCH   6   8
ATOM      7  C   UNL     1      10.573  14.031  17.766  0.00  0.00    +0.000 C 
ATOM      8  C   UNL     1      10.063  12.851  17.383  0.00  0.00    +0.000 C 
BRANCH   7   9
ATOM      9  C   UNL     1      11.699  14.147  18.742  0.00  0.00    +0.000 C 
BRANCH   9  11
ATOM     10  C   UNL     1      10.905  15.235  20.850  0.00  0.00    +0.000 C 
ATOM     11  C   UNL     1      11.555  15.304  19.676  0.00  0.00    +0.000 C 
BRANCH  10  12
ATOM     12  C   UNL     1      10.204  13.994  21.329  0.00  0.00    +0.000 C 
BRANCH  12  13
ATOM     13  C   UNL     1       8.734  13.947  20.932  0.00  0.00    +0.000 C 
BRANCH  13  14
ATOM     14  C   UNL     1       7.901  13.339  22.061  0.00  0.00    +0.000 C 
BRANCH  14  16
ATOM     15  C   UNL     1       7.888  11.514  23.790  0.00  0.00    +0.000 C 
ATOM     16  C   UNL     1       8.753  12.434  22.946  0.00  0.00    +0.000 C 
ENDBRANCH  14  16
ENDBRANCH  13  14
ENDBRANCH  12  13
ENDBRANCH  10  12
ENDBRANCH   9  11
ENDBRANCH   7   9
ENDBRANCH   6   8
ENDBRANCH   4   6
ENDBRANCH   3   5
ENDBRANCH   1   3
BRANCH   2  17
ATOM     17  C   UNL     1       6.114   7.505  17.130  0.00  0.00    +0.000 C 
BRANCH  17  18
ATOM     18  C   UNL     1       5.295   6.318  16.620  0.00  0.00    +0.000 C 
BRANCH  18  19
ATOM     19  C   UNL     1       5.803   4.983  17.160  0.00  0.00    +0.000 C 
BRANCH  19  20
ATOM     20  C   UNL     1       5.119   4.605  18.450  0.00  0.00    +0.000 C 
ATOM     21  O   UNL     1       5.632   3.994  19.375  0.00  0.00    +0.000 OA
BRANCH  20  22
ATOM     22  O   UNL     1       3.836   5.054  18.416  0.00  0.00    +0.000 OA
BRANCH  22  23
ATOM     23  C   UNL     1       3.308   5.511  19.670  0.00  0.00    +0.000 C 
ATOM     24  C   UNL     1       2.528   6.806  19.464  0.00  0.00    +0.000 C 
BRANCH  23  25
ATOM     25  C   UNL     1       2.399   4.430  20.153  0.00  0.00    +0.000 A 
ATOM     26  C   UNL     1       2.219   3.805  21.371  0.00  0.00    +0.000 A 
ATOM     27  C   UNL     1       1.213   2.829  21.178  0.00  0.00    +0.000 A 
ATOM     28  C   UNL     1       0.841   2.918  19.858  0.00  0.00    +0.000 A 
ATOM     29  O   UNL     1       1.554   3.886  19.228  0.00  0.00    +0.000 OA
ENDBRANCH  23  25
ENDBRANCH  22  23
ENDBRANCH  20  22
ENDBRANCH  19  20
ENDBRANCH  18  19
ENDBRANCH  17  18
ENDBRANCH   2  17
TORSDOF 17
ENDMDL
MODEL 3
REMARK VINA RESULT:      -6.4      3.588      9.506
REMARK  Name = 
REMARK  19 active torsions:
REMARK  status: ('A' for Active; 'I' for Inactive)
REMARK    1  A    between atoms: C_1  and  C_2
REMARK    2  A    between atoms: C_2  and  C_3
REMARK    3  A    between atoms: C_3  and  C_4
REMARK    4  A    between atoms: C_4  and  C_5
REMARK    5  A    between atoms: C_5  and  C_6
REMARK    6  A    between atoms: C_7  and  C_8
REMARK    7  A    between atoms: C_8  and  C_9
REMARK    8  A    between atoms: C_10  and  C_11
REMARK    9  A    between atoms: C_11  and  C_12
REMARK   10  A    between atoms: C_13  and  C_14
REMARK   11  A    between atoms: C_14  and  C_15
REMARK   12  A    between atoms: C_16  and  C_17
REMARK   13  A    between atoms: C_17  and  C_18
REMARK   14  A    between atoms: C_18  and  C_19
REMARK   15  A    between atoms: C_19  and  C_20
REMARK   16  A    between atoms: C_20  and  O_22
REMARK   17  A    between atoms: O_22  and  C_23
REMARK   18  A    between atoms: C_23  and  C_24
REMARK   19  A    between atoms: C_23  and  C_25
REMARK                            x       y       z     vdW  Elec       q    Type
REMARK                         _______ _______ _______ _____ _____    ______ ____
ROOT
ATOM      1  C   UNL     1       1.211   2.887  20.842  0.00  0.00    +0.000 C 
ATOM      2  C   UNL     1       1.460   1.995  19.871  0.00  0.00    +0.000 C 
ENDROOT
BRANCH   1   3
ATOM      3  C   UNL     1       0.989   4.351  20.618  0.00  0.00    +0.000 C 
BRANCH   3   5
ATOM      4  C   UNL     1       2.775   5.986  19.977  0.00  0.00    +0.000 C 
ATOM      5  C   UNL     1       2.219   5.161  20.878  0.00  0.00    +0.000 C 
BRANCH   4   6
ATOM      6  C   UNL     1       2.284   6.247  18.574  0.00  0.00    +0.000 C 
BRANCH   6   8
ATOM      7  C   UNL     1       2.716   8.548  17.603  0.00  0.00    +0.000 C 
ATOM      8  C   UNL     1       3.095   7.283  17.838  0.00  0.00    +0.000 C 
BRANCH   7   9
ATOM      9  C   UNL     1       1.378   9.080  18.002  0.00  0.00    +0.000 C 
BRANCH   9  11
ATOM     10  C   UNL     1       0.393  11.008  19.255  0.00  0.00    +0.000 C 
ATOM     11  C   UNL     1       1.446  10.415  18.668  0.00  0.00    +0.000 C 
BRANCH  10  12
ATOM     12  C   UNL     1      -0.988  10.411  19.261  0.00  0.00    +0.000 C 
BRANCH  12  13
ATOM     13  C   UNL     1      -2.067  11.399  18.836  0.00  0.00    +0.000 C 
BRANCH  13  14
ATOM     14  C   UNL     1      -1.805  12.769  19.463  0.00  0.00    +0.000 C 
BRANCH  14  16
ATOM     15  C   UNL     1      -4.028  12.761  20.637  0.00  0.00    +0.000 C 
ATOM     16  C   UNL     1      -2.525  12.907  20.801  0.00  0.00    +0.000 C 
ENDBRANCH  14  16
ENDBRANCH  13  14
ENDBRANCH  12  13
ENDBRANCH  10  12
ENDBRANCH   9  11
ENDBRANCH   7   9
ENDBRANCH   6   8
ENDBRANCH   4   6
ENDBRANCH   3   5
ENDBRANCH   1   3
BRANCH   2  17
ATOM     17  C   UNL     1       1.502   2.305  18.400  0.00  0.00    +0.000 C 
BRANCH  17  18
ATOM     18  C   UNL     1       2.867   2.028  17.767  0.00  0.00    +0.000 C 
BRANCH  18  19
ATOM     19  C   UNL     1       3.366   3.197  16.922  0.00  0.00    +0.000 C 
BRANCH  19  20
ATOM     20  C   UNL     1       4.613   3.815  17.504  0.00  0.00    +0.000 C 
ATOM     21  O   UNL     1       5.048   3.617  18.628  0.00  0.00    +0.000 OA
BRANCH  20  22
ATOM     22  O   UNL     1       5.175   4.631  16.573  0.00  0.00    +0.000 OA
BRANCH  22  23
ATOM     23  C   UNL     1       6.603   4.547  16.459  0.00  0.00    +0.000 C 
ATOM     24  C   UNL     1       7.015   4.642  14.994  0.00  0.00    +0.000 C 
BRANCH  23  25
ATOM     25  C   UNL     1       7.146   5.708  17.226  0.00  0.00    +0.000 A 
ATOM     26  C   UNL     1       7.183   7.070  17.002  0.00  0.00    +0.000 A 
ATOM     27  C   UNL     1       7.869   7.641  18.100  0.00  0.00    +0.000 A 
ATOM     28  C   UNL     1       8.208   6.595  18.924  0.00  0.00    +0.000 A 
ATOM     29  O   UNL     1       7.773   5.419  18.405  0.00  0.00    +0.000 OA
ENDBRANCH  23  25
ENDBRANCH  22  23
ENDBRANCH  20  22
ENDBRANCH  19  20
ENDBRANCH  18  19
ENDBRANCH  17  18
ENDBRANCH   2  17
TORSDOF 17
ENDMDL
MODEL 4
REMARK VINA RESULT:      -6.4      2.849      3.492
REMARK  Name = 
REMARK  19 active torsions:
REMARK  status: ('A' for Active; 'I' for Inactive)
REMARK    1  A    between atoms: C_1  and  C_2
REMARK    2  A    between atoms: C_2  and  C_3
REMARK    3  A    between atoms: C_3  and  C_4
REMARK    4  A    between atoms: C_4  and  C_5
REMARK    5  A    between atoms: C_5  and  C_6
REMARK    6  A    between atoms: C_7  and  C_8
REMARK    7  A    between atoms: C_8  and  C_9
REMARK    8  A    between atoms: C_10  and  C_11
REMARK    9  A    between atoms: C_11  and  C_12
REMARK   10  A    between atoms: C_13  and  C_14
REMARK   11  A    between atoms: C_14  and  C_15
REMARK   12  A    between atoms: C_16  and  C_17
REMARK   13  A    between atoms: C_17  and  C_18
REMARK   14  A    between atoms: C_18  and  C_19
REMARK   15  A    between atoms: C_19  and  C_20
REMARK   16  A    between atoms: C_20  and  O_22
REMARK   17  A    between atoms: O_22  and  C_23
REMARK   18  A    between atoms: C_23  and  C_24
REMARK   19  A    between atoms: C_23  and  C_25
REMARK                            x       y       z     vdW  Elec       q    Type
REMARK                         _______ _______ _______ _____ _____    ______ ____
ROOT
ATOM      1  C   UNL     1       1.453   6.314  20.845  0.00  0.00    +0.000 C 
ATOM      2  C   UNL     1       2.072   7.369  20.293  0.00  0.00    +0.000 C 
ENDROOT
BRANCH   1   3
ATOM      3  C   UNL     1       1.273   4.985  20.179  0.00  0.00    +0.000 C 
BRANCH   3   5
ATOM      4  C   UNL     1       2.003   2.617  20.533  0.00  0.00    +0.000 C 
ATOM      5  C   UNL     1       1.802   3.857  21.004  0.00  0.00    +0.000 C 
BRANCH   4   6
ATOM      6  C   UNL     1       1.743   2.136  19.127  0.00  0.00    +0.000 C 
BRANCH   6   8
ATOM      7  C   UNL     1       3.921   2.321  17.841  0.00  0.00    +0.000 C 
ATOM      8  C   UNL     1       2.971   1.589  18.444  0.00  0.00    +0.000 C 
BRANCH   7   9
ATOM      9  C   UNL     1       3.841   3.808  17.720  0.00  0.00    +0.000 C 
BRANCH   9  11
ATOM     10  C   UNL     1       5.926   4.849  18.629  0.00  0.00    +0.000 C 
ATOM     11  C   UNL     1       4.628   4.530  18.764  0.00  0.00    +0.000 C 
BRANCH  10  12
ATOM     12  C   UNL     1       6.745   4.467  17.426  0.00  0.00    +0.000 C 
BRANCH  12  13
ATOM     13  C   UNL     1       7.260   5.670  16.647  0.00  0.00    +0.000 C 
BRANCH  13  14
ATOM     14  C   UNL     1       6.809   6.967  17.321  0.00  0.00    +0.000 C 
BRANCH  14  16
ATOM     15  C   UNL     1       8.014   9.121  17.797  0.00  0.00    +0.000 C 
ATOM     16  C   UNL     1       7.964   7.627  18.068  0.00  0.00    +0.000 C 
ENDBRANCH  14  16
ENDBRANCH  13  14
ENDBRANCH  12  13
ENDBRANCH  10  12
ENDBRANCH   9  11
ENDBRANCH   7   9
ENDBRANCH   6   8
ENDBRANCH   4   6
ENDBRANCH   3   5
ENDBRANCH   1   3
BRANCH   2  17
ATOM     17  C   UNL     1       2.733   7.375  18.941  0.00  0.00    +0.000 C 
BRANCH  17  18
ATOM     18  C   UNL     1       2.151   8.426  17.994  0.00  0.00    +0.000 C 
BRANCH  18  19
ATOM     19  C   UNL     1       1.142   9.340  18.683  0.00  0.00    +0.000 C 
BRANCH  19  20
ATOM     20  C   UNL     1       1.508  10.795  18.529  0.00  0.00    +0.000 C 
ATOM     21  O   UNL     1       2.387  11.234  17.804  0.00  0.00    +0.000 OA
BRANCH  20  22
ATOM     22  O   UNL     1       0.699  11.539  19.328  0.00  0.00    +0.000 OA
BRANCH  22  23
ATOM     23  C   UNL     1       1.248  11.894  20.605  0.00  0.00    +0.000 C 
ATOM     24  C   UNL     1       1.372  13.411  20.716  0.00  0.00    +0.000 C 
BRANCH  23  25
ATOM     25  C   UNL     1       0.287  11.377  21.625  0.00  0.00    +0.000 A 
ATOM     26  C   UNL     1      -0.934  11.817  22.098  0.00  0.00    +0.000 A 
ATOM     27  C   UNL     1      -1.334  10.896  23.095  0.00  0.00    +0.000 A 
ATOM     28  C   UNL     1      -0.337   9.953  23.168  0.00  0.00    +0.000 A 
ATOM     29  O   UNL     1       0.650  10.235  22.280  0.00  0.00    +0.000 OA
ENDBRANCH  23  25
ENDBRANCH  22  23
ENDBRANCH  20  22
ENDBRANCH  19  20
ENDBRANCH  18  19
ENDBRANCH  17  18
ENDBRANCH   2  17
TORSDOF 17
ENDMDL
MODEL 5
REMARK VINA RESULT:      -6.4      3.710      9.806
REMARK  Name = 
REMARK  19 active torsions:
REMARK  status: ('A' for Active; 'I' for Inactive)
REMARK    1  A    between atoms: C_1  and  C_2
REMARK    2  A    between atoms: C_2  and  C_3
REMARK    3  A    between atoms: C_3  and  C_4
REMARK    4  A    between atoms: C_4  and  C_5
REMARK    5  A    between atoms: C_5  and  C_6
REMARK    6  A    between atoms: C_7  and  C_8
REMARK    7  A    between atoms: C_8  and  C_9
REMARK    8  A    between atoms: C_10  and  C_11
REMARK    9  A    between atoms: C_11  and  C_12
REMARK   10  A    between atoms: C_13  and  C_14
REMARK   11  A    between atoms: C_14  and  C_15
REMARK   12  A    between atoms: C_16  and  C_17
REMARK   13  A    between atoms: C_17  and  C_18
REMARK   14  A    between atoms: C_18  and  C_19
REMARK   15  A    between atoms: C_19  and  C_20
REMARK   16  A    between atoms: C_20  and  O_22
REMARK   17  A    between atoms: O_22  and  C_23
REMARK   18  A    between atoms: C_23  and  C_24
REMARK   19  A    between atoms: C_23  and  C_25
REMARK                            x       y       z     vdW  Elec       q    Type
REMARK                         _______ _______ _______ _____ _____    ______ ____
ROOT
ATOM      1  C   UNL     1       1.043   4.570  20.333  0.00  0.00    +0.000 C 
ATOM      2  C   UNL     1       0.900   3.316  19.876  0.00  0.00    +0.000 C 
ENDROOT
BRANCH   1   3
ATOM      3  C   UNL     1       2.357   5.245  20.574  0.00  0.00    +0.000 C 
BRANCH   3   5
ATOM      4  C   UNL     1       1.896   7.617  19.916  0.00  0.00    +0.000 C 
ATOM      5  C   UNL     1       2.541   6.457  19.718  0.00  0.00    +0.000 C 
BRANCH   4   6
ATOM      6  C   UNL     1       0.893   7.913  21.003  0.00  0.00    +0.000 C 
BRANCH   6   8
ATOM      7  C   UNL     1       0.683   9.831  22.647  0.00  0.00    +0.000 C 
ATOM      8  C   UNL     1       1.405   8.873  22.047  0.00  0.00    +0.000 C 
BRANCH   7   9
ATOM      9  C   UNL     1      -0.743  10.108  22.298  0.00  0.00    +0.000 C 
BRANCH   9  11
ATOM     10  C   UNL     1      -1.538  12.367  23.022  0.00  0.00    +0.000 C 
ATOM     11  C   UNL     1      -1.412  11.048  23.247  0.00  0.00    +0.000 C 
BRANCH  10  12
ATOM     12  C   UNL     1      -0.972  13.051  21.808  0.00  0.00    +0.000 C 
BRANCH  12  13
ATOM     13  C   UNL     1      -1.966  13.147  20.658  0.00  0.00    +0.000 C 
BRANCH  13  14
ATOM     14  C   UNL     1      -1.281  12.792  19.337  0.00  0.00    +0.000 C 
BRANCH  14  16
ATOM     15  C   UNL     1       0.061  10.730  18.827  0.00  0.00    +0.000 C 
ATOM     16  C   UNL     1      -1.328  11.289  19.081  0.00  0.00    +0.000 C 
ENDBRANCH  14  16
ENDBRANCH  13  14
ENDBRANCH  12  13
ENDBRANCH  10  12
ENDBRANCH   9  11
ENDBRANCH   7   9
ENDBRANCH   6   8
ENDBRANCH   4   6
ENDBRANCH   3   5
ENDBRANCH   1   3
BRANCH   2  17
ATOM     17  C   UNL     1       2.030   2.405  19.479  0.00  0.00    +0.000 C 
BRANCH  17  18
ATOM     18  C   UNL     1       2.217   2.306  17.964  0.00  0.00    +0.000 C 
BRANCH  18  19
ATOM     19  C   UNL     1       2.766   3.594  17.358  0.00  0.00    +0.000 C 
BRANCH  19  20
ATOM     20  C   UNL     1       4.209   3.818  17.734  0.00  0.00    +0.000 C 
ATOM     21  O   UNL     1       4.771   3.350  18.712  0.00  0.00    +0.000 OA
BRANCH  20  22
ATOM     22  O   UNL     1       4.785   4.628  16.805  0.00  0.00    +0.000 OA
BRANCH  22  23
ATOM     23  C   UNL     1       6.177   4.385  16.551  0.00  0.00    +0.000 C 
ATOM     24  C   UNL     1       6.450   4.442  15.051  0.00  0.00    +0.000 C 
BRANCH  23  25
ATOM     25  C   UNL     1       6.919   5.473  17.254  0.00  0.00    +0.000 A 
ATOM     26  C   UNL     1       7.638   5.534  18.432  0.00  0.00    +0.000 A 
ATOM     27  C   UNL     1       8.080   6.871  18.566  0.00  0.00    +0.000 A 
ATOM     28  C   UNL     1       7.605   7.542  17.465  0.00  0.00    +0.000 A 
ATOM     29  O   UNL     1       6.901   6.704  16.663  0.00  0.00    +0.000 OA
ENDBRANCH  23  25
ENDBRANCH  22  23
ENDBRANCH  20  22
ENDBRANCH  19  20
ENDBRANCH  18  19
ENDBRANCH  17  18
ENDBRANCH   2  17
TORSDOF 17
ENDMDL
MODEL 6
REMARK VINA RESULT:      -6.3      5.823      9.542
REMARK  Name = 
REMARK  19 active torsions:
REMARK  status: ('A' for Active; 'I' for Inactive)
REMARK    1  A    between atoms: C_1  and  C_2
REMARK    2  A    between atoms: C_2  and  C_3
REMARK    3  A    between atoms: C_3  and  C_4
REMARK    4  A    between atoms: C_4  and  C_5
REMARK    5  A    between atoms: C_5  and  C_6
REMARK    6  A    between atoms: C_7  and  C_8
REMARK    7  A    between atoms: C_8  and  C_9
REMARK    8  A    between atoms: C_10  and  C_11
REMARK    9  A    between atoms: C_11  and  C_12
REMARK   10  A    between atoms: C_13  and  C_14
REMARK   11  A    between atoms: C_14  and  C_15
REMARK   12  A    between atoms: C_16  and  C_17
REMARK   13  A    between atoms: C_17  and  C_18
REMARK   14  A    between atoms: C_18  and  C_19
REMARK   15  A    between atoms: C_19  and  C_20
REMARK   16  A    between atoms: C_20  and  O_22
REMARK   17  A    between atoms: O_22  and  C_23
REMARK   18  A    between atoms: C_23  and  C_24
REMARK   19  A    between atoms: C_23  and  C_25
REMARK                            x       y       z     vdW  Elec       q    Type
REMARK                         _______ _______ _______ _____ _____    ______ ____
ROOT
ATOM      1  C   UNL     1       7.839   5.649  18.997  0.00  0.00    +0.000 C 
ATOM      2  C   UNL     1       8.220   6.913  18.754  0.00  0.00    +0.000 C 
ENDROOT
BRANCH   1   3
ATOM      3  C   UNL     1       6.878   4.871  18.151  0.00  0.00    +0.000 C 
BRANCH   3   5
ATOM      4  C   UNL     1       6.591   4.850  15.664  0.00  0.00    +0.000 C 
ATOM      5  C   UNL     1       7.365   4.695  16.749  0.00  0.00    +0.000 C 
BRANCH   4   6
ATOM      6  C   UNL     1       5.127   5.216  15.649  0.00  0.00    +0.000 C 
BRANCH   6   8
ATOM      7  C   UNL     1       4.025   6.906  17.184  0.00  0.00    +0.000 C 
ATOM      8  C   UNL     1       4.851   6.603  16.171  0.00  0.00    +0.000 C 
BRANCH   7   9
ATOM      9  C   UNL     1       3.209   5.877  17.897  0.00  0.00    +0.000 C 
BRANCH   9  11
ATOM     10  C   UNL     1       3.132   5.094  20.272  0.00  0.00    +0.000 C 
ATOM     11  C   UNL     1       3.834   5.405  19.169  0.00  0.00    +0.000 C 
BRANCH  10  12
ATOM     12  C   UNL     1       1.637   5.239  20.363  0.00  0.00    +0.000 C 
BRANCH  12  13
ATOM     13  C   UNL     1       0.892   3.947  20.051  0.00  0.00    +0.000 C 
BRANCH  13  14
ATOM     14  C   UNL     1       1.819   2.746  20.237  0.00  0.00    +0.000 C 
BRANCH  14  16
ATOM     15  C   UNL     1       3.157   1.781  18.340  0.00  0.00    +0.000 C 
ATOM     16  C   UNL     1       1.795   1.838  19.011  0.00  0.00    +0.000 C 
ENDBRANCH  14  16
ENDBRANCH  13  14
ENDBRANCH  12  13
ENDBRANCH  10  12
ENDBRANCH   9  11
ENDBRANCH   7   9
ENDBRANCH   6   8
ENDBRANCH   4   6
ENDBRANCH   3   5
ENDBRANCH   1   3
BRANCH   2  17
ATOM     17  C   UNL     1       7.791   7.734  17.569  0.00  0.00    +0.000 C 
BRANCH  17  18
ATOM     18  C   UNL     1       7.956   9.239  17.791  0.00  0.00    +0.000 C 
BRANCH  18  19
ATOM     19  C   UNL     1       9.047   9.563  18.808  0.00  0.00    +0.000 C 
BRANCH  19  20
ATOM     20  C   UNL     1       9.576  10.964  18.633  0.00  0.00    +0.000 C 
ATOM     21  O   UNL     1      10.224  11.367  17.679  0.00  0.00    +0.000 OA
BRANCH  20  22
ATOM     22  O   UNL     1       9.214  11.709  19.711  0.00  0.00    +0.000 OA
BRANCH  22  23
ATOM     23  C   UNL     1      10.297  12.216  20.504  0.00  0.00    +0.000 C 
ATOM     24  C   UNL     1      11.630  11.881  19.841  0.00  0.00    +0.000 C 
BRANCH  23  25
ATOM     25  C   UNL     1      10.106  13.696  20.564  0.00  0.00    +0.000 A 
ATOM     26  C   UNL     1      10.422  14.664  21.498  0.00  0.00    +0.000 A 
ATOM     27  C   UNL     1       9.948  15.893  20.978  0.00  0.00    +0.000 A 
ATOM     28  C   UNL     1       9.376  15.600  19.764  0.00  0.00    +0.000 A 
ATOM     29  O   UNL     1       9.468  14.271  19.503  0.00  0.00    +0.000 OA
ENDBRANCH  23  25
ENDBRANCH  22  23
ENDBRANCH  20  22
ENDBRANCH  19  20
ENDBRANCH  18  19
ENDBRANCH  17  18
ENDBRANCH   2  17
TORSDOF 17
ENDMDL
MODEL 7
REMARK VINA RESULT:      -6.1      1.190      2.112
REMARK  Name = 
REMARK  19 active torsions:
REMARK  status: ('A' for Active; 'I' for Inactive)
REMARK    1  A    between atoms: C_1  and  C_2
REMARK    2  A    between atoms: C_2  and  C_3
REMARK    3  A    between atoms: C_3  and  C_4
REMARK    4  A    between atoms: C_4  and  C_5
REMARK    5  A    between atoms: C_5  and  C_6
REMARK    6  A    between atoms: C_7  and  C_8
REMARK    7  A    between atoms: C_8  and  C_9
REMARK    8  A    between atoms: C_10  and  C_11
REMARK    9  A    between atoms: C_11  and  C_12
REMARK   10  A    between atoms: C_13  and  C_14
REMARK   11  A    between atoms: C_14  and  C_15
REMARK   12  A    between atoms: C_16  and  C_17
REMARK   13  A    between atoms: C_17  and  C_18
REMARK   14  A    between atoms: C_18  and  C_19
REMARK   15  A    between atoms: C_19  and  C_20
REMARK   16  A    between atoms: C_20  and  O_22
REMARK   17  A    between atoms: O_22  and  C_23
REMARK   18  A    between atoms: C_23  and  C_24
REMARK   19  A    between atoms: C_23  and  C_25
REMARK                            x       y       z     vdW  Elec       q    Type
REMARK                         _______ _______ _______ _____ _____    ______ ____
ROOT
ATOM      1  C   UNL     1       1.724   5.383  20.795  0.00  0.00    +0.000 C 
ATOM      2  C   UNL     1       2.231   6.475  20.201  0.00  0.00    +0.000 C 
ENDROOT
BRANCH   1   3
ATOM      3  C   UNL     1       1.139   4.211  20.069  0.00  0.00    +0.000 C 
BRANCH   3   5
ATOM      4  C   UNL     1       2.892   2.424  20.040  0.00  0.00    +0.000 C 
ATOM      5  C   UNL     1       1.734   2.913  20.509  0.00  0.00    +0.000 C 
BRANCH   4   6
ATOM      6  C   UNL     1       3.788   3.067  19.010  0.00  0.00    +0.000 C 
BRANCH   6   8
ATOM      7  C   UNL     1       3.700   3.552  16.523  0.00  0.00    +0.000 C 
ATOM      8  C   UNL     1       3.343   2.821  17.591  0.00  0.00    +0.000 C 
BRANCH   7   9
ATOM      9  C   UNL     1       4.560   4.769  16.627  0.00  0.00    +0.000 C 
BRANCH   9  11
ATOM     10  C   UNL     1       6.997   4.615  16.083  0.00  0.00    +0.000 C 
ATOM     11  C   UNL     1       5.721   4.754  15.686  0.00  0.00    +0.000 C 
BRANCH  10  12
ATOM     12  C   UNL     1       7.402   4.510  17.528  0.00  0.00    +0.000 C 
BRANCH  12  13
ATOM     13  C   UNL     1       6.933   5.692  18.367  0.00  0.00    +0.000 C 
BRANCH  13  14
ATOM     14  C   UNL     1       8.120   6.327  19.093  0.00  0.00    +0.000 C 
BRANCH  14  16
ATOM     15  C   UNL     1       7.454   8.096  17.437  0.00  0.00    +0.000 C 
ATOM     16  C   UNL     1       8.384   7.740  18.584  0.00  0.00    +0.000 C 
ENDBRANCH  14  16
ENDBRANCH  13  14
ENDBRANCH  12  13
ENDBRANCH  10  12
ENDBRANCH   9  11
ENDBRANCH   7   9
ENDBRANCH   6   8
ENDBRANCH   4   6
ENDBRANCH   3   5
ENDBRANCH   1   3
BRANCH   2  17
ATOM     17  C   UNL     1       2.348   6.677  18.715  0.00  0.00    +0.000 C 
BRANCH  17  18
ATOM     18  C   UNL     1       2.058   8.115  18.280  0.00  0.00    +0.000 C 
BRANCH  18  19
ATOM     19  C   UNL     1       1.436   8.948  19.397  0.00  0.00    +0.000 C 
BRANCH  19  20
ATOM     20  C   UNL     1       0.833  10.227  18.872  0.00  0.00    +0.000 C 
ATOM     21  O   UNL     1       1.450  11.143  18.351  0.00  0.00    +0.000 OA
BRANCH  20  22
ATOM     22  O   UNL     1      -0.511  10.195  19.072  0.00  0.00    +0.000 OA
BRANCH  22  23
ATOM     23  C   UNL     1      -1.297  10.915  18.111  0.00  0.00    +0.000 C 
ATOM     24  C   UNL     1      -1.975   9.938  17.156  0.00  0.00    +0.000 C 
BRANCH  23  25
ATOM     25  C   UNL     1      -2.321  11.666  18.897  0.00  0.00    +0.000 A 
ATOM     26  C   UNL     1      -2.259  12.511  19.988  0.00  0.00    +0.000 A 
ATOM     27  C   UNL     1      -3.592  12.882  20.285  0.00  0.00    +0.000 A 
ATOM     28  C   UNL     1      -4.382  12.244  19.359  0.00  0.00    +0.000 A 
ATOM     29  O   UNL     1      -3.622  11.505  18.513  0.00  0.00    +0.000 OA
ENDBRANCH  23  25
ENDBRANCH  22  23
ENDBRANCH  20  22
ENDBRANCH  19  20
ENDBRANCH  18  19
ENDBRANCH  17  18
ENDBRANCH   2  17
TORSDOF 17
ENDMDL
MODEL 8
REMARK VINA RESULT:      -6.1      4.344      9.407
REMARK  Name = 
REMARK  19 active torsions:
REMARK  status: ('A' for Active; 'I' for Inactive)
REMARK    1  A    between atoms: C_1  and  C_2
REMARK    2  A    between atoms: C_2  and  C_3
REMARK    3  A    between atoms: C_3  and  C_4
REMARK    4  A    between atoms: C_4  and  C_5
REMARK    5  A    between atoms: C_5  and  C_6
REMARK    6  A    between atoms: C_7  and  C_8
REMARK    7  A    between atoms: C_8  and  C_9
REMARK    8  A    between atoms: C_10  and  C_11
REMARK    9  A    between atoms: C_11  and  C_12
REMARK   10  A    between atoms: C_13  and  C_14
REMARK   11  A    between atoms: C_14  and  C_15
REMARK   12  A    between atoms: C_16  and  C_17
REMARK   13  A    between atoms: C_17  and  C_18
REMARK   14  A    between atoms: C_18  and  C_19
REMARK   15  A    between atoms: C_19  and  C_20
REMARK   16  A    between atoms: C_20  and  O_22
REMARK   17  A    between atoms: O_22  and  C_23
REMARK   18  A    between atoms: C_23  and  C_24
REMARK   19  A    between atoms: C_23  and  C_25
REMARK                            x       y       z     vdW  Elec       q    Type
REMARK                         _______ _______ _______ _____ _____    ______ ____
ROOT
ATOM      1  C   UNL     1       3.484   1.754  18.010  0.00  0.00    +0.000 C 
ATOM      2  C   UNL     1       4.401   2.505  17.381  0.00  0.00    +0.000 C 
ENDROOT
BRANCH   1   3
ATOM      3  C   UNL     1       2.718   2.182  19.224  0.00  0.00    +0.000 C 
BRANCH   3   5
ATOM      4  C   UNL     1       0.808   3.770  19.537  0.00  0.00    +0.000 C 
ATOM      5  C   UNL     1       1.377   2.747  18.882  0.00  0.00    +0.000 C 
BRANCH   4   6
ATOM      6  C   UNL     1       1.391   4.524  20.707  0.00  0.00    +0.000 C 
BRANCH   6   8
ATOM      7  C   UNL     1       3.021   6.205  19.732  0.00  0.00    +0.000 C 
ATOM      8  C   UNL     1       2.762   5.090  20.432  0.00  0.00    +0.000 C 
BRANCH   7   9
ATOM      9  C   UNL     1       1.950   7.010  19.069  0.00  0.00    +0.000 C 
BRANCH   9  11
ATOM     10  C   UNL     1       2.127   9.177  17.832  0.00  0.00    +0.000 C 
ATOM     11  C   UNL     1       2.462   7.883  17.970  0.00  0.00    +0.000 C 
BRANCH  10  12
ATOM     12  C   UNL     1       1.156   9.877  18.743  0.00  0.00    +0.000 C 
BRANCH  12  13
ATOM     13  C   UNL     1      -0.264   9.904  18.195  0.00  0.00    +0.000 C 
BRANCH  13  14
ATOM     14  C   UNL     1      -1.097  10.950  18.937  0.00  0.00    +0.000 C 
BRANCH  14  16
ATOM     15  C   UNL     1      -0.410  13.313  18.426  0.00  0.00    +0.000 C 
ATOM     16  C   UNL     1      -1.347  12.175  18.062  0.00  0.00    +0.000 C 
ENDBRANCH  14  16
ENDBRANCH  13  14
ENDBRANCH  12  13
ENDBRANCH  10  12
ENDBRANCH   9  11
ENDBRANCH   7   9
ENDBRANCH   6   8
ENDBRANCH   4   6
ENDBRANCH   3   5
ENDBRANCH   1   3
BRANCH   2  17
ATOM     17  C   UNL     1       4.771   3.914  17.755  0.00  0.00    +0.000 C 
BRANCH  17  18
ATOM     18  C   UNL     1       4.496   4.923  16.639  0.00  0.00    +0.000 C 
BRANCH  18  19
ATOM     19  C   UNL     1       5.767   5.604  16.140  0.00  0.00    +0.000 C 
BRANCH  19  20
ATOM     20  C   UNL     1       6.900   4.622  15.976  0.00  0.00    +0.000 C 
ATOM     21  O   UNL     1       7.849   4.496  16.734  0.00  0.00    +0.000 OA
BRANCH  20  22
ATOM     22  O   UNL     1       6.695   3.898  14.843  0.00  0.00    +0.000 OA
BRANCH  22  23
ATOM     23  C   UNL     1       6.521   4.665  13.642  0.00  0.00    +0.000 C 
ATOM     24  C   UNL     1       7.877   5.132  13.122  0.00  0.00    +0.000 C 
BRANCH  23  25
ATOM     25  C   UNL     1       5.877   3.747  12.657  0.00  0.00    +0.000 A 
ATOM     26  C   UNL     1       4.613   3.672  12.103  0.00  0.00    +0.000 A 
ATOM     27  C   UNL     1       4.616   2.546  11.247  0.00  0.00    +0.000 A 
ATOM     28  C   UNL     1       5.876   2.005  11.330  0.00  0.00    +0.000 A 
ATOM     29  O   UNL     1       6.648   2.725  12.181  0.00  0.00    +0.000 OA
ENDBRANCH  23  25
ENDBRANCH  22  23
ENDBRANCH  20  22
ENDBRANCH  19  20
ENDBRANCH  18  19
ENDBRANCH  17  18
ENDBRANCH   2  17
TORSDOF 17
ENDMDL
MODEL 9
REMARK VINA RESULT:      -6.1      2.047      3.532
REMARK  Name = 
REMARK  19 active torsions:
REMARK  status: ('A' for Active; 'I' for Inactive)
REMARK    1  A    between atoms: C_1  and  C_2
REMARK    2  A    between atoms: C_2  and  C_3
REMARK    3  A    between atoms: C_3  and  C_4
REMARK    4  A    between atoms: C_4  and  C_5
REMARK    5  A    between atoms: C_5  and  C_6
REMARK    6  A    between atoms: C_7  and  C_8
REMARK    7  A    between atoms: C_8  and  C_9
REMARK    8  A    between atoms: C_10  and  C_11
REMARK    9  A    between atoms: C_11  and  C_12
REMARK   10  A    between atoms: C_13  and  C_14
REMARK   11  A    between atoms: C_14  and  C_15
REMARK   12  A    between atoms: C_16  and  C_17
REMARK   13  A    between atoms: C_17  and  C_18
REMARK   14  A    between atoms: C_18  and  C_19
REMARK   15  A    between atoms: C_19  and  C_20
REMARK   16  A    between atoms: C_20  and  O_22
REMARK   17  A    between atoms: O_22  and  C_23
REMARK   18  A    between atoms: C_23  and  C_24
REMARK   19  A    between atoms: C_23  and  C_25
REMARK                            x       y       z     vdW  Elec       q    Type
REMARK                         _______ _______ _______ _____ _____    ______ ____
ROOT
ATOM      1  C   UNL     1       2.990   7.070  17.990  0.00  0.00    +0.000 C 
ATOM      2  C   UNL     1       2.524   8.328  17.951  0.00  0.00    +0.000 C 
ENDROOT
BRANCH   1   3
ATOM      3  C   UNL     1       2.386   5.961  18.796  0.00  0.00    +0.000 C 
BRANCH   3   5
ATOM      4  C   UNL     1       2.200   3.969  17.290  0.00  0.00    +0.000 C 
ATOM      5  C   UNL     1       1.629   4.989  17.950  0.00  0.00    +0.000 C 
BRANCH   4   6
ATOM      6  C   UNL     1       3.668   3.619  17.274  0.00  0.00    +0.000 C 
BRANCH   6   8
ATOM      7  C   UNL     1       5.092   3.631  19.372  0.00  0.00    +0.000 C 
ATOM      8  C   UNL     1       4.166   3.063  18.584  0.00  0.00    +0.000 C 
BRANCH   7   9
ATOM      9  C   UNL     1       5.805   4.891  19.003  0.00  0.00    +0.000 C 
BRANCH   9  11
ATOM     10  C   UNL     1       7.142   5.214  16.914  0.00  0.00    +0.000 C 
ATOM     11  C   UNL     1       6.995   4.663  18.130  0.00  0.00    +0.000 C 
BRANCH  10  12
ATOM     12  C   UNL     1       6.094   6.084  16.274  0.00  0.00    +0.000 C 
BRANCH  12  13
ATOM     13  C   UNL     1       5.502   5.474  15.010  0.00  0.00    +0.000 C 
BRANCH  13  14
ATOM     14  C   UNL     1       6.126   4.104  14.743  0.00  0.00    +0.000 C 
BRANCH  14  16
ATOM     15  C   UNL     1       7.544   4.974  12.858  0.00  0.00    +0.000 C 
ATOM     16  C   UNL     1       6.502   3.949  13.273  0.00  0.00    +0.000 C 
ENDBRANCH  14  16
ENDBRANCH  13  14
ENDBRANCH  12  13
ENDBRANCH  10  12
ENDBRANCH   9  11
ENDBRANCH   7   9
ENDBRANCH   6   8
ENDBRANCH   4   6
ENDBRANCH   3   5
ENDBRANCH   1   3
BRANCH   2  17
ATOM     17  C   UNL     1       1.292   8.817  18.662  0.00  0.00    +0.000 C 
BRANCH  17  18
ATOM     18  C   UNL     1       1.529   9.104  20.146  0.00  0.00    +0.000 C 
BRANCH  18  19
ATOM     19  C   UNL     1       0.251   8.996  20.973  0.00  0.00    +0.000 C 
BRANCH  19  20
ATOM     20  C   UNL     1       0.130  10.125  21.966  0.00  0.00    +0.000 C 
ATOM     21  O   UNL     1      -0.503  10.091  23.010  0.00  0.00    +0.000 OA
BRANCH  20  22
ATOM     22  O   UNL     1       0.842  11.190  21.510  0.00  0.00    +0.000 OA
BRANCH  22  23
ATOM     23  C   UNL     1       0.088  12.393  21.299  0.00  0.00    +0.000 C 
ATOM     24  C   UNL     1       1.034  13.577  21.126  0.00  0.00    +0.000 C 
BRANCH  23  25
ATOM     25  C   UNL     1      -0.700  12.172  20.050  0.00  0.00    +0.000 A 
ATOM     26  C   UNL     1      -0.379  12.162  18.707  0.00  0.00    +0.000 A 
ATOM     27  C   UNL     1      -1.585  11.919  18.007  0.00  0.00    +0.000 A 
ATOM     28  C   UNL     1      -2.564  11.796  18.964  0.00  0.00    +0.000 A 
ATOM     29  O   UNL     1      -2.037  11.946  20.206  0.00  0.00    +0.000 OA
ENDBRANCH  23  25
ENDBRANCH  22  23
ENDBRANCH  20  22
ENDBRANCH  19  20
ENDBRANCH  18  19
ENDBRANCH  17  18
ENDBRANCH   2  17
TORSDOF 17
ENDMDL
