MODEL 1
REMARK VINA RESULT:      -7.4      0.000      0.000
REMARK  Name = 
REMARK  12 active torsions:
REMARK  status: ('A' for Active; 'I' for Inactive)
REMARK    1  A    between atoms: C_1  and  C_2
REMARK    2  A    between atoms: C_6  and  C_7
REMARK    3  A    between atoms: C_7  and  C_8
REMARK    4  A    between atoms: C_7  and  C_9
REMARK    5  A    between atoms: C_7  and  C_10
REMARK    6  A    between atoms: C_11  and  N_12
REMARK    7  A    between atoms: C_13  and  C_15
REMARK    8  A    between atoms: C_15  and  C_17
REMARK    9  A    between atoms: C_17  and  C_18
REMARK   10  A    between atoms: C_17  and  C_28
REMARK   11  A    between atoms: C_18  and  C_20
REMARK   12  A    between atoms: C_21  and  C_22
REMARK                            x       y       z     vdW  Elec       q    Type
REMARK                         _______ _______ _______ _____ _____    ______ ____
ROOT
ATOM      1  C   UNL     1       2.962   6.272  19.149  0.00  0.00    +0.000 C 
ENDROOT
BRANCH   1   2
ATOM      2  C   UNL     1       4.198   5.346  19.146  0.00  0.00    +0.000 C 
ATOM      3  O   UNL     1       5.343   5.910  19.835  0.00  0.00    +0.000 OA
ATOM      4  C   UNL     1       6.512   5.411  19.307  0.00  0.00    +0.000 C 
ATOM      5  O   UNL     1       7.621   5.494  19.793  0.00  0.00    +0.000 OA
ATOM      6  C   UNL     1       6.164   4.849  18.005  0.00  0.00    +0.000 A 
ATOM      7  C   UNL     1       7.008   4.425  16.992  0.00  0.00    +0.000 A 
ATOM      8  C   UNL     1       6.427   4.099  15.765  0.00  0.00    +0.000 A 
ATOM      9  C   UNL     1       5.036   4.181  15.593  0.00  0.00    +0.000 A 
ATOM     10  C   UNL     1       4.207   4.551  16.654  0.00  0.00    +0.000 A 
ATOM     11  C   UNL     1       4.791   4.897  17.861  0.00  0.00    +0.000 A 
ENDBRANCH   1   2
BRANCH   1  12
ATOM     12  C   UNL     1       3.101   7.462  18.219  0.00  0.00    +0.000 C 
ATOM     13  O   UNL     1       3.973   7.610  17.373  0.00  0.00    +0.000 OA
BRANCH  12  15
ATOM     14  N   UNL     1       2.223   9.450  19.293  0.00  0.00    +0.000 N 
ATOM     15  C   UNL     1       2.000   8.533  18.283  0.00  0.00    +0.000 C 
ATOM     16  O   UNL     1       1.081   8.490  17.488  0.00  0.00    +0.000 OA
ATOM     17  H   UNL     1       2.967   9.206  19.933  0.00  0.00    +0.000 HD
BRANCH  14  24
ATOM     18  C   UNL     1       2.231  11.885  17.677  0.00  0.00    +0.000 C 
ATOM     19  C   UNL     1       1.338  11.677  18.873  0.00  0.00    +0.000 A 
ATOM     20  C   UNL     1       0.520  12.754  19.245  0.00  0.00    +0.000 A 
ATOM     21  C   UNL     1      -0.263  12.680  20.382  0.00  0.00    +0.000 A 
ATOM     22  C   UNL     1      -0.245  11.523  21.159  0.00  0.00    +0.000 A 
ATOM     23  C   UNL     1       0.560  10.398  20.846  0.00  0.00    +0.000 A 
ATOM     24  C   UNL     1       1.342  10.485  19.656  0.00  0.00    +0.000 A 
BRANCH  23  25
ATOM     25  C   UNL     1       0.386   9.135  21.745  0.00  0.00    +0.000 C 
ATOM     26  C   UNL     1      -0.643   8.205  21.065  0.00  0.00    +0.000 C 
ATOM     27  C   UNL     1       1.667   8.320  22.015  0.00  0.00    +0.000 C 
ATOM     28  C   UNL     1      -0.163   9.476  23.161  0.00  0.00    +0.000 C 
ENDBRANCH  23  25
ENDBRANCH  14  24
ENDBRANCH  12  15
ENDBRANCH   1  12
BRANCH   1  29
ATOM     29  C   UNL     1       1.738   5.397  18.892  0.00  0.00    +0.000 C 
ATOM     30  O   UNL     1       1.355   5.188  17.742  0.00  0.00    +0.000 OA
BRANCH  29  31
ATOM     31  C   UNL     1       0.999   4.763  20.032  0.00  0.00    +0.000 C 
ATOM     32  C   UNL     1       1.271   3.546  20.537  0.00  0.00    +0.000 C 
BRANCH  32  33
ATOM     33  C   UNL     1       2.360   2.668  20.098  0.00  0.00    +0.000 A 
ATOM     34  C   UNL     1       3.499   2.532  20.897  0.00  0.00    +0.000 A 
ATOM     35  C   UNL     1       4.611   1.834  20.419  0.00  0.00    +0.000 A 
ATOM     36  C   UNL     1       4.586   1.270  19.144  0.00  0.00    +0.000 A 
ATOM     37  C   UNL     1       3.433   1.357  18.365  0.00  0.00    +0.000 A 
ATOM     38  C   UNL     1       2.315   2.041  18.848  0.00  0.00    +0.000 A 
ENDBRANCH  32  33
ENDBRANCH  29  31
ENDBRANCH   1  29
TORSDOF 8
ENDMDL
MODEL 2
REMARK VINA RESULT:      -7.3      6.153     10.270
REMARK  Name = 
REMARK  12 active torsions:
REMARK  status: ('A' for Active; 'I' for Inactive)
REMARK    1  A    between atoms: C_1  and  C_2
REMARK    2  A    between atoms: C_6  and  C_7
REMARK    3  A    between atoms: C_7  and  C_8
REMARK    4  A    between atoms: C_7  and  C_9
REMARK    5  A    between atoms: C_7  and  C_10
REMARK    6  A    between atoms: C_11  and  N_12
REMARK    7  A    between atoms: C_13  and  C_15
REMARK    8  A    between atoms: C_15  and  C_17
REMARK    9  A    between atoms: C_17  and  C_18
REMARK   10  A    between atoms: C_17  and  C_28
REMARK   11  A    between atoms: C_18  and  C_20
REMARK   12  A    between atoms: C_21  and  C_22
REMARK                            x       y       z     vdW  Elec       q    Type
REMARK                         _______ _______ _______ _____ _____    ______ ____
ROOT
ATOM      1  C   UNL     1      -1.174  12.322  21.018  0.00  0.00    +0.000 C 
ENDROOT
BRANCH   1   2
ATOM      2  C   UNL     1      -1.189  11.064  20.122  0.00  0.00    +0.000 C 
ATOM      3  O   UNL     1       0.120  10.703  19.613  0.00  0.00    +0.000 OA
ATOM      4  C   UNL     1       0.001  10.044  18.411  0.00  0.00    +0.000 C 
ATOM      5  O   UNL     1       0.867   9.413  17.841  0.00  0.00    +0.000 OA
ATOM      6  C   UNL     1      -1.340  10.338  17.917  0.00  0.00    +0.000 A 
ATOM      7  C   UNL     1      -1.872  10.095  16.661  0.00  0.00    +0.000 A 
ATOM      8  C   UNL     1      -3.126  10.641  16.377  0.00  0.00    +0.000 A 
ATOM      9  C   UNL     1      -3.815  11.382  17.350  0.00  0.00    +0.000 A 
ATOM     10  C   UNL     1      -3.280  11.555  18.628  0.00  0.00    +0.000 A 
ATOM     11  C   UNL     1      -2.025  11.032  18.895  0.00  0.00    +0.000 A 
ENDBRANCH   1   2
BRANCH   1  12
ATOM     12  C   UNL     1      -1.324  12.010  22.494  0.00  0.00    +0.000 C 
ATOM     13  O   UNL     1      -0.602  11.266  23.144  0.00  0.00    +0.000 OA
BRANCH  12  15
ATOM     14  N   UNL     1      -2.511  14.088  22.881  0.00  0.00    +0.000 N 
ATOM     15  C   UNL     1      -2.423  12.762  23.261  0.00  0.00    +0.000 C 
ATOM     16  O   UNL     1      -3.086  12.166  24.089  0.00  0.00    +0.000 OA
ATOM     17  H   UNL     1      -1.758  14.411  22.287  0.00  0.00    +0.000 HD
BRANCH  14  24
ATOM     18  C   UNL     1      -1.431  15.699  25.068  0.00  0.00    +0.000 C 
ATOM     19  C   UNL     1      -2.836  15.838  24.540  0.00  0.00    +0.000 A 
ATOM     20  C   UNL     1      -3.668  16.757  25.195  0.00  0.00    +0.000 A 
ATOM     21  C   UNL     1      -4.996  16.883  24.832  0.00  0.00    +0.000 A 
ATOM     22  C   UNL     1      -5.508  16.096  23.802  0.00  0.00    +0.000 A 
ATOM     23  C   UNL     1      -4.728  15.144  23.100  0.00  0.00    +0.000 A 
ATOM     24  C   UNL     1      -3.354  15.047  23.472  0.00  0.00    +0.000 A 
BRANCH  23  25
ATOM     25  C   UNL     1      -5.410  14.422  21.896  0.00  0.00    +0.000 C 
ATOM     26  C   UNL     1      -6.652  15.245  21.489  0.00  0.00    +0.000 C 
ATOM     27  C   UNL     1      -4.531  14.223  20.645  0.00  0.00    +0.000 C 
ATOM     28  C   UNL     1      -5.902  12.989  22.256  0.00  0.00    +0.000 C 
ENDBRANCH  23  25
ENDBRANCH  14  24
ENDBRANCH  12  15
ENDBRANCH   1  12
BRANCH   1  29
ATOM     29  C   UNL     1       0.075  13.123  20.656  0.00  0.00    +0.000 C 
ATOM     30  O   UNL     1       1.035  13.157  21.424  0.00  0.00    +0.000 OA
BRANCH  29  31
ATOM     31  C   UNL     1       0.159  13.860  19.353  0.00  0.00    +0.000 C 
ATOM     32  C   UNL     1      -0.185  15.149  19.181  0.00  0.00    +0.000 C 
BRANCH  32  33
ATOM     33  C   UNL     1      -0.645  16.055  20.238  0.00  0.00    +0.000 A 
ATOM     34  C   UNL     1      -1.973  16.493  20.241  0.00  0.00    +0.000 A 
ATOM     35  C   UNL     1      -2.383  17.481  21.140  0.00  0.00    +0.000 A 
ATOM     36  C   UNL     1      -1.469  18.031  22.037  0.00  0.00    +0.000 A 
ATOM     37  C   UNL     1      -0.157  17.560  22.074  0.00  0.00    +0.000 A 
ATOM     38  C   UNL     1       0.251  16.560  21.187  0.00  0.00    +0.000 A 
ENDBRANCH  32  33
ENDBRANCH  29  31
ENDBRANCH   1  29
TORSDOF 8
ENDMDL
MODEL 3
REMARK VINA RESULT:      -7.0      2.041      4.383
REMARK  Name = 
REMARK  12 active torsions:
REMARK  status: ('A' for Active; 'I' for Inactive)
REMARK    1  A    between atoms: C_1  and  C_2
REMARK    2  A    between atoms: C_6  and  C_7
REMARK    3  A    between atoms: C_7  and  C_8
REMARK    4  A    between atoms: C_7  and  C_9
REMARK    5  A    between atoms: C_7  and  C_10
REMARK    6  A    between atoms: C_11  and  N_12
REMARK    7  A    between atoms: C_13  and  C_15
REMARK    8  A    between atoms: C_15  and  C_17
REMARK    9  A    between atoms: C_17  and  C_18
REMARK   10  A    between atoms: C_17  and  C_28
REMARK   11  A    between atoms: C_18  and  C_20
REMARK   12  A    between atoms: C_21  and  C_22
REMARK                            x       y       z     vdW  Elec       q    Type
REMARK                         _______ _______ _______ _____ _____    ______ ____
ROOT
ATOM      1  C   UNL     1       1.624   6.782  19.795  0.00  0.00    +0.000 C 
ENDROOT
BRANCH   1   2
ATOM      2  C   UNL     1       1.354   5.296  20.115  0.00  0.00    +0.000 C 
ATOM      3  O   UNL     1       1.983   4.846  21.342  0.00  0.00    +0.000 OA
ATOM      4  C   UNL     1       2.255   3.499  21.274  0.00  0.00    +0.000 C 
ATOM      5  O   UNL     1       2.560   2.773  22.197  0.00  0.00    +0.000 OA
ATOM      6  C   UNL     1       2.195   3.142  19.860  0.00  0.00    +0.000 A 
ATOM      7  C   UNL     1       2.600   1.968  19.246  0.00  0.00    +0.000 A 
ATOM      8  C   UNL     1       2.612   1.943  17.849  0.00  0.00    +0.000 A 
ATOM      9  C   UNL     1       2.200   3.067  17.115  0.00  0.00    +0.000 A 
ATOM     10  C   UNL     1       1.737   4.213  17.764  0.00  0.00    +0.000 A 
ATOM     11  C   UNL     1       1.752   4.240  19.149  0.00  0.00    +0.000 A 
ENDBRANCH   1   2
BRANCH   1  12
ATOM     12  C   UNL     1       1.469   7.694  20.996  0.00  0.00    +0.000 C 
ATOM     13  O   UNL     1       2.322   7.905  21.848  0.00  0.00    +0.000 OA
BRANCH  12  15
ATOM     14  N   UNL     1       0.369   9.854  21.014  0.00  0.00    +0.000 N 
ATOM     15  C   UNL     1       0.160   8.491  21.107  0.00  0.00    +0.000 C 
ATOM     16  O   UNL     1      -0.890   7.895  21.257  0.00  0.00    +0.000 OA
ATOM     17  H   UNL     1       1.339  10.139  21.046  0.00  0.00    +0.000 HD
BRANCH  14  24
ATOM     18  C   UNL     1      -0.689  10.305  23.701  0.00  0.00    +0.000 C 
ATOM     19  C   UNL     1      -1.144  11.067  22.482  0.00  0.00    +0.000 A 
ATOM     20  C   UNL     1      -2.178  11.996  22.669  0.00  0.00    +0.000 A 
ATOM     21  C   UNL     1      -2.716  12.672  21.590  0.00  0.00    +0.000 A 
ATOM     22  C   UNL     1      -2.220  12.436  20.309  0.00  0.00    +0.000 A 
ATOM     23  C   UNL     1      -1.180  11.509  20.045  0.00  0.00    +0.000 A 
ATOM     24  C   UNL     1      -0.622  10.839  21.175  0.00  0.00    +0.000 A 
BRANCH  23  25
ATOM     25  C   UNL     1      -0.653  11.438  18.578  0.00  0.00    +0.000 C 
ATOM     26  C   UNL     1      -1.376  10.273  17.869  0.00  0.00    +0.000 C 
ATOM     27  C   UNL     1      -0.847  12.713  17.732  0.00  0.00    +0.000 C 
ATOM     28  C   UNL     1       0.875  11.150  18.502  0.00  0.00    +0.000 C 
ENDBRANCH  23  25
ENDBRANCH  14  24
ENDBRANCH  12  15
ENDBRANCH   1  12
BRANCH   1  29
ATOM     29  C   UNL     1       2.984   6.858  19.104  0.00  0.00    +0.000 C 
ATOM     30  O   UNL     1       3.951   6.259  19.570  0.00  0.00    +0.000 OA
BRANCH  29  31
ATOM     31  C   UNL     1       3.156   7.644  17.839  0.00  0.00    +0.000 C 
ATOM     32  C   UNL     1       4.138   7.443  16.942  0.00  0.00    +0.000 C 
BRANCH  32  33
ATOM     33  C   UNL     1       5.163   6.397  17.024  0.00  0.00    +0.000 A 
ATOM     34  C   UNL     1       6.403   6.692  17.598  0.00  0.00    +0.000 A 
ATOM     35  C   UNL     1       7.444   5.762  17.536  0.00  0.00    +0.000 A 
ATOM     36  C   UNL     1       7.246   4.536  16.902  0.00  0.00    +0.000 A 
ATOM     37  C   UNL     1       5.996   4.216  16.374  0.00  0.00    +0.000 A 
ATOM     38  C   UNL     1       4.950   5.139  16.451  0.00  0.00    +0.000 A 
ENDBRANCH  32  33
ENDBRANCH  29  31
ENDBRANCH   1  29
TORSDOF 8
ENDMDL
MODEL 4
REMARK VINA RESULT:      -7.0      6.321     10.337
REMARK  Name = 
REMARK  12 active torsions:
REMARK  status: ('A' for Active; 'I' for Inactive)
REMARK    1  A    between atoms: C_1  and  C_2
REMARK    2  A    between atoms: C_6  and  C_7
REMARK    3  A    between atoms: C_7  and  C_8
REMARK    4  A    between atoms: C_7  and  C_9
REMARK    5  A    between atoms: C_7  and  C_10
REMARK    6  A    between atoms: C_11  and  N_12
REMARK    7  A    between atoms: C_13  and  C_15
REMARK    8  A    between atoms: C_15  and  C_17
REMARK    9  A    between atoms: C_17  and  C_18
REMARK   10  A    between atoms: C_17  and  C_28
REMARK   11  A    between atoms: C_18  and  C_20
REMARK   12  A    between atoms: C_21  and  C_22
REMARK                            x       y       z     vdW  Elec       q    Type
REMARK                         _______ _______ _______ _____ _____    ______ ____
ROOT
ATOM      1  C   UNL     1      -1.034  14.979  22.053  0.00  0.00    +0.000 C 
ENDROOT
BRANCH   1   2
ATOM      2  C   UNL     1       0.241  14.534  21.303  0.00  0.00    +0.000 C 
ATOM      3  O   UNL     1       1.382  14.331  22.175  0.00  0.00    +0.000 OA
ATOM      4  C   UNL     1       2.554  14.556  21.489  0.00  0.00    +0.000 C 
ATOM      5  O   UNL     1       3.673  14.255  21.848  0.00  0.00    +0.000 OA
ATOM      6  C   UNL     1       2.188  15.312  20.295  0.00  0.00    +0.000 A 
ATOM      7  C   UNL     1       3.016  15.966  19.397  0.00  0.00    +0.000 A 
ATOM      8  C   UNL     1       2.410  16.778  18.436  0.00  0.00    +0.000 A 
ATOM      9  C   UNL     1       1.012  16.894  18.384  0.00  0.00    +0.000 A 
ATOM     10  C   UNL     1       0.202  16.172  19.263  0.00  0.00    +0.000 A 
ATOM     11  C   UNL     1       0.811  15.388  20.229  0.00  0.00    +0.000 A 
ENDBRANCH   1   2
BRANCH   1  12
ATOM     12  C   UNL     1      -2.308  14.738  21.269  0.00  0.00    +0.000 C 
ATOM     13  O   UNL     1      -3.095  15.600  20.901  0.00  0.00    +0.000 OA
BRANCH  12  15
ATOM     14  N   UNL     1      -2.324  13.106  19.476  0.00  0.00    +0.000 N 
ATOM     15  C   UNL     1      -2.592  13.296  20.819  0.00  0.00    +0.000 C 
ATOM     16  O   UNL     1      -3.003  12.489  21.631  0.00  0.00    +0.000 OA
ATOM     17  H   UNL     1      -2.139  13.953  18.956  0.00  0.00    +0.000 HD
BRANCH  14  24
ATOM     18  C   UNL     1      -5.068  12.588  18.611  0.00  0.00    +0.000 C 
ATOM     19  C   UNL     1      -3.912  11.661  18.332  0.00  0.00    +0.000 A 
ATOM     20  C   UNL     1      -4.212  10.460  17.672  0.00  0.00    +0.000 A 
ATOM     21  C   UNL     1      -3.227   9.514  17.456  0.00  0.00    +0.000 A 
ATOM     22  C   UNL     1      -1.926   9.760  17.891  0.00  0.00    +0.000 A 
ATOM     23  C   UNL     1      -1.552  10.948  18.568  0.00  0.00    +0.000 A 
ATOM     24  C   UNL     1      -2.577  11.922  18.759  0.00  0.00    +0.000 A 
BRANCH  23  25
ATOM     25  C   UNL     1      -0.036  11.130  18.890  0.00  0.00    +0.000 C 
ATOM     26  C   UNL     1       0.730   9.950  18.252  0.00  0.00    +0.000 C 
ATOM     27  C   UNL     1       0.604  12.443  18.396  0.00  0.00    +0.000 C 
ATOM     28  C   UNL     1       0.262  11.103  20.417  0.00  0.00    +0.000 C 
ENDBRANCH  23  25
ENDBRANCH  14  24
ENDBRANCH  12  15
ENDBRANCH   1  12
BRANCH   1  29
ATOM     29  C   UNL     1      -0.998  14.328  23.434  0.00  0.00    +0.000 C 
ATOM     30  O   UNL     1      -0.682  13.146  23.555  0.00  0.00    +0.000 OA
BRANCH  29  31
ATOM     31  C   UNL     1      -1.325  15.123  24.663  0.00  0.00    +0.000 C 
ATOM     32  C   UNL     1      -2.546  15.200  25.221  0.00  0.00    +0.000 C 
BRANCH  32  33
ATOM     33  C   UNL     1      -3.739  14.484  24.757  0.00  0.00    +0.000 A 
ATOM     34  C   UNL     1      -3.883  13.124  25.048  0.00  0.00    +0.000 A 
ATOM     35  C   UNL     1      -4.926  12.392  24.477  0.00  0.00    +0.000 A 
ATOM     36  C   UNL     1      -5.828  13.016  23.616  0.00  0.00    +0.000 A 
ATOM     37  C   UNL     1      -5.720  14.383  23.365  0.00  0.00    +0.000 A 
ATOM     38  C   UNL     1      -4.687  15.121  23.949  0.00  0.00    +0.000 A 
ENDBRANCH  32  33
ENDBRANCH  29  31
ENDBRANCH   1  29
TORSDOF 8
ENDMDL
MODEL 5
REMARK VINA RESULT:      -6.9      5.097      9.709
REMARK  Name = 
REMARK  12 active torsions:
REMARK  status: ('A' for Active; 'I' for Inactive)
REMARK    1  A    between atoms: C_1  and  C_2
REMARK    2  A    between atoms: C_6  and  C_7
REMARK    3  A    between atoms: C_7  and  C_8
REMARK    4  A    between atoms: C_7  and  C_9
REMARK    5  A    between atoms: C_7  and  C_10
REMARK    6  A    between atoms: C_11  and  N_12
REMARK    7  A    between atoms: C_13  and  C_15
REMARK    8  A    between atoms: C_15  and  C_17
REMARK    9  A    between atoms: C_17  and  C_18
REMARK   10  A    between atoms: C_17  and  C_28
REMARK   11  A    between atoms: C_18  and  C_20
REMARK   12  A    between atoms: C_21  and  C_22
REMARK                            x       y       z     vdW  Elec       q    Type
REMARK                         _______ _______ _______ _____ _____    ______ ____
ROOT
ATOM      1  C   UNL     1      -0.509  12.911  20.723  0.00  0.00    +0.000 C 
ENDROOT
BRANCH   1   2
ATOM      2  C   UNL     1      -0.617  11.454  21.224  0.00  0.00    +0.000 C 
ATOM      3  O   UNL     1      -0.272  11.299  22.624  0.00  0.00    +0.000 OA
ATOM      4  C   UNL     1       0.217  10.035  22.859  0.00  0.00    +0.000 C 
ATOM      5  O   UNL     1       0.377   9.508  23.941  0.00  0.00    +0.000 OA
ATOM      6  C   UNL     1       0.591   9.494  21.556  0.00  0.00    +0.000 A 
ATOM      7  C   UNL     1       1.324   8.354  21.270  0.00  0.00    +0.000 A 
ATOM      8  C   UNL     1       1.709   8.152  19.943  0.00  0.00    +0.000 A 
ATOM      9  C   UNL     1       1.335   9.069  18.947  0.00  0.00    +0.000 A 
ATOM     10  C   UNL     1       0.541  10.175  19.258  0.00  0.00    +0.000 A 
ATOM     11  C   UNL     1       0.184  10.383  20.580  0.00  0.00    +0.000 A 
ENDBRANCH   1   2
BRANCH   1  12
ATOM     12  C   UNL     1      -1.374  13.881  21.503  0.00  0.00    +0.000 C 
ATOM     13  O   UNL     1      -0.986  14.633  22.387  0.00  0.00    +0.000 OA
BRANCH  12  15
ATOM     14  N   UNL     1      -3.551  12.828  21.325  0.00  0.00    +0.000 N 
ATOM     15  C   UNL     1      -2.850  13.995  21.088  0.00  0.00    +0.000 C 
ATOM     16  O   UNL     1      -3.256  15.039  20.614  0.00  0.00    +0.000 OA
ATOM     17  H   UNL     1      -2.979  12.033  21.581  0.00  0.00    +0.000 HD
BRANCH  14  24
ATOM     18  C   UNL     1      -4.087  11.832  18.630  0.00  0.00    +0.000 C 
ATOM     19  C   UNL     1      -5.162  12.112  19.649  0.00  0.00    +0.000 A 
ATOM     20  C   UNL     1      -6.489  11.934  19.232  0.00  0.00    +0.000 A 
ATOM     21  C   UNL     1      -7.538  12.254  20.074  0.00  0.00    +0.000 A 
ATOM     22  C   UNL     1      -7.274  12.748  21.350  0.00  0.00    +0.000 A 
ATOM     23  C   UNL     1      -5.958  12.958  21.837  0.00  0.00    +0.000 A 
ATOM     24  C   UNL     1      -4.890  12.599  20.962  0.00  0.00    +0.000 A 
BRANCH  23  25
ATOM     25  C   UNL     1      -5.820  13.407  23.325  0.00  0.00    +0.000 C 
ATOM     26  C   UNL     1      -5.478  14.913  23.338  0.00  0.00    +0.000 C 
ATOM     27  C   UNL     1      -7.063  13.187  24.212  0.00  0.00    +0.000 C 
ATOM     28  C   UNL     1      -4.674  12.665  24.072  0.00  0.00    +0.000 C 
ENDBRANCH  23  25
ENDBRANCH  14  24
ENDBRANCH  12  15
ENDBRANCH   1  12
BRANCH   1  29
ATOM     29  C   UNL     1       0.975  13.268  20.679  0.00  0.00    +0.000 C 
ATOM     30  O   UNL     1       1.628  13.334  21.719  0.00  0.00    +0.000 OA
BRANCH  29  31
ATOM     31  C   UNL     1       1.662  13.522  19.371  0.00  0.00    +0.000 C 
ATOM     32  C   UNL     1       1.587  14.674  18.679  0.00  0.00    +0.000 C 
BRANCH  32  33
ATOM     33  C   UNL     1       0.872  15.879  19.110  0.00  0.00    +0.000 A 
ATOM     34  C   UNL     1      -0.430  16.108  18.655  0.00  0.00    +0.000 A 
ATOM     35  C   UNL     1      -1.062  17.325  18.920  0.00  0.00    +0.000 A 
ATOM     36  C   UNL     1      -0.395  18.315  19.642  0.00  0.00    +0.000 A 
ATOM     37  C   UNL     1       0.883  18.071  20.144  0.00  0.00    +0.000 A 
ATOM     38  C   UNL     1       1.510  16.848  19.893  0.00  0.00    +0.000 A 
ENDBRANCH  32  33
ENDBRANCH  29  31
ENDBRANCH   1  29
TORSDOF 8
ENDMDL
MODEL 6
REMARK VINA RESULT:      -6.8      6.097     10.063
REMARK  Name = 
REMARK  12 active torsions:
REMARK  status: ('A' for Active; 'I' for Inactive)
REMARK    1  A    between atoms: C_1  and  C_2
REMARK    2  A    between atoms: C_6  and  C_7
REMARK    3  A    between atoms: C_7  and  C_8
REMARK    4  A    between atoms: C_7  and  C_9
REMARK    5  A    between atoms: C_7  and  C_10
REMARK    6  A    between atoms: C_11  and  N_12
REMARK    7  A    between atoms: C_13  and  C_15
REMARK    8  A    between atoms: C_15  and  C_17
REMARK    9  A    between atoms: C_17  and  C_18
REMARK   10  A    between atoms: C_17  and  C_28
REMARK   11  A    between atoms: C_18  and  C_20
REMARK   12  A    between atoms: C_21  and  C_22
REMARK                            x       y       z     vdW  Elec       q    Type
REMARK                         _______ _______ _______ _____ _____    ______ ____
ROOT
ATOM      1  C   UNL     1      -1.039  12.268  20.949  0.00  0.00    +0.000 C 
ENDROOT
BRANCH   1   2
ATOM      2  C   UNL     1      -1.105  11.010  20.056  0.00  0.00    +0.000 C 
ATOM      3  O   UNL     1       0.181  10.622  19.510  0.00  0.00    +0.000 OA
ATOM      4  C   UNL     1       0.014   9.964  18.313  0.00  0.00    +0.000 C 
ATOM      5  O   UNL     1       0.850   9.315  17.719  0.00  0.00    +0.000 OA
ATOM      6  C   UNL     1      -1.336  10.284  17.858  0.00  0.00    +0.000 A 
ATOM      7  C   UNL     1      -1.909  10.050  16.619  0.00  0.00    +0.000 A 
ATOM      8  C   UNL     1      -3.159  10.620  16.371  0.00  0.00    +0.000 A 
ATOM      9  C   UNL     1      -3.805  11.377  17.362  0.00  0.00    +0.000 A 
ATOM     10  C   UNL     1      -3.229  11.540  18.623  0.00  0.00    +0.000 A 
ATOM     11  C   UNL     1      -1.977  10.993  18.854  0.00  0.00    +0.000 A 
ENDBRANCH   1   2
BRANCH   1  12
ATOM     12  C   UNL     1      -1.328  11.985  22.410  0.00  0.00    +0.000 C 
ATOM     13  O   UNL     1      -0.591  11.384  23.180  0.00  0.00    +0.000 OA
BRANCH  12  15
ATOM     14  N   UNL     1      -2.855  13.863  22.541  0.00  0.00    +0.000 N 
ATOM     15  C   UNL     1      -2.617  12.580  22.998  0.00  0.00    +0.000 C 
ATOM     16  O   UNL     1      -3.282  11.916  23.769  0.00  0.00    +0.000 OA
ATOM     17  H   UNL     1      -2.091  14.280  22.026  0.00  0.00    +0.000 HD
BRANCH  14  24
ATOM     18  C   UNL     1      -5.412  13.694  21.135  0.00  0.00    +0.000 C 
ATOM     19  C   UNL     1      -5.154  14.621  22.295  0.00  0.00    +0.000 A 
ATOM     20  C   UNL     1      -6.198  15.483  22.659  0.00  0.00    +0.000 A 
ATOM     21  C   UNL     1      -6.015  16.426  23.654  0.00  0.00    +0.000 A 
ATOM     22  C   UNL     1      -4.786  16.514  24.304  0.00  0.00    +0.000 A 
ATOM     23  C   UNL     1      -3.685  15.679  23.986  0.00  0.00    +0.000 A 
ATOM     24  C   UNL     1      -3.902  14.696  22.975  0.00  0.00    +0.000 A 
BRANCH  23  25
ATOM     25  C   UNL     1      -2.413  15.818  24.879  0.00  0.00    +0.000 C 
ATOM     26  C   UNL     1      -2.529  14.799  26.034  0.00  0.00    +0.000 C 
ATOM     27  C   UNL     1      -1.064  15.590  24.168  0.00  0.00    +0.000 C 
ATOM     28  C   UNL     1      -2.280  17.230  25.520  0.00  0.00    +0.000 C 
ENDBRANCH  23  25
ENDBRANCH  14  24
ENDBRANCH  12  15
ENDBRANCH   1  12
BRANCH   1  29
ATOM     29  C   UNL     1       0.304  12.945  20.681  0.00  0.00    +0.000 C 
ATOM     30  O   UNL     1       1.127  13.071  21.586  0.00  0.00    +0.000 OA
BRANCH  29  31
ATOM     31  C   UNL     1       0.647  13.446  19.310  0.00  0.00    +0.000 C 
ATOM     32  C   UNL     1       0.432  14.702  18.879  0.00  0.00    +0.000 C 
BRANCH  32  33
ATOM     33  C   UNL     1      -0.120  15.795  19.686  0.00  0.00    +0.000 A 
ATOM     34  C   UNL     1       0.748  16.647  20.376  0.00  0.00    +0.000 A 
ATOM     35  C   UNL     1       0.239  17.586  21.276  0.00  0.00    +0.000 A 
ATOM     36  C   UNL     1      -1.136  17.676  21.488  0.00  0.00    +0.000 A 
ATOM     37  C   UNL     1      -2.009  16.865  20.763  0.00  0.00    +0.000 A 
ATOM     38  C   UNL     1      -1.502  15.937  19.850  0.00  0.00    +0.000 A 
ENDBRANCH  32  33
ENDBRANCH  29  31
ENDBRANCH   1  29
TORSDOF 8
ENDMDL
MODEL 7
REMARK VINA RESULT:      -6.8      4.128      8.547
REMARK  Name = 
REMARK  12 active torsions:
REMARK  status: ('A' for Active; 'I' for Inactive)
REMARK    1  A    between atoms: C_1  and  C_2
REMARK    2  A    between atoms: C_6  and  C_7
REMARK    3  A    between atoms: C_7  and  C_8
REMARK    4  A    between atoms: C_7  and  C_9
REMARK    5  A    between atoms: C_7  and  C_10
REMARK    6  A    between atoms: C_11  and  N_12
REMARK    7  A    between atoms: C_13  and  C_15
REMARK    8  A    between atoms: C_15  and  C_17
REMARK    9  A    between atoms: C_17  and  C_18
REMARK   10  A    between atoms: C_17  and  C_28
REMARK   11  A    between atoms: C_18  and  C_20
REMARK   12  A    between atoms: C_21  and  C_22
REMARK                            x       y       z     vdW  Elec       q    Type
REMARK                         _______ _______ _______ _____ _____    ______ ____
ROOT
ATOM      1  C   UNL     1       0.543  12.072  19.337  0.00  0.00    +0.000 C 
ENDROOT
BRANCH   1   2
ATOM      2  C   UNL     1       0.323  10.660  19.925  0.00  0.00    +0.000 C 
ATOM      3  O   UNL     1       0.604  10.577  21.345  0.00  0.00    +0.000 OA
ATOM      4  C   UNL     1       1.001   9.303  21.680  0.00  0.00    +0.000 C 
ATOM      5  O   UNL     1       1.087   8.840  22.799  0.00  0.00    +0.000 OA
ATOM      6  C   UNL     1       1.388   8.655  20.431  0.00  0.00    +0.000 A 
ATOM      7  C   UNL     1       2.056   7.456  20.249  0.00  0.00    +0.000 A 
ATOM      8  C   UNL     1       2.476   7.143  18.954  0.00  0.00    +0.000 A 
ATOM      9  C   UNL     1       2.199   8.013  17.888  0.00  0.00    +0.000 A 
ATOM     10  C   UNL     1       1.468   9.184  18.094  0.00  0.00    +0.000 A 
ATOM     11  C   UNL     1       1.076   9.501  19.384  0.00  0.00    +0.000 A 
ENDBRANCH   1   2
BRANCH   1  12
ATOM     12  C   UNL     1      -0.679  12.627  18.633  0.00  0.00    +0.000 C 
ATOM     13  O   UNL     1      -0.678  13.521  17.798  0.00  0.00    +0.000 OA
BRANCH  12  15
ATOM     14  N   UNL     1      -2.981  12.848  19.363  0.00  0.00    +0.000 N 
ATOM     15  C   UNL     1      -2.027  11.948  18.927  0.00  0.00    +0.000 C 
ATOM     16  O   UNL     1      -2.138  10.748  18.761  0.00  0.00    +0.000 OA
ATOM     17  H   UNL     1      -2.628  13.772  19.577  0.00  0.00    +0.000 HD
BRANCH  14  24
ATOM     18  C   UNL     1      -4.931  12.018  17.350  0.00  0.00    +0.000 C 
ATOM     19  C   UNL     1      -5.233  12.103  18.825  0.00  0.00    +0.000 A 
ATOM     20  C   UNL     1      -6.550  11.822  19.216  0.00  0.00    +0.000 A 
ATOM     21  C   UNL     1      -6.934  11.962  20.536  0.00  0.00    +0.000 A 
ATOM     22  C   UNL     1      -6.004  12.379  21.486  0.00  0.00    +0.000 A 
ATOM     23  C   UNL     1      -4.658  12.685  21.162  0.00  0.00    +0.000 A 
ATOM     24  C   UNL     1      -4.275  12.510  19.799  0.00  0.00    +0.000 A 
BRANCH  23  25
ATOM     25  C   UNL     1      -3.706  13.027  22.351  0.00  0.00    +0.000 C 
ATOM     26  C   UNL     1      -4.530  12.954  23.656  0.00  0.00    +0.000 C 
ATOM     27  C   UNL     1      -2.472  12.115  22.508  0.00  0.00    +0.000 C 
ATOM     28  C   UNL     1      -3.117  14.464  22.256  0.00  0.00    +0.000 C 
ENDBRANCH  23  25
ENDBRANCH  14  24
ENDBRANCH  12  15
ENDBRANCH   1  12
BRANCH   1  29
ATOM     29  C   UNL     1       1.091  12.951  20.459  0.00  0.00    +0.000 C 
ATOM     30  O   UNL     1       2.222  12.759  20.901  0.00  0.00    +0.000 OA
BRANCH  29  31
ATOM     31  C   UNL     1       0.270  14.072  21.022  0.00  0.00    +0.000 C 
ATOM     32  C   UNL     1       0.548  15.378  20.862  0.00  0.00    +0.000 C 
BRANCH  32  33
ATOM     33  C   UNL     1       1.659  15.920  20.071  0.00  0.00    +0.000 A 
ATOM     34  C   UNL     1       1.502  16.096  18.693  0.00  0.00    +0.000 A 
ATOM     35  C   UNL     1       2.597  16.452  17.903  0.00  0.00    +0.000 A 
ATOM     36  C   UNL     1       3.849  16.637  18.488  0.00  0.00    +0.000 A 
ATOM     37  C   UNL     1       3.999  16.515  19.869  0.00  0.00    +0.000 A 
ATOM     38  C   UNL     1       2.901  16.173  20.663  0.00  0.00    +0.000 A 
ENDBRANCH  32  33
ENDBRANCH  29  31
ENDBRANCH   1  29
TORSDOF 8
ENDMDL
MODEL 8
REMARK VINA RESULT:      -6.8      4.180      8.490
REMARK  Name = 
REMARK  12 active torsions:
REMARK  status: ('A' for Active; 'I' for Inactive)
REMARK    1  A    between atoms: C_1  and  C_2
REMARK    2  A    between atoms: C_6  and  C_7
REMARK    3  A    between atoms: C_7  and  C_8
REMARK    4  A    between atoms: C_7  and  C_9
REMARK    5  A    between atoms: C_7  and  C_10
REMARK    6  A    between atoms: C_11  and  N_12
REMARK    7  A    between atoms: C_13  and  C_15
REMARK    8  A    between atoms: C_15  and  C_17
REMARK    9  A    between atoms: C_17  and  C_18
REMARK   10  A    between atoms: C_17  and  C_28
REMARK   11  A    between atoms: C_18  and  C_20
REMARK   12  A    between atoms: C_21  and  C_22
REMARK                            x       y       z     vdW  Elec       q    Type
REMARK                         _______ _______ _______ _____ _____    ______ ____
ROOT
ATOM      1  C   UNL     1       0.522  12.193  19.407  0.00  0.00    +0.000 C 
ENDROOT
BRANCH   1   2
ATOM      2  C   UNL     1       0.321  10.775  19.985  0.00  0.00    +0.000 C 
ATOM      3  O   UNL     1       0.668  10.669  21.389  0.00  0.00    +0.000 OA
ATOM      4  C   UNL     1       1.072   9.388  21.687  0.00  0.00    +0.000 C 
ATOM      5  O   UNL     1       1.207   8.909  22.794  0.00  0.00    +0.000 OA
ATOM      6  C   UNL     1       1.398   8.757  20.412  0.00  0.00    +0.000 A 
ATOM      7  C   UNL     1       2.050   7.557  20.182  0.00  0.00    +0.000 A 
ATOM      8  C   UNL     1       2.408   7.261  18.865  0.00  0.00    +0.000 A 
ATOM      9  C   UNL     1       2.088   8.148  17.825  0.00  0.00    +0.000 A 
ATOM     10  C   UNL     1       1.373   9.320  18.082  0.00  0.00    +0.000 A 
ATOM     11  C   UNL     1       1.043   9.619  19.393  0.00  0.00    +0.000 A 
ENDBRANCH   1   2
BRANCH   1  12
ATOM     12  C   UNL     1      -0.673  12.698  18.624  0.00  0.00    +0.000 C 
ATOM     13  O   UNL     1      -0.652  13.588  17.783  0.00  0.00    +0.000 OA
BRANCH  12  15
ATOM     14  N   UNL     1      -3.011  12.827  19.253  0.00  0.00    +0.000 N 
ATOM     15  C   UNL     1      -2.009  11.970  18.837  0.00  0.00    +0.000 C 
ATOM     16  O   UNL     1      -2.074  10.772  18.633  0.00  0.00    +0.000 OA
ATOM     17  H   UNL     1      -2.698  13.755  19.507  0.00  0.00    +0.000 HD
BRANCH  14  24
ATOM     18  C   UNL     1      -4.793  11.855  17.150  0.00  0.00    +0.000 C 
ATOM     19  C   UNL     1      -5.188  11.961  18.601  0.00  0.00    +0.000 A 
ATOM     20  C   UNL     1      -6.512  11.625  18.920  0.00  0.00    +0.000 A 
ATOM     21  C   UNL     1      -6.982  11.778  20.210  0.00  0.00    +0.000 A 
ATOM     22  C   UNL     1      -6.133  12.262  21.203  0.00  0.00    +0.000 A 
ATOM     23  C   UNL     1      -4.785  12.626  20.952  0.00  0.00    +0.000 A 
ATOM     24  C   UNL     1      -4.312  12.437  19.619  0.00  0.00    +0.000 A 
BRANCH  23  25
ATOM     25  C   UNL     1      -3.925  13.041  22.186  0.00  0.00    +0.000 C 
ATOM     26  C   UNL     1      -3.401  14.474  21.940  0.00  0.00    +0.000 C 
ATOM     27  C   UNL     1      -4.649  13.020  23.548  0.00  0.00    +0.000 C 
ATOM     28  C   UNL     1      -2.685  12.124  22.390  0.00  0.00    +0.000 C 
ENDBRANCH  23  25
ENDBRANCH  14  24
ENDBRANCH  12  15
ENDBRANCH   1  12
BRANCH   1  29
ATOM     29  C   UNL     1       0.960  13.095  20.559  0.00  0.00    +0.000 C 
ATOM     30  O   UNL     1       0.126  13.727  21.205  0.00  0.00    +0.000 OA
BRANCH  29  31
ATOM     31  C   UNL     1       2.407  13.206  20.935  0.00  0.00    +0.000 C 
ATOM     32  C   UNL     1       3.290  14.030  20.342  0.00  0.00    +0.000 C 
BRANCH  32  33
ATOM     33  C   UNL     1       2.976  14.987  19.275  0.00  0.00    +0.000 A 
ATOM     34  C   UNL     1       3.588  14.851  18.026  0.00  0.00    +0.000 A 
ATOM     35  C   UNL     1       3.429  15.843  17.056  0.00  0.00    +0.000 A 
ATOM     36  C   UNL     1       2.656  16.971  17.331  0.00  0.00    +0.000 A 
ATOM     37  C   UNL     1       2.000  17.085  18.556  0.00  0.00    +0.000 A 
ATOM     38  C   UNL     1       2.145  16.085  19.521  0.00  0.00    +0.000 A 
ENDBRANCH  32  33
ENDBRANCH  29  31
ENDBRANCH   1  29
TORSDOF 8
ENDMDL
MODEL 9
REMARK VINA RESULT:      -6.8      4.489      9.143
REMARK  Name = 
REMARK  12 active torsions:
REMARK  status: ('A' for Active; 'I' for Inactive)
REMARK    1  A    between atoms: C_1  and  C_2
REMARK    2  A    between atoms: C_6  and  C_7
REMARK    3  A    between atoms: C_7  and  C_8
REMARK    4  A    between atoms: C_7  and  C_9
REMARK    5  A    between atoms: C_7  and  C_10
REMARK    6  A    between atoms: C_11  and  N_12
REMARK    7  A    between atoms: C_13  and  C_15
REMARK    8  A    between atoms: C_15  and  C_17
REMARK    9  A    between atoms: C_17  and  C_18
REMARK   10  A    between atoms: C_17  and  C_28
REMARK   11  A    between atoms: C_18  and  C_20
REMARK   12  A    between atoms: C_21  and  C_22
REMARK                            x       y       z     vdW  Elec       q    Type
REMARK                         _______ _______ _______ _____ _____    ______ ____
ROOT
ATOM      1  C   UNL     1      -0.015  12.507  20.242  0.00  0.00    +0.000 C 
ENDROOT
BRANCH   1   2
ATOM      2  C   UNL     1      -0.026  11.002  20.588  0.00  0.00    +0.000 C 
ATOM      3  O   UNL     1       0.509  10.709  21.904  0.00  0.00    +0.000 OA
ATOM      4  C   UNL     1       1.048   9.443  21.929  0.00  0.00    +0.000 C 
ATOM      5  O   UNL     1       1.363   8.809  22.915  0.00  0.00    +0.000 OA
ATOM      6  C   UNL     1       1.252   9.059  20.536  0.00  0.00    +0.000 A 
ATOM      7  C   UNL     1       1.960   7.981  20.031  0.00  0.00    +0.000 A 
ATOM      8  C   UNL     1       2.165   7.936  18.650  0.00  0.00    +0.000 A 
ATOM      9  C   UNL     1       1.642   8.942  17.821  0.00  0.00    +0.000 A 
ATOM     10  C   UNL     1       0.878   9.981  18.355  0.00  0.00    +0.000 A 
ATOM     11  C   UNL     1       0.700  10.033  19.728  0.00  0.00    +0.000 A 
ENDBRANCH   1   2
BRANCH   1  12
ATOM     12  C   UNL     1      -0.991  13.321  21.067  0.00  0.00    +0.000 C 
ATOM     13  O   UNL     1      -0.736  13.887  22.122  0.00  0.00    +0.000 OA
BRANCH  12  15
ATOM     14  N   UNL     1      -3.014  12.334  20.166  0.00  0.00    +0.000 N 
ATOM     15  C   UNL     1      -2.398  13.530  20.485  0.00  0.00    +0.000 C 
ATOM     16  O   UNL     1      -2.830  14.660  20.360  0.00  0.00    +0.000 OA
ATOM     17  H   UNL     1      -2.412  11.521  20.208  0.00  0.00    +0.000 HD
BRANCH  14  24
ATOM     18  C   UNL     1      -5.385  13.245  21.612  0.00  0.00    +0.000 C 
ATOM     19  C   UNL     1      -5.425  12.651  20.227  0.00  0.00    +0.000 A 
ATOM     20  C   UNL     1      -6.691  12.482  19.649  0.00  0.00    +0.000 A 
ATOM     21  C   UNL     1      -6.824  11.864  18.419  0.00  0.00    +0.000 A 
ATOM     22  C   UNL     1      -5.690  11.413  17.747  0.00  0.00    +0.000 A 
ATOM     23  C   UNL     1      -4.380  11.546  18.272  0.00  0.00    +0.000 A 
ATOM     24  C   UNL     1      -4.262  12.209  19.530  0.00  0.00    +0.000 A 
BRANCH  23  25
ATOM     25  C   UNL     1      -3.202  11.098  17.351  0.00  0.00    +0.000 C 
ATOM     26  C   UNL     1      -2.762   9.685  17.795  0.00  0.00    +0.000 C 
ATOM     27  C   UNL     1      -3.508  11.055  15.840  0.00  0.00    +0.000 C 
ATOM     28  C   UNL     1      -1.960  12.028  17.470  0.00  0.00    +0.000 C 
ENDBRANCH  23  25
ENDBRANCH  14  24
ENDBRANCH  12  15
ENDBRANCH   1  12
BRANCH   1  29
ATOM     29  C   UNL     1       1.436  12.979  20.315  0.00  0.00    +0.000 C 
ATOM     30  O   UNL     1       2.031  12.990  21.391  0.00  0.00    +0.000 OA
BRANCH  29  31
ATOM     31  C   UNL     1       2.162  13.414  19.077  0.00  0.00    +0.000 C 
ATOM     32  C   UNL     1       2.050  14.630  18.513  0.00  0.00    +0.000 C 
BRANCH  32  33
ATOM     33  C   UNL     1       1.250  15.741  19.039  0.00  0.00    +0.000 A 
ATOM     34  C   UNL     1      -0.056  15.928  18.577  0.00  0.00    +0.000 A 
ATOM     35  C   UNL     1      -0.771  17.072  18.942  0.00  0.00    +0.000 A 
ATOM     36  C   UNL     1      -0.184  18.028  19.769  0.00  0.00    +0.000 A 
ATOM     37  C   UNL     1       1.098  17.820  20.276  0.00  0.00    +0.000 A 
ATOM     38  C   UNL     1       1.809  16.669  19.925  0.00  0.00    +0.000 A 
ENDBRANCH  32  33
ENDBRANCH  29  31
ENDBRANCH   1  29
TORSDOF 8
ENDMDL
