MODEL 1
REMARK VINA RESULT:      -7.9      0.000      0.000
REMARK  Name = 
REMARK  9 active torsions:
REMARK  status: ('A' for Active; 'I' for Inactive)
REMARK    1  A    between atoms: C_1  and  N_2
REMARK    2  A    between atoms: C_6  and  N_7
REMARK    3  A    between atoms: N_7  and  C_8
REMARK    4  A    between atoms: N_7  and  C_19
REMARK    5  A    between atoms: C_8  and  C_9
REMARK    6  A    between atoms: C_9  and  C_10
REMARK    7  A    between atoms: C_10  and  C_11
REMARK    8  A    between atoms: C_11  and  C_12
REMARK    9  A    between atoms: C_12  and  C_13
REMARK                            x       y       z     vdW  Elec       q    Type
REMARK                         _______ _______ _______ _____ _____    ______ ____
ROOT
ATOM      1  N   UNL     1       3.398   5.365  18.536  0.00  0.00    +0.000 N 
ENDROOT
BRANCH   1   7
ATOM      2  C   UNL     1       6.638   4.640  14.997  0.00  0.00    +0.000 C 
ATOM      3  N   UNL     1       6.383   5.044  16.387  0.00  0.00    +0.000 N 
ATOM      4  C   UNL     1       7.404   5.109  17.263  0.00  0.00    +0.000 A 
ATOM      5  C   UNL     1       7.149   5.269  18.609  0.00  0.00    +0.000 A 
ATOM      6  C   UNL     1       5.826   5.322  19.040  0.00  0.00    +0.000 A 
ATOM      7  C   UNL     1       4.755   5.352  18.143  0.00  0.00    +0.000 A 
ATOM      8  C   UNL     1       5.104   5.232  16.788  0.00  0.00    +0.000 A 
ENDBRANCH   1   7
BRANCH   1   9
ATOM      9  C   UNL     1       2.786   4.375  19.403  0.00  0.00    +0.000 A 
ATOM     10  C   UNL     1       2.626   4.625  20.789  0.00  0.00    +0.000 A 
ATOM     11  C   UNL     1       2.000   3.712  21.650  0.00  0.00    +0.000 A 
ATOM     12  C   UNL     1       1.487   2.524  21.155  0.00  0.00    +0.000 A 
ATOM     13  C   UNL     1       1.638   2.229  19.804  0.00  0.00    +0.000 A 
ATOM     14  C   UNL     1       2.298   3.123  18.943  0.00  0.00    +0.000 A 
ATOM     15 CL   UNL     1       2.531   2.539  17.324  0.00  0.00    +0.000 Cl
ENDBRANCH   1   9
BRANCH   1  16
ATOM     16  C   UNL     1       2.407   6.379  18.037  0.00  0.00    +0.000 C 
BRANCH  16  17
ATOM     17  C   UNL     1       2.287   7.724  18.744  0.00  0.00    +0.000 C 
BRANCH  17  18
ATOM     18  C   UNL     1       2.051   8.909  17.793  0.00  0.00    +0.000 C 
BRANCH  18  19
ATOM     19  C   UNL     1       1.090   9.935  18.400  0.00  0.00    +0.000 C 
BRANCH  19  20
ATOM     20  C   UNL     1       0.544   9.537  19.768  0.00  0.00    +0.000 C 
BRANCH  20  21
ATOM     21  C   UNL     1       1.086  10.309  20.986  0.00  0.00    +0.000 C 
ATOM     22  C   UNL     1       0.342  11.623  21.308  0.00  0.00    +0.000 C 
ATOM     23  C   UNL     1      -1.018  11.447  21.980  0.00  0.00    +0.000 C 
ATOM     24  C   UNL     1      -1.012  10.421  23.114  0.00  0.00    +0.000 C 
ATOM     25  C   UNL     1      -0.342   9.115  22.707  0.00  0.00    +0.000 C 
ATOM     26  C   UNL     1       1.076   9.384  22.213  0.00  0.00    +0.000 C 
ENDBRANCH  20  21
ENDBRANCH  19  20
ENDBRANCH  18  19
ENDBRANCH  17  18
ENDBRANCH  16  17
ENDBRANCH   1  16
TORSDOF 8
ENDMDL
MODEL 2
REMARK VINA RESULT:      -7.8      0.974      1.348
REMARK  Name = 
REMARK  9 active torsions:
REMARK  status: ('A' for Active; 'I' for Inactive)
REMARK    1  A    between atoms: C_1  and  N_2
REMARK    2  A    between atoms: C_6  and  N_7
REMARK    3  A    between atoms: N_7  and  C_8
REMARK    4  A    between atoms: N_7  and  C_19
REMARK    5  A    between atoms: C_8  and  C_9
REMARK    6  A    between atoms: C_9  and  C_10
REMARK    7  A    between atoms: C_10  and  C_11
REMARK    8  A    between atoms: C_11  and  C_12
REMARK    9  A    between atoms: C_12  and  C_13
REMARK                            x       y       z     vdW  Elec       q    Type
REMARK                         _______ _______ _______ _____ _____    ______ ____
ROOT
ATOM      1  N   UNL     1       3.402   5.716  18.955  0.00  0.00    +0.000 N 
ENDROOT
BRANCH   1   7
ATOM      2  C   UNL     1       7.690   7.373  17.403  0.00  0.00    +0.000 C 
ATOM      3  N   UNL     1       6.713   6.274  17.422  0.00  0.00    +0.000 N 
ATOM      4  C   UNL     1       6.810   5.277  16.522  0.00  0.00    +0.000 A 
ATOM      5  C   UNL     1       5.782   4.367  16.388  0.00  0.00    +0.000 A 
ATOM      6  C   UNL     1       4.639   4.525  17.166  0.00  0.00    +0.000 A 
ATOM      7  C   UNL     1       4.554   5.494  18.170  0.00  0.00    +0.000 A 
ATOM      8  C   UNL     1       5.663   6.350  18.273  0.00  0.00    +0.000 A 
ENDBRANCH   1   7
BRANCH   1   9
ATOM      9  C   UNL     1       2.643   4.667  19.613  0.00  0.00    +0.000 A 
ATOM     10  C   UNL     1       2.923   4.301  20.953  0.00  0.00    +0.000 A 
ATOM     11  C   UNL     1       2.182   3.325  21.635  0.00  0.00    +0.000 A 
ATOM     12  C   UNL     1       1.118   2.694  21.013  0.00  0.00    +0.000 A 
ATOM     13  C   UNL     1       0.818   3.009  19.691  0.00  0.00    +0.000 A 
ATOM     14  C   UNL     1       1.581   3.960  18.990  0.00  0.00    +0.000 A 
ATOM     15 CL   UNL     1       1.171   4.128  17.311  0.00  0.00    +0.000 Cl
ENDBRANCH   1   9
BRANCH   1  16
ATOM     16  C   UNL     1       2.783   7.073  19.143  0.00  0.00    +0.000 C 
BRANCH  16  17
ATOM     17  C   UNL     1       2.018   7.717  17.992  0.00  0.00    +0.000 C 
BRANCH  17  18
ATOM     18  C   UNL     1       2.053   9.255  18.005  0.00  0.00    +0.000 C 
BRANCH  18  19
ATOM     19  C   UNL     1       0.643   9.848  18.047  0.00  0.00    +0.000 C 
BRANCH  19  20
ATOM     20  C   UNL     1      -0.007   9.801  19.427  0.00  0.00    +0.000 C 
BRANCH  20  21
ATOM     21  C   UNL     1       0.851  10.275  20.617  0.00  0.00    +0.000 C 
ATOM     22  C   UNL     1       0.384  11.592  21.273  0.00  0.00    +0.000 C 
ATOM     23  C   UNL     1      -0.849  11.468  22.165  0.00  0.00    +0.000 C 
ATOM     24  C   UNL     1      -0.802  10.265  23.109  0.00  0.00    +0.000 C 
ATOM     25  C   UNL     1      -0.421   8.980  22.387  0.00  0.00    +0.000 C 
ATOM     26  C   UNL     1       0.914   9.157  21.669  0.00  0.00    +0.000 C 
ENDBRANCH  20  21
ENDBRANCH  19  20
ENDBRANCH  18  19
ENDBRANCH  17  18
ENDBRANCH  16  17
ENDBRANCH   1  16
TORSDOF 8
ENDMDL
MODEL 3
REMARK VINA RESULT:      -7.7      1.808      2.478
REMARK  Name = 
REMARK  9 active torsions:
REMARK  status: ('A' for Active; 'I' for Inactive)
REMARK    1  A    between atoms: C_1  and  N_2
REMARK    2  A    between atoms: C_6  and  N_7
REMARK    3  A    between atoms: N_7  and  C_8
REMARK    4  A    between atoms: N_7  and  C_19
REMARK    5  A    between atoms: C_8  and  C_9
REMARK    6  A    between atoms: C_9  and  C_10
REMARK    7  A    between atoms: C_10  and  C_11
REMARK    8  A    between atoms: C_11  and  C_12
REMARK    9  A    between atoms: C_12  and  C_13
REMARK                            x       y       z     vdW  Elec       q    Type
REMARK                         _______ _______ _______ _____ _____    ______ ____
ROOT
ATOM      1  N   UNL     1       3.426   5.573  18.185  0.00  0.00    +0.000 N 
ENDROOT
BRANCH   1   7
ATOM      2  C   UNL     1       6.658   4.354  14.778  0.00  0.00    +0.000 C 
ATOM      3  N   UNL     1       6.413   4.859  16.137  0.00  0.00    +0.000 N 
ATOM      4  C   UNL     1       7.417   4.882  17.034  0.00  0.00    +0.000 A 
ATOM      5  C   UNL     1       7.150   5.142  18.362  0.00  0.00    +0.000 A 
ATOM      6  C   UNL     1       5.828   5.340  18.755  0.00  0.00    +0.000 A 
ATOM      7  C   UNL     1       4.783   5.414  17.829  0.00  0.00    +0.000 A 
ATOM      8  C   UNL     1       5.148   5.185  16.493  0.00  0.00    +0.000 A 
ENDBRANCH   1   7
BRANCH   1   9
ATOM      9  C   UNL     1       2.701   4.679  19.071  0.00  0.00    +0.000 A 
ATOM     10  C   UNL     1       2.479   5.026  20.427  0.00  0.00    +0.000 A 
ATOM     11  C   UNL     1       1.745   4.210  21.300  0.00  0.00    +0.000 A 
ATOM     12  C   UNL     1       1.183   3.028  20.846  0.00  0.00    +0.000 A 
ATOM     13  C   UNL     1       1.391   2.640  19.527  0.00  0.00    +0.000 A 
ATOM     14  C   UNL     1       2.157   3.435  18.657  0.00  0.00    +0.000 A 
ATOM     15 CL   UNL     1       2.443   2.736  17.092  0.00  0.00    +0.000 Cl
ENDBRANCH   1   9
BRANCH   1  16
ATOM     16  C   UNL     1       2.550   6.658  17.625  0.00  0.00    +0.000 C 
BRANCH  16  17
ATOM     17  C   UNL     1       2.790   8.106  18.036  0.00  0.00    +0.000 C 
BRANCH  17  18
ATOM     18  C   UNL     1       1.543   8.999  17.928  0.00  0.00    +0.000 C 
BRANCH  18  19
ATOM     19  C   UNL     1       1.045   9.439  19.308  0.00  0.00    +0.000 C 
BRANCH  19  20
ATOM     20  C   UNL     1      -0.365  10.020  19.300  0.00  0.00    +0.000 C 
BRANCH  20  21
ATOM     21  C   UNL     1      -0.821  10.723  18.006  0.00  0.00    +0.000 C 
ATOM     22  C   UNL     1      -1.796   9.906  17.130  0.00  0.00    +0.000 C 
ATOM     23  C   UNL     1      -3.232   9.844  17.646  0.00  0.00    +0.000 C 
ATOM     24  C   UNL     1      -3.772  11.196  18.112  0.00  0.00    +0.000 C 
ATOM     25  C   UNL     1      -2.804  11.915  19.043  0.00  0.00    +0.000 C 
ATOM     26  C   UNL     1      -1.448  12.079  18.364  0.00  0.00    +0.000 C 
ENDBRANCH  20  21
ENDBRANCH  19  20
ENDBRANCH  18  19
ENDBRANCH  17  18
ENDBRANCH  16  17
ENDBRANCH   1  16
TORSDOF 8
ENDMDL
MODEL 4
REMARK VINA RESULT:      -7.7      1.432      4.374
REMARK  Name = 
REMARK  9 active torsions:
REMARK  status: ('A' for Active; 'I' for Inactive)
REMARK    1  A    between atoms: C_1  and  N_2
REMARK    2  A    between atoms: C_6  and  N_7
REMARK    3  A    between atoms: N_7  and  C_8
REMARK    4  A    between atoms: N_7  and  C_19
REMARK    5  A    between atoms: C_8  and  C_9
REMARK    6  A    between atoms: C_9  and  C_10
REMARK    7  A    between atoms: C_10  and  C_11
REMARK    8  A    between atoms: C_11  and  C_12
REMARK    9  A    between atoms: C_12  and  C_13
REMARK                            x       y       z     vdW  Elec       q    Type
REMARK                         _______ _______ _______ _____ _____    ______ ____
ROOT
ATOM      1  N   UNL     1       3.640   5.647  17.749  0.00  0.00    +0.000 N 
ENDROOT
BRANCH   1   7
ATOM      2  C   UNL     1       2.352   3.266  21.776  0.00  0.00    +0.000 C 
ATOM      3  N   UNL     1       1.993   3.698  20.417  0.00  0.00    +0.000 N 
ATOM      4  C   UNL     1       0.954   3.121  19.783  0.00  0.00    +0.000 A 
ATOM      5  C   UNL     1       0.748   3.357  18.441  0.00  0.00    +0.000 A 
ATOM      6  C   UNL     1       1.650   4.166  17.755  0.00  0.00    +0.000 A 
ATOM      7  C   UNL     1       2.679   4.850  18.409  0.00  0.00    +0.000 A 
ATOM      8  C   UNL     1       2.791   4.590  19.785  0.00  0.00    +0.000 A 
ENDBRANCH   1   7
BRANCH   1   9
ATOM      9  C   UNL     1       4.854   5.133  17.141  0.00  0.00    +0.000 A 
ATOM     10  C   UNL     1       4.849   4.649  15.809  0.00  0.00    +0.000 A 
ATOM     11  C   UNL     1       6.010   4.186  15.174  0.00  0.00    +0.000 A 
ATOM     12  C   UNL     1       7.227   4.213  15.835  0.00  0.00    +0.000 A 
ATOM     13  C   UNL     1       7.275   4.663  17.151  0.00  0.00    +0.000 A 
ATOM     14  C   UNL     1       6.107   5.092  17.806  0.00  0.00    +0.000 A 
ATOM     15 CL   UNL     1       6.316   5.481  19.486  0.00  0.00    +0.000 Cl
ENDBRANCH   1   9
BRANCH   1  16
ATOM     16  C   UNL     1       3.546   7.144  17.662  0.00  0.00    +0.000 C 
BRANCH  16  17
ATOM     17  C   UNL     1       2.521   7.885  18.514  0.00  0.00    +0.000 C 
BRANCH  17  18
ATOM     18  C   UNL     1       1.615   8.835  17.712  0.00  0.00    +0.000 C 
BRANCH  18  19
ATOM     19  C   UNL     1       1.161  10.027  18.559  0.00  0.00    +0.000 C 
BRANCH  19  20
ATOM     20  C   UNL     1       0.544   9.635  19.898  0.00  0.00    +0.000 C 
BRANCH  20  21
ATOM     21  C   UNL     1       1.030  10.405  21.141  0.00  0.00    +0.000 C 
ATOM     22  C   UNL     1       0.273  11.720  21.429  0.00  0.00    +0.000 C 
ATOM     23  C   UNL     1      -1.117  11.545  22.037  0.00  0.00    +0.000 C 
ATOM     24  C   UNL     1      -1.165  10.518  23.169  0.00  0.00    +0.000 C 
ATOM     25  C   UNL     1      -0.479   9.212  22.792  0.00  0.00    +0.000 C 
ATOM     26  C   UNL     1       0.961   9.479  22.365  0.00  0.00    +0.000 C 
ENDBRANCH  20  21
ENDBRANCH  19  20
ENDBRANCH  18  19
ENDBRANCH  17  18
ENDBRANCH  16  17
ENDBRANCH   1  16
TORSDOF 8
ENDMDL
MODEL 5
REMARK VINA RESULT:      -7.7      0.966      1.837
REMARK  Name = 
REMARK  9 active torsions:
REMARK  status: ('A' for Active; 'I' for Inactive)
REMARK    1  A    between atoms: C_1  and  N_2
REMARK    2  A    between atoms: C_6  and  N_7
REMARK    3  A    between atoms: N_7  and  C_8
REMARK    4  A    between atoms: N_7  and  C_19
REMARK    5  A    between atoms: C_8  and  C_9
REMARK    6  A    between atoms: C_9  and  C_10
REMARK    7  A    between atoms: C_10  and  C_11
REMARK    8  A    between atoms: C_11  and  C_12
REMARK    9  A    between atoms: C_12  and  C_13
REMARK                            x       y       z     vdW  Elec       q    Type
REMARK                         _______ _______ _______ _____ _____    ______ ____
ROOT
ATOM      1  N   UNL     1       3.228   5.856  18.980  0.00  0.00    +0.000 N 
ENDROOT
BRANCH   1   7
ATOM      2  C   UNL     1       8.076   5.784  19.185  0.00  0.00    +0.000 C 
ATOM      3  N   UNL     1       6.864   5.705  18.356  0.00  0.00    +0.000 N 
ATOM      4  C   UNL     1       6.955   5.851  17.020  0.00  0.00    +0.000 A 
ATOM      5  C   UNL     1       5.812   5.999  16.263  0.00  0.00    +0.000 A 
ATOM      6  C   UNL     1       4.579   6.034  16.908  0.00  0.00    +0.000 A 
ATOM      7  C   UNL     1       4.452   5.791  18.279  0.00  0.00    +0.000 A 
ATOM      8  C   UNL     1       5.661   5.602  18.969  0.00  0.00    +0.000 A 
ENDBRANCH   1   7
BRANCH   1   9
ATOM      9  C   UNL     1       2.585   4.718  19.613  0.00  0.00    +0.000 A 
ATOM     10  C   UNL     1       2.468   4.643  21.023  0.00  0.00    +0.000 A 
ATOM     11  C   UNL     1       1.814   3.583  21.667  0.00  0.00    +0.000 A 
ATOM     12  C   UNL     1       1.229   2.569  20.926  0.00  0.00    +0.000 A 
ATOM     13  C   UNL     1       1.335   2.593  19.539  0.00  0.00    +0.000 A 
ATOM     14  C   UNL     1       2.022   3.634  18.890  0.00  0.00    +0.000 A 
ATOM     15 CL   UNL     1       2.189   3.436  17.172  0.00  0.00    +0.000 Cl
ENDBRANCH   1   9
BRANCH   1  16
ATOM     16  C   UNL     1       2.410   7.111  19.092  0.00  0.00    +0.000 C 
BRANCH  16  17
ATOM     17  C   UNL     1       2.604   8.230  18.074  0.00  0.00    +0.000 C 
BRANCH  17  18
ATOM     18  C   UNL     1       1.353   9.098  17.856  0.00  0.00    +0.000 C 
BRANCH  18  19
ATOM     19  C   UNL     1       1.545  10.511  18.414  0.00  0.00    +0.000 C 
BRANCH  19  20
ATOM     20  C   UNL     1       1.090  10.671  19.861  0.00  0.00    +0.000 C 
BRANCH  20  21
ATOM     21  C   UNL     1      -0.267  10.044  20.237  0.00  0.00    +0.000 C 
ATOM     22  C   UNL     1      -0.196   8.930  21.304  0.00  0.00    +0.000 C 
ATOM     23  C   UNL     1       0.016   9.419  22.735  0.00  0.00    +0.000 C 
ATOM     24  C   UNL     1      -0.868  10.610  23.112  0.00  0.00    +0.000 C 
ATOM     25  C   UNL     1      -0.827  11.713  22.062  0.00  0.00    +0.000 C 
ATOM     26  C   UNL     1      -1.224  11.154  20.698  0.00  0.00    +0.000 C 
ENDBRANCH  20  21
ENDBRANCH  19  20
ENDBRANCH  18  19
ENDBRANCH  17  18
ENDBRANCH  16  17
ENDBRANCH   1  16
TORSDOF 8
ENDMDL
MODEL 6
REMARK VINA RESULT:      -7.7      0.674      1.266
REMARK  Name = 
REMARK  9 active torsions:
REMARK  status: ('A' for Active; 'I' for Inactive)
REMARK    1  A    between atoms: C_1  and  N_2
REMARK    2  A    between atoms: C_6  and  N_7
REMARK    3  A    between atoms: N_7  and  C_8
REMARK    4  A    between atoms: N_7  and  C_19
REMARK    5  A    between atoms: C_8  and  C_9
REMARK    6  A    between atoms: C_9  and  C_10
REMARK    7  A    between atoms: C_10  and  C_11
REMARK    8  A    between atoms: C_11  and  C_12
REMARK    9  A    between atoms: C_12  and  C_13
REMARK                            x       y       z     vdW  Elec       q    Type
REMARK                         _______ _______ _______ _____ _____    ______ ____
ROOT
ATOM      1  N   UNL     1       3.429   5.220  18.451  0.00  0.00    +0.000 N 
ENDROOT
BRANCH   1   7
ATOM      2  C   UNL     1       6.341   3.956  14.781  0.00  0.00    +0.000 C 
ATOM      3  N   UNL     1       6.217   4.511  16.137  0.00  0.00    +0.000 N 
ATOM      4  C   UNL     1       7.305   4.601  16.926  0.00  0.00    +0.000 A 
ATOM      5  C   UNL     1       7.164   4.909  18.263  0.00  0.00    +0.000 A 
ATOM      6  C   UNL     1       5.883   5.084  18.780  0.00  0.00    +0.000 A 
ATOM      7  C   UNL     1       4.748   5.088  17.965  0.00  0.00    +0.000 A 
ATOM      8  C   UNL     1       4.984   4.813  16.608  0.00  0.00    +0.000 A 
ENDBRANCH   1   7
BRANCH   1   9
ATOM      9  C   UNL     1       2.791   4.283  19.359  0.00  0.00    +0.000 A 
ATOM     10  C   UNL     1       2.667   4.582  20.738  0.00  0.00    +0.000 A 
ATOM     11  C   UNL     1       2.018   3.722  21.637  0.00  0.00    +0.000 A 
ATOM     12  C   UNL     1       1.447   2.543  21.188  0.00  0.00    +0.000 A 
ATOM     13  C   UNL     1       1.561   2.201  19.844  0.00  0.00    +0.000 A 
ATOM     14  C   UNL     1       2.243   3.041  18.946  0.00  0.00    +0.000 A 
ATOM     15 CL   UNL     1       2.423   2.398  17.341  0.00  0.00    +0.000 Cl
ENDBRANCH   1   9
BRANCH   1  16
ATOM     16  C   UNL     1       2.501   6.323  18.023  0.00  0.00    +0.000 C 
BRANCH  16  17
ATOM     17  C   UNL     1       2.454   7.620  18.824  0.00  0.00    +0.000 C 
BRANCH  17  18
ATOM     18  C   UNL     1       2.427   8.888  17.955  0.00  0.00    +0.000 C 
BRANCH  18  19
ATOM     19  C   UNL     1       1.041   9.539  17.954  0.00  0.00    +0.000 C 
BRANCH  19  20
ATOM     20  C   UNL     1       0.727  10.323  19.225  0.00  0.00    +0.000 C 
BRANCH  20  21
ATOM     21  C   UNL     1      -0.601   9.994  19.935  0.00  0.00    +0.000 C 
ATOM     22  C   UNL     1      -0.517   8.862  20.982  0.00  0.00    +0.000 C 
ATOM     23  C   UNL     1       0.136   9.253  22.305  0.00  0.00    +0.000 C 
ATOM     24  C   UNL     1      -0.350  10.596  22.854  0.00  0.00    +0.000 C 
ATOM     25  C   UNL     1      -0.328  11.693  21.797  0.00  0.00    +0.000 C 
ATOM     26  C   UNL     1      -1.154  11.272  20.585  0.00  0.00    +0.000 C 
ENDBRANCH  20  21
ENDBRANCH  19  20
ENDBRANCH  18  19
ENDBRANCH  17  18
ENDBRANCH  16  17
ENDBRANCH   1  16
TORSDOF 8
ENDMDL
MODEL 7
REMARK VINA RESULT:      -7.7      2.188      2.953
REMARK  Name = 
REMARK  9 active torsions:
REMARK  status: ('A' for Active; 'I' for Inactive)
REMARK    1  A    between atoms: C_1  and  N_2
REMARK    2  A    between atoms: C_6  and  N_7
REMARK    3  A    between atoms: N_7  and  C_8
REMARK    4  A    between atoms: N_7  and  C_19
REMARK    5  A    between atoms: C_8  and  C_9
REMARK    6  A    between atoms: C_9  and  C_10
REMARK    7  A    between atoms: C_10  and  C_11
REMARK    8  A    between atoms: C_11  and  C_12
REMARK    9  A    between atoms: C_12  and  C_13
REMARK                            x       y       z     vdW  Elec       q    Type
REMARK                         _______ _______ _______ _____ _____    ______ ____
ROOT
ATOM      1  N   UNL     1       3.168   5.733  18.054  0.00  0.00    +0.000 N 
ENDROOT
BRANCH   1   7
ATOM      2  C   UNL     1       6.978   4.807  15.195  0.00  0.00    +0.000 C 
ATOM      3  N   UNL     1       6.485   5.232  16.514  0.00  0.00    +0.000 N 
ATOM      4  C   UNL     1       7.322   5.242  17.569  0.00  0.00    +0.000 A 
ATOM      5  C   UNL     1       6.824   5.423  18.843  0.00  0.00    +0.000 A 
ATOM      6  C   UNL     1       5.448   5.554  19.013  0.00  0.00    +0.000 A 
ATOM      7  C   UNL     1       4.571   5.640  17.928  0.00  0.00    +0.000 A 
ATOM      8  C   UNL     1       5.165   5.494  16.664  0.00  0.00    +0.000 A 
ENDBRANCH   1   7
BRANCH   1   9
ATOM      9  C   UNL     1       2.324   4.690  18.609  0.00  0.00    +0.000 A 
ATOM     10  C   UNL     1       2.089   3.490  17.893  0.00  0.00    +0.000 A 
ATOM     11  C   UNL     1       1.316   2.442  18.416  0.00  0.00    +0.000 A 
ATOM     12  C   UNL     1       0.770   2.542  19.685  0.00  0.00    +0.000 A 
ATOM     13  C   UNL     1       0.961   3.710  20.417  0.00  0.00    +0.000 A 
ATOM     14  C   UNL     1       1.702   4.779  19.883  0.00  0.00    +0.000 A 
ATOM     15 CL   UNL     1       1.720   6.214  20.861  0.00  0.00    +0.000 Cl
ENDBRANCH   1   9
BRANCH   1  16
ATOM     16  C   UNL     1       2.373   6.908  17.557  0.00  0.00    +0.000 C 
BRANCH  16  17
ATOM     17  C   UNL     1       2.706   8.308  18.059  0.00  0.00    +0.000 C 
BRANCH  17  18
ATOM     18  C   UNL     1       1.523   9.288  18.003  0.00  0.00    +0.000 C 
BRANCH  18  19
ATOM     19  C   UNL     1       0.733   9.291  19.315  0.00  0.00    +0.000 C 
BRANCH  19  20
ATOM     20  C   UNL     1      -0.414  10.297  19.344  0.00  0.00    +0.000 C 
BRANCH  20  21
ATOM     21  C   UNL     1      -0.897  10.840  17.986  0.00  0.00    +0.000 C 
ATOM     22  C   UNL     1      -1.751   9.856  17.157  0.00  0.00    +0.000 C 
ATOM     23  C   UNL     1      -3.189   9.682  17.640  0.00  0.00    +0.000 C 
ATOM     24  C   UNL     1      -3.884  11.002  17.979  0.00  0.00    +0.000 C 
ATOM     25  C   UNL     1      -3.028  11.892  18.870  0.00  0.00    +0.000 C 
ATOM     26  C   UNL     1      -1.674  12.146  18.214  0.00  0.00    +0.000 C 
ENDBRANCH  20  21
ENDBRANCH  19  20
ENDBRANCH  18  19
ENDBRANCH  17  18
ENDBRANCH  16  17
ENDBRANCH   1  16
TORSDOF 8
ENDMDL
MODEL 8
REMARK VINA RESULT:      -7.7      1.223      4.113
REMARK  Name = 
REMARK  9 active torsions:
REMARK  status: ('A' for Active; 'I' for Inactive)
REMARK    1  A    between atoms: C_1  and  N_2
REMARK    2  A    between atoms: C_6  and  N_7
REMARK    3  A    between atoms: N_7  and  C_8
REMARK    4  A    between atoms: N_7  and  C_19
REMARK    5  A    between atoms: C_8  and  C_9
REMARK    6  A    between atoms: C_9  and  C_10
REMARK    7  A    between atoms: C_10  and  C_11
REMARK    8  A    between atoms: C_11  and  C_12
REMARK    9  A    between atoms: C_12  and  C_13
REMARK                            x       y       z     vdW  Elec       q    Type
REMARK                         _______ _______ _______ _____ _____    ______ ____
ROOT
ATOM      1  N   UNL     1       3.665   5.528  18.178  0.00  0.00    +0.000 N 
ENDROOT
BRANCH   1   7
ATOM      2  C   UNL     1       2.173   2.694  21.823  0.00  0.00    +0.000 C 
ATOM      3  N   UNL     1       1.952   3.179  20.452  0.00  0.00    +0.000 N 
ATOM      4  C   UNL     1       1.105   2.520  19.638  0.00  0.00    +0.000 A 
ATOM      5  C   UNL     1       1.058   2.831  18.295  0.00  0.00    +0.000 A 
ATOM      6  C   UNL     1       1.924   3.802  17.800  0.00  0.00    +0.000 A 
ATOM      7  C   UNL     1       2.743   4.563  18.639  0.00  0.00    +0.000 A 
ATOM      8  C   UNL     1       2.696   4.215  19.999  0.00  0.00    +0.000 A 
ENDBRANCH   1   7
BRANCH   1   9
ATOM      9  C   UNL     1       5.101   5.328  18.118  0.00  0.00    +0.000 A 
ATOM     10  C   UNL     1       5.935   5.728  19.192  0.00  0.00    +0.000 A 
ATOM     11  C   UNL     1       7.320   5.510  19.189  0.00  0.00    +0.000 A 
ATOM     12  C   UNL     1       7.924   4.862  18.124  0.00  0.00    +0.000 A 
ATOM     13  C   UNL     1       7.146   4.467  17.040  0.00  0.00    +0.000 A 
ATOM     14  C   UNL     1       5.763   4.717  17.020  0.00  0.00    +0.000 A 
ATOM     15 CL   UNL     1       4.967   4.296  15.534  0.00  0.00    +0.000 Cl
ENDBRANCH   1   9
BRANCH   1  16
ATOM     16  C   UNL     1       3.263   6.914  17.758  0.00  0.00    +0.000 C 
BRANCH  16  17
ATOM     17  C   UNL     1       2.148   7.635  18.509  0.00  0.00    +0.000 C 
BRANCH  17  18
ATOM     18  C   UNL     1       2.080   9.144  18.225  0.00  0.00    +0.000 C 
BRANCH  18  19
ATOM     19  C   UNL     1       0.634   9.622  18.065  0.00  0.00    +0.000 C 
BRANCH  19  20
ATOM     20  C   UNL     1      -0.059   9.944  19.385  0.00  0.00    +0.000 C 
BRANCH  20  21
ATOM     21  C   UNL     1       0.842  10.375  20.558  0.00  0.00    +0.000 C 
ATOM     22  C   UNL     1       0.472  11.730  21.200  0.00  0.00    +0.000 C 
ATOM     23  C   UNL     1      -0.756  11.701  22.107  0.00  0.00    +0.000 C 
ATOM     24  C   UNL     1      -0.779  10.511  23.068  0.00  0.00    +0.000 C 
ATOM     25  C   UNL     1      -0.494   9.193  22.360  0.00  0.00    +0.000 C 
ATOM     26  C   UNL     1       0.841   9.270  21.626  0.00  0.00    +0.000 C 
ENDBRANCH  20  21
ENDBRANCH  19  20
ENDBRANCH  18  19
ENDBRANCH  17  18
ENDBRANCH  16  17
ENDBRANCH   1  16
TORSDOF 8
ENDMDL
MODEL 9
REMARK VINA RESULT:      -7.6      4.063      7.541
REMARK  Name = 
REMARK  9 active torsions:
REMARK  status: ('A' for Active; 'I' for Inactive)
REMARK    1  A    between atoms: C_1  and  N_2
REMARK    2  A    between atoms: C_6  and  N_7
REMARK    3  A    between atoms: N_7  and  C_8
REMARK    4  A    between atoms: N_7  and  C_19
REMARK    5  A    between atoms: C_8  and  C_9
REMARK    6  A    between atoms: C_9  and  C_10
REMARK    7  A    between atoms: C_10  and  C_11
REMARK    8  A    between atoms: C_11  and  C_12
REMARK    9  A    between atoms: C_12  and  C_13
REMARK                            x       y       z     vdW  Elec       q    Type
REMARK                         _______ _______ _______ _____ _____    ______ ____
ROOT
ATOM      1  N   UNL     1       6.000   5.685  17.483  0.00  0.00    +0.000 N 
ENDROOT
BRANCH   1   7
ATOM      2  C   UNL     1       2.498   4.852  20.737  0.00  0.00    +0.000 C 
ATOM      3  N   UNL     1       3.078   5.762  19.738  0.00  0.00    +0.000 N 
ATOM      4  C   UNL     1       2.347   6.789  19.264  0.00  0.00    +0.000 A 
ATOM      5  C   UNL     1       2.794   7.509  18.176  0.00  0.00    +0.000 A 
ATOM      6  C   UNL     1       3.985   7.129  17.563  0.00  0.00    +0.000 A 
ATOM      7  C   UNL     1       4.806   6.129  18.093  0.00  0.00    +0.000 A 
ATOM      8  C   UNL     1       4.300   5.478  19.229  0.00  0.00    +0.000 A 
ENDBRANCH   1   7
BRANCH   1   9
ATOM      9  C   UNL     1       6.076   5.109  16.153  0.00  0.00    +0.000 A 
ATOM     10  C   UNL     1       7.087   5.512  15.245  0.00  0.00    +0.000 A 
ATOM     11  C   UNL     1       7.220   4.946  13.969  0.00  0.00    +0.000 A 
ATOM     12  C   UNL     1       6.363   3.937  13.559  0.00  0.00    +0.000 A 
ATOM     13  C   UNL     1       5.345   3.523  14.411  0.00  0.00    +0.000 A 
ATOM     14  C   UNL     1       5.183   4.113  15.677  0.00  0.00    +0.000 A 
ATOM     15 CL   UNL     1       3.778   3.587  16.553  0.00  0.00    +0.000 Cl
ENDBRANCH   1   9
BRANCH   1  16
ATOM     16  C   UNL     1       7.332   5.695  18.180  0.00  0.00    +0.000 C 
BRANCH  16  17
ATOM     17  C   UNL     1       7.941   7.022  18.620  0.00  0.00    +0.000 C 
BRANCH  17  18
ATOM     18  C   UNL     1       8.045   8.064  17.493  0.00  0.00    +0.000 C 
BRANCH  18  19
ATOM     19  C   UNL     1       8.026   9.492  18.045  0.00  0.00    +0.000 C 
BRANCH  19  20
ATOM     20  C   UNL     1       9.202   9.816  18.961  0.00  0.00    +0.000 C 
BRANCH  20  21
ATOM     21  C   UNL     1       9.342  11.280  19.422  0.00  0.00    +0.000 C 
ATOM     22  C   UNL     1      10.540  11.557  20.357  0.00  0.00    +0.000 C 
ATOM     23  C   UNL     1      11.901  11.607  19.666  0.00  0.00    +0.000 C 
ATOM     24  C   UNL     1      11.900  12.420  18.371  0.00  0.00    +0.000 C 
ATOM     25  C   UNL     1      10.746  12.040  17.452  0.00  0.00    +0.000 C 
ATOM     26  C   UNL     1       9.417  12.192  18.187  0.00  0.00    +0.000 C 
ENDBRANCH  20  21
ENDBRANCH  19  20
ENDBRANCH  18  19
ENDBRANCH  17  18
ENDBRANCH  16  17
ENDBRANCH   1  16
TORSDOF 8
ENDMDL
