MODEL 1
REMARK VINA RESULT:      -7.2      0.000      0.000
REMARK  Name = 
REMARK  7 active torsions:
REMARK  status: ('A' for Active; 'I' for Inactive)
REMARK    1  A    between atoms: C_5  and  S_6
REMARK    2  A    between atoms: S_6  and  C_7
REMARK    3  A    between atoms: C_13  and  N_14
REMARK    4  A    between atoms: N_14  and  C_15
REMARK    5  A    between atoms: C_15  and  C_16
REMARK    6  A    between atoms: C_16  and  C_17
REMARK    7  A    between atoms: C_17  and  N_18
REMARK                            x       y       z     vdW  Elec       q    Type
REMARK                         _______ _______ _______ _____ _____    ______ ____
ROOT
ATOM      1  C   UNL     1       3.622   3.775  17.922  0.00  0.00    +0.000 A 
ATOM      2  C   UNL     1       3.732   2.537  18.582  0.00  0.00    +0.000 A 
ATOM      3  C   UNL     1       2.952   2.257  19.704  0.00  0.00    +0.000 A 
ATOM      4  C   UNL     1       2.074   3.217  20.180  0.00  0.00    +0.000 A 
ATOM      5 CL   UNL     1       1.104   2.886  21.562  0.00  0.00    +0.000 Cl
ATOM      6  C   UNL     1       1.977   4.459  19.552  0.00  0.00    +0.000 A 
ATOM      7  C   UNL     1       2.762   4.778  18.430  0.00  0.00    +0.000 A 
ENDROOT
BRANCH   7   8
ATOM      8  N   UNL     1       2.696   6.051  17.821  0.00  0.00    +0.000 N 
ATOM      9  H   UNL     1       2.153   6.005  16.961  0.00  0.00    +0.000 HD
BRANCH   8  10
ATOM     10  C   UNL     1       2.371   7.195  18.672  0.00  0.00    +0.000 C 
BRANCH  10  11
ATOM     11  C   UNL     1       2.395   8.497  17.870  0.00  0.00    +0.000 C 
BRANCH  11  12
ATOM     12  C   UNL     1       1.121   9.326  18.117  0.00  0.00    +0.000 C 
BRANCH  12  13
ATOM     13  N   UNL     1       1.169  10.145  19.345  0.00  0.00    +0.000 NA
ATOM     14  C   UNL     1       0.965  11.573  19.047  0.00  0.00    +0.000 C 
ATOM     15  C   UNL     1       1.052  12.436  20.304  0.00  0.00    +0.000 C 
ATOM     16  C   UNL     1       0.065  11.968  21.360  0.00  0.00    +0.000 C 
ATOM     17  C   UNL     1       0.252  10.480  21.630  0.00  0.00    +0.000 C 
ATOM     18  C   UNL     1       0.189   9.666  20.333  0.00  0.00    +0.000 C 
ENDBRANCH  12  13
ENDBRANCH  11  12
ENDBRANCH  10  11
ENDBRANCH   8  10
ENDBRANCH   7   8
BRANCH   1  19
ATOM     19  S   UNL     1       4.736   4.080  16.554  0.00  0.00    +0.000 S 
BRANCH  19  24
ATOM     20 CL   UNL     1       8.721   8.466  18.718  0.00  0.00    +0.000 Cl
ATOM     21  C   UNL     1       7.687   7.232  18.116  0.00  0.00    +0.000 A 
ATOM     22  C   UNL     1       6.785   7.522  17.096  0.00  0.00    +0.000 A 
ATOM     23  C   UNL     1       5.924   6.523  16.632  0.00  0.00    +0.000 A 
ATOM     24  C   UNL     1       5.957   5.230  17.170  0.00  0.00    +0.000 A 
ATOM     25  C   UNL     1       6.878   4.951  18.188  0.00  0.00    +0.000 A 
ATOM     26  C   UNL     1       7.742   5.950  18.657  0.00  0.00    +0.000 A 
ENDBRANCH  19  24
ENDBRANCH   1  19
TORSDOF 7
ENDMDL
MODEL 2
REMARK VINA RESULT:      -7.1      1.114      1.427
REMARK  Name = 
REMARK  7 active torsions:
REMARK  status: ('A' for Active; 'I' for Inactive)
REMARK    1  A    between atoms: C_5  and  S_6
REMARK    2  A    between atoms: S_6  and  C_7
REMARK    3  A    between atoms: C_13  and  N_14
REMARK    4  A    between atoms: N_14  and  C_15
REMARK    5  A    between atoms: C_15  and  C_16
REMARK    6  A    between atoms: C_16  and  C_17
REMARK    7  A    between atoms: C_17  and  N_18
REMARK                            x       y       z     vdW  Elec       q    Type
REMARK                         _______ _______ _______ _____ _____    ______ ____
ROOT
ATOM      1  C   UNL     1       3.668   3.818  17.938  0.00  0.00    +0.000 A 
ATOM      2  C   UNL     1       3.800   2.591  18.612  0.00  0.00    +0.000 A 
ATOM      3  C   UNL     1       3.024   2.309  19.736  0.00  0.00    +0.000 A 
ATOM      4  C   UNL     1       2.128   3.258  20.201  0.00  0.00    +0.000 A 
ATOM      5 CL   UNL     1       1.162   2.926  21.585  0.00  0.00    +0.000 Cl
ATOM      6  C   UNL     1       2.008   4.490  19.558  0.00  0.00    +0.000 A 
ATOM      7  C   UNL     1       2.789   4.811  18.432  0.00  0.00    +0.000 A 
ENDROOT
BRANCH   7   8
ATOM      8  N   UNL     1       2.699   6.075  17.808  0.00  0.00    +0.000 N 
ATOM      9  H   UNL     1       2.093   6.026  16.993  0.00  0.00    +0.000 HD
BRANCH   8  10
ATOM     10  C   UNL     1       2.460   7.239  18.662  0.00  0.00    +0.000 C 
BRANCH  10  11
ATOM     11  C   UNL     1       1.770   8.357  17.880  0.00  0.00    +0.000 C 
BRANCH  11  12
ATOM     12  C   UNL     1       1.677   9.646  18.718  0.00  0.00    +0.000 C 
BRANCH  12  13
ATOM     13  N   UNL     1       0.305  10.177  18.849  0.00  0.00    +0.000 NA
ATOM     14  C   UNL     1       0.305  11.647  18.947  0.00  0.00    +0.000 C 
ATOM     15  C   UNL     1      -1.105  12.206  19.123  0.00  0.00    +0.000 C 
ATOM     16  C   UNL     1      -2.021  11.749  18.000  0.00  0.00    +0.000 C 
ATOM     17  C   UNL     1      -1.980  10.230  17.875  0.00  0.00    +0.000 C 
ATOM     18  C   UNL     1      -0.542   9.721  17.735  0.00  0.00    +0.000 C 
ENDBRANCH  12  13
ENDBRANCH  11  12
ENDBRANCH  10  11
ENDBRANCH   8  10
ENDBRANCH   7   8
BRANCH   1  19
ATOM     19  S   UNL     1       4.779   4.128  16.567  0.00  0.00    +0.000 S 
BRANCH  19  24
ATOM     20 CL   UNL     1       8.746   8.530  18.732  0.00  0.00    +0.000 Cl
ATOM     21  C   UNL     1       7.717   7.292  18.129  0.00  0.00    +0.000 A 
ATOM     22  C   UNL     1       6.797   7.585  17.126  0.00  0.00    +0.000 A 
ATOM     23  C   UNL     1       5.941   6.583  16.660  0.00  0.00    +0.000 A 
ATOM     24  C   UNL     1       5.996   5.283  17.182  0.00  0.00    +0.000 A 
ATOM     25  C   UNL     1       6.934   5.002  18.183  0.00  0.00    +0.000 A 
ATOM     26  C   UNL     1       7.793   6.004  18.653  0.00  0.00    +0.000 A 
ENDBRANCH  19  24
ENDBRANCH   1  19
TORSDOF 7
ENDMDL
MODEL 3
REMARK VINA RESULT:      -7.1      0.522      1.130
REMARK  Name = 
REMARK  7 active torsions:
REMARK  status: ('A' for Active; 'I' for Inactive)
REMARK    1  A    between atoms: C_5  and  S_6
REMARK    2  A    between atoms: S_6  and  C_7
REMARK    3  A    between atoms: C_13  and  N_14
REMARK    4  A    between atoms: N_14  and  C_15
REMARK    5  A    between atoms: C_15  and  C_16
REMARK    6  A    between atoms: C_16  and  C_17
REMARK    7  A    between atoms: C_17  and  N_18
REMARK                            x       y       z     vdW  Elec       q    Type
REMARK                         _______ _______ _______ _____ _____    ______ ____
ROOT
ATOM      1  C   UNL     1       3.475   3.754  17.940  0.00  0.00    +0.000 A 
ATOM      2  C   UNL     1       3.698   2.512  18.563  0.00  0.00    +0.000 A 
ATOM      3  C   UNL     1       2.991   2.156  19.712  0.00  0.00    +0.000 A 
ATOM      4  C   UNL     1       2.076   3.045  20.252  0.00  0.00    +0.000 A 
ATOM      5 CL   UNL     1       1.196   2.620  21.668  0.00  0.00    +0.000 Cl
ATOM      6  C   UNL     1       1.868   4.291  19.660  0.00  0.00    +0.000 A 
ATOM      7  C   UNL     1       2.577   4.686  18.511  0.00  0.00    +0.000 A 
ENDROOT
BRANCH   7   8
ATOM      8  N   UNL     1       2.398   5.964  17.937  0.00  0.00    +0.000 N 
ATOM      9  H   UNL     1       1.501   6.016  17.459  0.00  0.00    +0.000 HD
BRANCH   8  10
ATOM     10  C   UNL     1       2.702   7.130  18.768  0.00  0.00    +0.000 C 
BRANCH  10  11
ATOM     11  C   UNL     1       2.668   8.414  17.939  0.00  0.00    +0.000 C 
BRANCH  11  12
ATOM     12  C   UNL     1       1.222   8.897  17.720  0.00  0.00    +0.000 C 
BRANCH  12  13
ATOM     13  N   UNL     1       0.889  10.139  18.447  0.00  0.00    +0.000 NA
ATOM     14  C   UNL     1       0.523   9.860  19.847  0.00  0.00    +0.000 C 
ATOM     15  C   UNL     1       0.138  11.132  20.599  0.00  0.00    +0.000 C 
ATOM     16  C   UNL     1       1.250  12.164  20.537  0.00  0.00    +0.000 C 
ATOM     17  C   UNL     1       1.654  12.414  19.088  0.00  0.00    +0.000 C 
ATOM     18  C   UNL     1       1.998  11.104  18.373  0.00  0.00    +0.000 C 
ENDBRANCH  12  13
ENDBRANCH  11  12
ENDBRANCH  10  11
ENDBRANCH   8  10
ENDBRANCH   7   8
BRANCH   1  19
ATOM     19  S   UNL     1       4.502   4.162  16.530  0.00  0.00    +0.000 S 
BRANCH  19  24
ATOM     20 CL   UNL     1       8.754   8.263  18.744  0.00  0.00    +0.000 Cl
ATOM     21  C   UNL     1       7.644   7.103  18.129  0.00  0.00    +0.000 A 
ATOM     22  C   UNL     1       6.776   7.455  17.099  0.00  0.00    +0.000 A 
ATOM     23  C   UNL     1       5.855   6.517  16.624  0.00  0.00    +0.000 A 
ATOM     24  C   UNL     1       5.792   5.225  17.162  0.00  0.00    +0.000 A 
ATOM     25  C   UNL     1       6.679   4.884  18.190  0.00  0.00    +0.000 A 
ATOM     26  C   UNL     1       7.604   5.821  18.670  0.00  0.00    +0.000 A 
ENDBRANCH  19  24
ENDBRANCH   1  19
TORSDOF 7
ENDMDL
MODEL 4
REMARK VINA RESULT:      -7.1      2.356      2.802
REMARK  Name = 
REMARK  7 active torsions:
REMARK  status: ('A' for Active; 'I' for Inactive)
REMARK    1  A    between atoms: C_5  and  S_6
REMARK    2  A    between atoms: S_6  and  C_7
REMARK    3  A    between atoms: C_13  and  N_14
REMARK    4  A    between atoms: N_14  and  C_15
REMARK    5  A    between atoms: C_15  and  C_16
REMARK    6  A    between atoms: C_16  and  C_17
REMARK    7  A    between atoms: C_17  and  N_18
REMARK                            x       y       z     vdW  Elec       q    Type
REMARK                         _______ _______ _______ _____ _____    ______ ____
ROOT
ATOM      1  C   UNL     1       4.513   4.779  19.228  0.00  0.00    +0.000 A 
ATOM      2  C   UNL     1       4.636   3.432  19.614  0.00  0.00    +0.000 A 
ATOM      3  C   UNL     1       3.591   2.782  20.270  0.00  0.00    +0.000 A 
ATOM      4  C   UNL     1       2.429   3.480  20.559  0.00  0.00    +0.000 A 
ATOM      5 CL   UNL     1       1.130   2.692  21.366  0.00  0.00    +0.000 Cl
ATOM      6  C   UNL     1       2.307   4.824  20.206  0.00  0.00    +0.000 A 
ATOM      7  C   UNL     1       3.349   5.512  19.559  0.00  0.00    +0.000 A 
ENDROOT
BRANCH   7   8
ATOM      8  N   UNL     1       3.242   6.884  19.242  0.00  0.00    +0.000 N 
ATOM      9  H   UNL     1       4.159   7.325  19.262  0.00  0.00    +0.000 HD
BRANCH   8  10
ATOM     10  C   UNL     1       2.427   7.253  18.084  0.00  0.00    +0.000 C 
BRANCH  10  11
ATOM     11  C   UNL     1       2.007   8.721  18.157  0.00  0.00    +0.000 C 
BRANCH  11  12
ATOM     12  C   UNL     1       1.343   9.043  19.509  0.00  0.00    +0.000 C 
BRANCH  12  13
ATOM     13  N   UNL     1       0.673  10.358  19.548  0.00  0.00    +0.000 NA
ATOM     14  C   UNL     1       1.393  11.353  18.734  0.00  0.00    +0.000 C 
ATOM     15  C   UNL     1       0.732  12.728  18.797  0.00  0.00    +0.000 C 
ATOM     16  C   UNL     1      -0.727  12.656  18.380  0.00  0.00    +0.000 C 
ATOM     17  C   UNL     1      -1.454  11.594  19.196  0.00  0.00    +0.000 C 
ATOM     18  C   UNL     1      -0.732  10.245  19.124  0.00  0.00    +0.000 C 
ENDBRANCH  12  13
ENDBRANCH  11  12
ENDBRANCH  10  11
ENDBRANCH   8  10
ENDBRANCH   7   8
BRANCH   1  19
ATOM     19  S   UNL     1       5.945   5.555  18.482  0.00  0.00    +0.000 S 
BRANCH  19  24
ATOM     20 CL   UNL     1       6.371   3.590  12.502  0.00  0.00    +0.000 Cl
ATOM     21  C   UNL     1       6.200   4.158  14.116  0.00  0.00    +0.000 A 
ATOM     22  C   UNL     1       7.250   4.841  14.724  0.00  0.00    +0.000 A 
ATOM     23  C   UNL     1       7.117   5.273  16.046  0.00  0.00    +0.000 A 
ATOM     24  C   UNL     1       5.942   5.037  16.772  0.00  0.00    +0.000 A 
ATOM     25  C   UNL     1       4.892   4.358  16.143  0.00  0.00    +0.000 A 
ATOM     26  C   UNL     1       5.021   3.922  14.817  0.00  0.00    +0.000 A 
ENDBRANCH  19  24
ENDBRANCH   1  19
TORSDOF 7
ENDMDL
MODEL 5
REMARK VINA RESULT:      -7.1      0.976      1.442
REMARK  Name = 
REMARK  7 active torsions:
REMARK  status: ('A' for Active; 'I' for Inactive)
REMARK    1  A    between atoms: C_5  and  S_6
REMARK    2  A    between atoms: S_6  and  C_7
REMARK    3  A    between atoms: C_13  and  N_14
REMARK    4  A    between atoms: N_14  and  C_15
REMARK    5  A    between atoms: C_15  and  C_16
REMARK    6  A    between atoms: C_16  and  C_17
REMARK    7  A    between atoms: C_17  and  N_18
REMARK                            x       y       z     vdW  Elec       q    Type
REMARK                         _______ _______ _______ _____ _____    ______ ____
ROOT
ATOM      1  C   UNL     1       3.776   3.893  18.138  0.00  0.00    +0.000 A 
ATOM      2  C   UNL     1       3.656   2.529  18.461  0.00  0.00    +0.000 A 
ATOM      3  C   UNL     1       2.956   2.125  19.598  0.00  0.00    +0.000 A 
ATOM      4  C   UNL     1       2.391   3.082  20.425  0.00  0.00    +0.000 A 
ATOM      5 CL   UNL     1       1.523   2.600  21.831  0.00  0.00    +0.000 Cl
ATOM      6  C   UNL     1       2.528   4.439  20.132  0.00  0.00    +0.000 A 
ATOM      7  C   UNL     1       3.241   4.878  19.002  0.00  0.00    +0.000 A 
ENDROOT
BRANCH   7   8
ATOM      8  N   UNL     1       3.417   6.253  18.730  0.00  0.00    +0.000 N 
ATOM      9  H   UNL     1       4.347   6.424  18.352  0.00  0.00    +0.000 HD
BRANCH   8  10
ATOM     10  C   UNL     1       2.345   6.947  18.015  0.00  0.00    +0.000 C 
BRANCH  10  11
ATOM     11  C   UNL     1       1.991   8.264  18.706  0.00  0.00    +0.000 C 
BRANCH  11  12
ATOM     12  C   UNL     1       1.851   8.073  20.228  0.00  0.00    +0.000 C 
BRANCH  12  13
ATOM     13  N   UNL     1       0.734   8.832  20.825  0.00  0.00    +0.000 NA
ATOM     14  C   UNL     1       0.938   9.041  22.269  0.00  0.00    +0.000 C 
ATOM     15  C   UNL     1      -0.229   9.790  22.908  0.00  0.00    +0.000 C 
ATOM     16  C   UNL     1      -0.477  11.116  22.209  0.00  0.00    +0.000 C 
ATOM     17  C   UNL     1      -0.642  10.897  20.710  0.00  0.00    +0.000 C 
ATOM     18  C   UNL     1       0.538  10.114  20.128  0.00  0.00    +0.000 C 
ENDBRANCH  12  13
ENDBRANCH  11  12
ENDBRANCH  10  11
ENDBRANCH   8  10
ENDBRANCH   7   8
BRANCH   1  19
ATOM     19  S   UNL     1       4.778   4.318  16.716  0.00  0.00    +0.000 S 
BRANCH  19  24
ATOM     20 CL   UNL     1       8.884   8.621  18.820  0.00  0.00    +0.000 Cl
ATOM     21  C   UNL     1       7.815   7.407  18.237  0.00  0.00    +0.000 A 
ATOM     22  C   UNL     1       6.956   7.690  17.179  0.00  0.00    +0.000 A 
ATOM     23  C   UNL     1       6.068   6.709  16.729  0.00  0.00    +0.000 A 
ATOM     24  C   UNL     1       6.029   5.440  17.322  0.00  0.00    +0.000 A 
ATOM     25  C   UNL     1       6.906   5.167  18.378  0.00  0.00    +0.000 A 
ATOM     26  C   UNL     1       7.798   6.148  18.833  0.00  0.00    +0.000 A 
ENDBRANCH  19  24
ENDBRANCH   1  19
TORSDOF 7
ENDMDL
MODEL 6
REMARK VINA RESULT:      -7.1      2.869      6.760
REMARK  Name = 
REMARK  7 active torsions:
REMARK  status: ('A' for Active; 'I' for Inactive)
REMARK    1  A    between atoms: C_5  and  S_6
REMARK    2  A    between atoms: S_6  and  C_7
REMARK    3  A    between atoms: C_13  and  N_14
REMARK    4  A    between atoms: N_14  and  C_15
REMARK    5  A    between atoms: C_15  and  C_16
REMARK    6  A    between atoms: C_16  and  C_17
REMARK    7  A    between atoms: C_17  and  N_18
REMARK                            x       y       z     vdW  Elec       q    Type
REMARK                         _______ _______ _______ _____ _____    ______ ____
ROOT
ATOM      1  C   UNL     1       3.229   5.697  18.212  0.00  0.00    +0.000 A 
ATOM      2  C   UNL     1       2.217   4.897  17.651  0.00  0.00    +0.000 A 
ATOM      3  C   UNL     1       2.256   3.508  17.776  0.00  0.00    +0.000 A 
ATOM      4  C   UNL     1       3.315   2.914  18.444  0.00  0.00    +0.000 A 
ATOM      5 CL   UNL     1       3.377   1.203  18.608  0.00  0.00    +0.000 Cl
ATOM      6  C   UNL     1       4.339   3.695  18.979  0.00  0.00    +0.000 A 
ATOM      7  C   UNL     1       4.337   5.096  18.855  0.00  0.00    +0.000 A 
ENDROOT
BRANCH   7   8
ATOM      8  N   UNL     1       5.397   5.883  19.358  0.00  0.00    +0.000 N 
ATOM      9  H   UNL     1       5.118   6.341  20.223  0.00  0.00    +0.000 HD
BRANCH   8  10
ATOM     10  C   UNL     1       6.729   5.280  19.403  0.00  0.00    +0.000 C 
BRANCH  10  11
ATOM     11  C   UNL     1       7.788   6.257  18.892  0.00  0.00    +0.000 C 
BRANCH  11  12
ATOM     12  C   UNL     1       7.499   6.682  17.440  0.00  0.00    +0.000 C 
BRANCH  12  13
ATOM     13  N   UNL     1       6.592   5.768  16.719  0.00  0.00    +0.000 NA
ATOM     14  C   UNL     1       5.892   6.460  15.623  0.00  0.00    +0.000 C 
ATOM     15  C   UNL     1       4.920   5.535  14.893  0.00  0.00    +0.000 C 
ATOM     16  C   UNL     1       5.629   4.297  14.371  0.00  0.00    +0.000 C 
ATOM     17  C   UNL     1       6.388   3.612  15.501  0.00  0.00    +0.000 C 
ATOM     18  C   UNL     1       7.322   4.591  16.219  0.00  0.00    +0.000 C 
ENDBRANCH  12  13
ENDBRANCH  11  12
ENDBRANCH  10  11
ENDBRANCH   8  10
ENDBRANCH   7   8
BRANCH   1  19
ATOM     19  S   UNL     1       3.145   7.461  17.912  0.00  0.00    +0.000 S 
BRANCH  19  24
ATOM     20 CL   UNL     1      -0.560   9.619  22.541  0.00  0.00    +0.000 Cl
ATOM     21  C   UNL     1       0.398   9.034  21.238  0.00  0.00    +0.000 A 
ATOM     22  C   UNL     1       1.097   7.838  21.376  0.00  0.00    +0.000 A 
ATOM     23  C   UNL     1       1.899   7.382  20.326  0.00  0.00    +0.000 A 
ATOM     24  C   UNL     1       2.009   8.106  19.131  0.00  0.00    +0.000 A 
ATOM     25  C   UNL     1       1.291   9.301  19.004  0.00  0.00    +0.000 A 
ATOM     26  C   UNL     1       0.486   9.762  20.055  0.00  0.00    +0.000 A 
ENDBRANCH  19  24
ENDBRANCH   1  19
TORSDOF 7
ENDMDL
MODEL 7
REMARK VINA RESULT:      -7.0      2.810      6.780
REMARK  Name = 
REMARK  7 active torsions:
REMARK  status: ('A' for Active; 'I' for Inactive)
REMARK    1  A    between atoms: C_5  and  S_6
REMARK    2  A    between atoms: S_6  and  C_7
REMARK    3  A    between atoms: C_13  and  N_14
REMARK    4  A    between atoms: N_14  and  C_15
REMARK    5  A    between atoms: C_15  and  C_16
REMARK    6  A    between atoms: C_16  and  C_17
REMARK    7  A    between atoms: C_17  and  N_18
REMARK                            x       y       z     vdW  Elec       q    Type
REMARK                         _______ _______ _______ _____ _____    ______ ____
ROOT
ATOM      1  C   UNL     1       2.930   5.865  18.263  0.00  0.00    +0.000 A 
ATOM      2  C   UNL     1       1.867   5.057  17.821  0.00  0.00    +0.000 A 
ATOM      3  C   UNL     1       1.937   3.668  17.931  0.00  0.00    +0.000 A 
ATOM      4  C   UNL     1       3.074   3.083  18.464  0.00  0.00    +0.000 A 
ATOM      5 CL   UNL     1       3.175   1.371  18.608  0.00  0.00    +0.000 Cl
ATOM      6  C   UNL     1       4.146   3.873  18.878  0.00  0.00    +0.000 A 
ATOM      7  C   UNL     1       4.113   5.274  18.765  0.00  0.00    +0.000 A 
ENDROOT
BRANCH   7   8
ATOM      8  N   UNL     1       5.217   6.071  19.144  0.00  0.00    +0.000 N 
ATOM      9  H   UNL     1       4.938   6.752  19.846  0.00  0.00    +0.000 HD
BRANCH   8  10
ATOM     10  C   UNL     1       6.478   5.390  19.440  0.00  0.00    +0.000 C 
BRANCH  10  11
ATOM     11  C   UNL     1       7.646   6.066  18.722  0.00  0.00    +0.000 C 
BRANCH  11  12
ATOM     12  C   UNL     1       7.152   6.924  17.542  0.00  0.00    +0.000 C 
BRANCH  12  13
ATOM     13  N   UNL     1       6.892   6.154  16.310  0.00  0.00    +0.000 NA
ATOM     14  C   UNL     1       7.111   4.712  16.521  0.00  0.00    +0.000 C 
ATOM     15  C   UNL     1       6.885   3.908  15.243  0.00  0.00    +0.000 C 
ATOM     16  C   UNL     1       5.498   4.156  14.677  0.00  0.00    +0.000 C 
ATOM     17  C   UNL     1       5.262   5.652  14.503  0.00  0.00    +0.000 C 
ATOM     18  C   UNL     1       5.534   6.413  15.804  0.00  0.00    +0.000 C 
ENDBRANCH  12  13
ENDBRANCH  11  12
ENDBRANCH  10  11
ENDBRANCH   8  10
ENDBRANCH   7   8
BRANCH   1  19
ATOM     19  S   UNL     1       2.791   7.630  17.987  0.00  0.00    +0.000 S 
BRANCH  19  24
ATOM     20 CL   UNL     1      -0.724  10.018  22.650  0.00  0.00    +0.000 Cl
ATOM     21  C   UNL     1       0.285   9.365  21.421  0.00  0.00    +0.000 A 
ATOM     22  C   UNL     1       0.407  10.027  20.202  0.00  0.00    +0.000 A 
ATOM     23  C   UNL     1       1.204   9.476  19.195  0.00  0.00    +0.000 A 
ATOM     24  C   UNL     1       1.890   8.270  19.391  0.00  0.00    +0.000 A 
ATOM     25  C   UNL     1       1.765   7.622  20.626  0.00  0.00    +0.000 A 
ATOM     26  C   UNL     1       0.966   8.171  21.638  0.00  0.00    +0.000 A 
ENDBRANCH  19  24
ENDBRANCH   1  19
TORSDOF 7
ENDMDL
MODEL 8
REMARK VINA RESULT:      -7.0      3.068      7.313
REMARK  Name = 
REMARK  7 active torsions:
REMARK  status: ('A' for Active; 'I' for Inactive)
REMARK    1  A    between atoms: C_5  and  S_6
REMARK    2  A    between atoms: S_6  and  C_7
REMARK    3  A    between atoms: C_13  and  N_14
REMARK    4  A    between atoms: N_14  and  C_15
REMARK    5  A    between atoms: C_15  and  C_16
REMARK    6  A    between atoms: C_16  and  C_17
REMARK    7  A    between atoms: C_17  and  N_18
REMARK                            x       y       z     vdW  Elec       q    Type
REMARK                         _______ _______ _______ _____ _____    ______ ____
ROOT
ATOM      1  C   UNL     1       3.028   5.761  17.949  0.00  0.00    +0.000 A 
ATOM      2  C   UNL     1       1.739   5.199  17.907  0.00  0.00    +0.000 A 
ATOM      3  C   UNL     1       1.551   3.835  18.133  0.00  0.00    +0.000 A 
ATOM      4  C   UNL     1       2.649   3.027  18.381  0.00  0.00    +0.000 A 
ATOM      5 CL   UNL     1       2.432   1.344  18.662  0.00  0.00    +0.000 Cl
ATOM      6  C   UNL     1       3.934   3.568  18.395  0.00  0.00    +0.000 A 
ATOM      7  C   UNL     1       4.159   4.936  18.155  0.00  0.00    +0.000 A 
ENDROOT
BRANCH   7   8
ATOM      8  N   UNL     1       5.464   5.475  18.126  0.00  0.00    +0.000 N 
ATOM      9  H   UNL     1       5.547   6.239  18.793  0.00  0.00    +0.000 HD
BRANCH   8  10
ATOM     10  C   UNL     1       6.588   4.538  18.149  0.00  0.00    +0.000 C 
BRANCH  10  11
ATOM     11  C   UNL     1       7.389   4.614  16.849  0.00  0.00    +0.000 C 
BRANCH  11  12
ATOM     12  C   UNL     1       6.891   5.766  15.956  0.00  0.00    +0.000 C 
BRANCH  12  13
ATOM     13  N   UNL     1       6.519   5.346  14.590  0.00  0.00    +0.000 NA
ATOM     14  C   UNL     1       7.709   5.177  13.737  0.00  0.00    +0.000 C 
ATOM     15  C   UNL     1       7.336   4.782  12.310  0.00  0.00    +0.000 C 
ATOM     16  C   UNL     1       6.488   3.521  12.294  0.00  0.00    +0.000 C 
ATOM     17  C   UNL     1       5.284   3.686  13.214  0.00  0.00    +0.000 C 
ATOM     18  C   UNL     1       5.712   4.115  14.621  0.00  0.00    +0.000 C 
ENDBRANCH  12  13
ENDBRANCH  11  12
ENDBRANCH  10  11
ENDBRANCH   8  10
ENDBRANCH   7   8
BRANCH   1  19
ATOM     19  S   UNL     1       3.181   7.500  17.547  0.00  0.00    +0.000 S 
BRANCH  19  24
ATOM     20 CL   UNL     1      -0.762  10.597  21.376  0.00  0.00    +0.000 Cl
ATOM     21  C   UNL     1       0.360   9.762  20.377  0.00  0.00    +0.000 A 
ATOM     22  C   UNL     1       0.561  10.178  19.064  0.00  0.00    +0.000 A 
ATOM     23  C   UNL     1       1.451   9.476  18.246  0.00  0.00    +0.000 A 
ATOM     24  C   UNL     1       2.152   8.362  18.727  0.00  0.00    +0.000 A 
ATOM     25  C   UNL     1       1.947   7.963  20.053  0.00  0.00    +0.000 A 
ATOM     26  C   UNL     1       1.055   8.663  20.876  0.00  0.00    +0.000 A 
ENDBRANCH  19  24
ENDBRANCH   1  19
TORSDOF 7
ENDMDL
MODEL 9
REMARK VINA RESULT:      -7.0      1.257      4.951
REMARK  Name = 
REMARK  7 active torsions:
REMARK  status: ('A' for Active; 'I' for Inactive)
REMARK    1  A    between atoms: C_5  and  S_6
REMARK    2  A    between atoms: S_6  and  C_7
REMARK    3  A    between atoms: C_13  and  N_14
REMARK    4  A    between atoms: N_14  and  C_15
REMARK    5  A    between atoms: C_15  and  C_16
REMARK    6  A    between atoms: C_16  and  C_17
REMARK    7  A    between atoms: C_17  and  N_18
REMARK                            x       y       z     vdW  Elec       q    Type
REMARK                         _______ _______ _______ _____ _____    ______ ____
ROOT
ATOM      1  C   UNL     1       4.838   4.963  17.144  0.00  0.00    +0.000 A 
ATOM      2  C   UNL     1       6.177   4.672  16.826  0.00  0.00    +0.000 A 
ATOM      3  C   UNL     1       7.158   5.660  16.906  0.00  0.00    +0.000 A 
ATOM      4  C   UNL     1       6.802   6.944  17.285  0.00  0.00    +0.000 A 
ATOM      5 CL   UNL     1       8.001   8.174  17.390  0.00  0.00    +0.000 Cl
ATOM      6  C   UNL     1       5.473   7.252  17.575  0.00  0.00    +0.000 A 
ATOM      7  C   UNL     1       4.458   6.282  17.487  0.00  0.00    +0.000 A 
ENDROOT
BRANCH   7   8
ATOM      8  N   UNL     1       3.106   6.605  17.738  0.00  0.00    +0.000 N 
ATOM      9  H   UNL     1       2.734   6.019  18.482  0.00  0.00    +0.000 HD
BRANCH   8  10
ATOM     10  C   UNL     1       2.756   8.020  17.861  0.00  0.00    +0.000 C 
BRANCH  10  11
ATOM     11  C   UNL     1       2.035   8.292  19.181  0.00  0.00    +0.000 C 
BRANCH  11  12
ATOM     12  C   UNL     1       1.171   9.564  19.091  0.00  0.00    +0.000 C 
BRANCH  12  13
ATOM     13  N   UNL     1       0.201   9.708  20.194  0.00  0.00    +0.000 NA
ATOM     14  C   UNL     1       0.556   8.849  21.337  0.00  0.00    +0.000 C 
ATOM     15  C   UNL     1      -0.461   8.958  22.470  0.00  0.00    +0.000 C 
ATOM     16  C   UNL     1      -0.628  10.399  22.921  0.00  0.00    +0.000 C 
ATOM     17  C   UNL     1      -0.950  11.289  21.727  0.00  0.00    +0.000 C 
ATOM     18  C   UNL     1       0.082  11.116  20.609  0.00  0.00    +0.000 C 
ENDBRANCH  12  13
ENDBRANCH  11  12
ENDBRANCH  10  11
ENDBRANCH   8  10
ENDBRANCH   7   8
BRANCH   1  19
ATOM     19  S   UNL     1       3.634   3.656  16.914  0.00  0.00    +0.000 S 
BRANCH  19  24
ATOM     20 CL   UNL     1       0.934   2.232  22.435  0.00  0.00    +0.000 Cl
ATOM     21  C   UNL     1       1.704   2.667  20.961  0.00  0.00    +0.000 A 
ATOM     22  C   UNL     1       0.934   2.980  19.844  0.00  0.00    +0.000 A 
ATOM     23  C   UNL     1       1.565   3.303  18.639  0.00  0.00    +0.000 A 
ATOM     24  C   UNL     1       2.962   3.325  18.536  0.00  0.00    +0.000 A 
ATOM     25  C   UNL     1       3.723   3.018  19.671  0.00  0.00    +0.000 A 
ATOM     26  C   UNL     1       3.094   2.693  20.880  0.00  0.00    +0.000 A 
ENDBRANCH  19  24
ENDBRANCH   1  19
TORSDOF 7
ENDMDL
