MODEL 1
REMARK VINA RESULT:      -7.7      0.000      0.000
REMARK  Name = 
REMARK  8 active torsions:
REMARK  status: ('A' for Active; 'I' for Inactive)
REMARK    1  A    between atoms: C_1  and  O_2
REMARK    2  A    between atoms: O_2  and  C_3
REMARK    3  A    between atoms: C_3  and  C_5
REMARK    4  A    between atoms: C_7  and  C_8
REMARK    5  A    between atoms: C_10  and  N_11
REMARK    6  A    between atoms: C_12  and  C_14
REMARK    7  A    between atoms: C_14  and  C_15
REMARK    8  A    between atoms: C_15  and  C_16
REMARK                            x       y       z     vdW  Elec       q    Type
REMARK                         _______ _______ _______ _____ _____    ______ ____
ROOT
ATOM      1  N   UNL     1       6.824   6.234  18.476  0.00  0.00    +0.000 N 
ATOM      2  C   UNL     1       7.177   7.340  17.721  0.00  0.00    +0.000 C 
ATOM      3  O   UNL     1       6.649   7.672  16.658  0.00  0.00    +0.000 OA
ATOM      4  H   UNL     1       6.966   6.293  19.477  0.00  0.00    +0.000 HD
ENDROOT
BRANCH   1  10
ATOM      5  C   UNL     1       5.609   4.602  16.979  0.00  0.00    +0.000 A 
ATOM      6  C   UNL     1       4.241   4.148  16.920  0.00  0.00    +0.000 A 
ATOM      7  C   UNL     1       3.482   4.580  17.988  0.00  0.00    +0.000 A 
ATOM      8  C   UNL     1       2.044   4.309  18.271  0.00  0.00    +0.000 C 
ATOM      9  S   UNL     1       4.418   5.508  19.079  0.00  0.00    +0.000 S 
ATOM     10  C   UNL     1       5.774   5.441  18.061  0.00  0.00    +0.000 A 
BRANCH   5  11
ATOM     11  C   UNL     1       6.678   4.195  16.073  0.00  0.00    +0.000 C 
ATOM     12  O   UNL     1       7.870   4.393  16.289  0.00  0.00    +0.000 OA
BRANCH  11  14
ATOM     13  C   UNL     1       6.353   4.157  13.755  0.00  0.00    +0.000 C 
ATOM     14  O   UNL     1       6.207   3.482  15.004  0.00  0.00    +0.000 OA
ENDBRANCH  11  14
ENDBRANCH   5  11
ENDBRANCH   1  10
BRANCH   2  15
ATOM     15  C   UNL     1       8.296   8.149  18.348  0.00  0.00    +0.000 C 
BRANCH  15  16
ATOM     16  C   UNL     1       8.223   9.626  17.952  0.00  0.00    +0.000 C 
BRANCH  16  17
ATOM     17  C   UNL     1       9.311  10.423  18.634  0.00  0.00    +0.000 A 
ATOM     18  C   UNL     1       9.281  10.613  20.022  0.00  0.00    +0.000 A 
ATOM     19  C   UNL     1      10.237  11.414  20.648  0.00  0.00    +0.000 A 
ATOM     20  C   UNL     1      11.233  12.032  19.894  0.00  0.00    +0.000 A 
ATOM     21  C   UNL     1      11.284  11.833  18.516  0.00  0.00    +0.000 A 
ATOM     22  C   UNL     1      10.329  11.031  17.887  0.00  0.00    +0.000 A 
ENDBRANCH  16  17
ENDBRANCH  15  16
ENDBRANCH   2  15
TORSDOF 6
ENDMDL
MODEL 2
REMARK VINA RESULT:      -7.6      0.165      1.066
REMARK  Name = 
REMARK  8 active torsions:
REMARK  status: ('A' for Active; 'I' for Inactive)
REMARK    1  A    between atoms: C_1  and  O_2
REMARK    2  A    between atoms: O_2  and  C_3
REMARK    3  A    between atoms: C_3  and  C_5
REMARK    4  A    between atoms: C_7  and  C_8
REMARK    5  A    between atoms: C_10  and  N_11
REMARK    6  A    between atoms: C_12  and  C_14
REMARK    7  A    between atoms: C_14  and  C_15
REMARK    8  A    between atoms: C_15  and  C_16
REMARK                            x       y       z     vdW  Elec       q    Type
REMARK                         _______ _______ _______ _____ _____    ______ ____
ROOT
ATOM      1  N   UNL     1       6.844   6.340  18.551  0.00  0.00    +0.000 N 
ATOM      2  C   UNL     1       7.228   7.393  17.736  0.00  0.00    +0.000 C 
ATOM      3  O   UNL     1       6.733   7.658  16.638  0.00  0.00    +0.000 OA
ATOM      4  H   UNL     1       6.957   6.464  19.549  0.00  0.00    +0.000 HD
ENDROOT
BRANCH   1  10
ATOM      5  C   UNL     1       5.662   4.620  17.128  0.00  0.00    +0.000 A 
ATOM      6  C   UNL     1       4.293   4.171  17.058  0.00  0.00    +0.000 A 
ATOM      7  C   UNL     1       3.505   4.678  18.072  0.00  0.00    +0.000 A 
ATOM      8  C   UNL     1       2.057   4.435  18.327  0.00  0.00    +0.000 C 
ATOM      9  S   UNL     1       4.416   5.671  19.127  0.00  0.00    +0.000 S 
ATOM     10  C   UNL     1       5.801   5.528  18.157  0.00  0.00    +0.000 A 
BRANCH   5  11
ATOM     11  C   UNL     1       6.754   4.147  16.285  0.00  0.00    +0.000 C 
ATOM     12  O   UNL     1       7.937   4.188  16.610  0.00  0.00    +0.000 OA
BRANCH  11  14
ATOM     13  C   UNL     1       6.455   4.385  13.976  0.00  0.00    +0.000 C 
ATOM     14  O   UNL     1       6.302   3.563  15.132  0.00  0.00    +0.000 OA
ENDBRANCH  11  14
ENDBRANCH   5  11
ENDBRANCH   1  10
BRANCH   2  15
ATOM     15  C   UNL     1       8.333   8.235  18.341  0.00  0.00    +0.000 C 
BRANCH  15  16
ATOM     16  C   UNL     1       8.245   9.697  17.897  0.00  0.00    +0.000 C 
BRANCH  16  17
ATOM     17  C   UNL     1       9.283  10.540  18.602  0.00  0.00    +0.000 A 
ATOM     18  C   UNL     1      10.309  11.152  17.871  0.00  0.00    +0.000 A 
ATOM     19  C   UNL     1      11.316  11.865  18.524  0.00  0.00    +0.000 A 
ATOM     20  C   UNL     1      11.307  11.973  19.913  0.00  0.00    +0.000 A 
ATOM     21  C   UNL     1      10.281  11.385  20.648  0.00  0.00    +0.000 A 
ATOM     22  C   UNL     1       9.271  10.673  19.998  0.00  0.00    +0.000 A 
ENDBRANCH  16  17
ENDBRANCH  15  16
ENDBRANCH   2  15
TORSDOF 6
ENDMDL
MODEL 3
REMARK VINA RESULT:      -7.4      0.973      1.034
REMARK  Name = 
REMARK  8 active torsions:
REMARK  status: ('A' for Active; 'I' for Inactive)
REMARK    1  A    between atoms: C_1  and  O_2
REMARK    2  A    between atoms: O_2  and  C_3
REMARK    3  A    between atoms: C_3  and  C_5
REMARK    4  A    between atoms: C_7  and  C_8
REMARK    5  A    between atoms: C_10  and  N_11
REMARK    6  A    between atoms: C_12  and  C_14
REMARK    7  A    between atoms: C_14  and  C_15
REMARK    8  A    between atoms: C_15  and  C_16
REMARK                            x       y       z     vdW  Elec       q    Type
REMARK                         _______ _______ _______ _____ _____    ______ ____
ROOT
ATOM      1  N   UNL     1       7.551   6.062  17.505  0.00  0.00    +0.000 N 
ATOM      2  C   UNL     1       7.325   7.424  17.394  0.00  0.00    +0.000 C 
ATOM      3  O   UNL     1       6.284   7.939  16.979  0.00  0.00    +0.000 OA
ATOM      4  H   UNL     1       8.185   5.757  18.232  0.00  0.00    +0.000 HD
ENDROOT
BRANCH   1  10
ATOM      5  C   UNL     1       6.150   4.612  15.982  0.00  0.00    +0.000 A 
ATOM      6  C   UNL     1       4.912   3.896  16.167  0.00  0.00    +0.000 A 
ATOM      7  C   UNL     1       4.488   3.880  17.480  0.00  0.00    +0.000 A 
ATOM      8  C   UNL     1       3.270   3.239  18.051  0.00  0.00    +0.000 C 
ATOM      9  S   UNL     1       5.592   4.701  18.498  0.00  0.00    +0.000 S 
ATOM     10  C   UNL     1       6.541   5.181  17.177  0.00  0.00    +0.000 A 
BRANCH   5  11
ATOM     11  C   UNL     1       6.914   4.681  14.741  0.00  0.00    +0.000 C 
ATOM     12  O   UNL     1       7.878   5.422  14.570  0.00  0.00    +0.000 OA
BRANCH  11  14
ATOM     13  C   UNL     1       6.814   4.099  12.476  0.00  0.00    +0.000 C 
ATOM     14  O   UNL     1       6.494   3.756  13.823  0.00  0.00    +0.000 OA
ENDBRANCH  11  14
ENDBRANCH   5  11
ENDBRANCH   1  10
BRANCH   2  15
ATOM     15  C   UNL     1       8.500   8.257  17.863  0.00  0.00    +0.000 C 
BRANCH  15  16
ATOM     16  C   UNL     1       8.115   9.724  18.067  0.00  0.00    +0.000 C 
BRANCH  16  17
ATOM     17  C   UNL     1       9.255  10.503  18.681  0.00  0.00    +0.000 A 
ATOM     18  C   UNL     1       9.265  10.773  20.056  0.00  0.00    +0.000 A 
ATOM     19  C   UNL     1      10.273  11.559  20.616  0.00  0.00    +0.000 A 
ATOM     20  C   UNL     1      11.281  12.082  19.810  0.00  0.00    +0.000 A 
ATOM     21  C   UNL     1      11.293  11.803  18.445  0.00  0.00    +0.000 A 
ATOM     22  C   UNL     1      10.287  11.015  17.882  0.00  0.00    +0.000 A 
ENDBRANCH  16  17
ENDBRANCH  15  16
ENDBRANCH   2  15
TORSDOF 6
ENDMDL
MODEL 4
REMARK VINA RESULT:      -7.4      1.162      1.559
REMARK  Name = 
REMARK  8 active torsions:
REMARK  status: ('A' for Active; 'I' for Inactive)
REMARK    1  A    between atoms: C_1  and  O_2
REMARK    2  A    between atoms: O_2  and  C_3
REMARK    3  A    between atoms: C_3  and  C_5
REMARK    4  A    between atoms: C_7  and  C_8
REMARK    5  A    between atoms: C_10  and  N_11
REMARK    6  A    between atoms: C_12  and  C_14
REMARK    7  A    between atoms: C_14  and  C_15
REMARK    8  A    between atoms: C_15  and  C_16
REMARK                            x       y       z     vdW  Elec       q    Type
REMARK                         _______ _______ _______ _____ _____    ______ ____
ROOT
ATOM      1  N   UNL     1       6.543   7.460  16.753  0.00  0.00    +0.000 N 
ATOM      2  C   UNL     1       7.592   7.567  17.652  0.00  0.00    +0.000 C 
ATOM      3  O   UNL     1       7.886   6.724  18.503  0.00  0.00    +0.000 OA
ATOM      4  H   UNL     1       6.651   7.924  15.861  0.00  0.00    +0.000 HD
ENDROOT
BRANCH   1  10
ATOM      5  C   UNL     1       5.776   5.190  15.953  0.00  0.00    +0.000 A 
ATOM      6  C   UNL     1       4.634   4.368  16.268  0.00  0.00    +0.000 A 
ATOM      7  C   UNL     1       3.893   4.854  17.326  0.00  0.00    +0.000 A 
ATOM      8  C   UNL     1       2.661   4.277  17.935  0.00  0.00    +0.000 C 
ATOM      9  S   UNL     1       4.585   6.284  17.962  0.00  0.00    +0.000 S 
ATOM     10  C   UNL     1       5.772   6.317  16.750  0.00  0.00    +0.000 A 
BRANCH   5  11
ATOM     11  C   UNL     1       6.817   4.862  14.984  0.00  0.00    +0.000 C 
ATOM     12  O   UNL     1       7.830   5.534  14.815  0.00  0.00    +0.000 OA
BRANCH  11  14
ATOM     13  C   UNL     1       6.262   3.802  12.973  0.00  0.00    +0.000 C 
ATOM     14  O   UNL     1       6.582   3.669  14.357  0.00  0.00    +0.000 OA
ENDBRANCH  11  14
ENDBRANCH   5  11
ENDBRANCH   1  10
BRANCH   2  15
ATOM     15  C   UNL     1       8.388   8.845  17.480  0.00  0.00    +0.000 C 
BRANCH  15  16
ATOM     16  C   UNL     1       8.217   9.789  18.673  0.00  0.00    +0.000 C 
BRANCH  16  17
ATOM     17  C   UNL     1       9.441  10.656  18.855  0.00  0.00    +0.000 A 
ATOM     18  C   UNL     1      10.198  11.051  17.745  0.00  0.00    +0.000 A 
ATOM     19  C   UNL     1      11.374  11.784  17.912  0.00  0.00    +0.000 A 
ATOM     20  C   UNL     1      11.803  12.132  19.191  0.00  0.00    +0.000 A 
ATOM     21  C   UNL     1      11.048  11.763  20.302  0.00  0.00    +0.000 A 
ATOM     22  C   UNL     1       9.871  11.030  20.137  0.00  0.00    +0.000 A 
ENDBRANCH  16  17
ENDBRANCH  15  16
ENDBRANCH   2  15
TORSDOF 6
ENDMDL
MODEL 5
REMARK VINA RESULT:      -7.4      1.400      1.639
REMARK  Name = 
REMARK  8 active torsions:
REMARK  status: ('A' for Active; 'I' for Inactive)
REMARK    1  A    between atoms: C_1  and  O_2
REMARK    2  A    between atoms: O_2  and  C_3
REMARK    3  A    between atoms: C_3  and  C_5
REMARK    4  A    between atoms: C_7  and  C_8
REMARK    5  A    between atoms: C_10  and  N_11
REMARK    6  A    between atoms: C_12  and  C_14
REMARK    7  A    between atoms: C_14  and  C_15
REMARK    8  A    between atoms: C_15  and  C_16
REMARK                            x       y       z     vdW  Elec       q    Type
REMARK                         _______ _______ _______ _____ _____    ______ ____
ROOT
ATOM      1  N   UNL     1       6.378   7.218  17.106  0.00  0.00    +0.000 N 
ATOM      2  C   UNL     1       7.545   7.518  17.791  0.00  0.00    +0.000 C 
ATOM      3  O   UNL     1       8.180   6.727  18.491  0.00  0.00    +0.000 OA
ATOM      4  H   UNL     1       6.199   7.733  16.253  0.00  0.00    +0.000 HD
ENDROOT
BRANCH   1  10
ATOM      5  C   UNL     1       5.798   4.930  16.207  0.00  0.00    +0.000 A 
ATOM      6  C   UNL     1       5.021   3.833  16.730  0.00  0.00    +0.000 A 
ATOM      7  C   UNL     1       4.645   4.016  18.045  0.00  0.00    +0.000 A 
ATOM      8  C   UNL     1       3.850   3.104  18.915  0.00  0.00    +0.000 C 
ATOM      9  S   UNL     1       5.250   5.492  18.663  0.00  0.00    +0.000 S 
ATOM     10  C   UNL     1       5.882   5.932  17.151  0.00  0.00    +0.000 A 
BRANCH   5  11
ATOM     11  C   UNL     1       6.452   4.961  14.903  0.00  0.00    +0.000 C 
ATOM     12  O   UNL     1       7.600   5.355  14.722  0.00  0.00    +0.000 OA
BRANCH  11  14
ATOM     13  C   UNL     1       6.417   3.703  12.929  0.00  0.00    +0.000 C 
ATOM     14  O   UNL     1       5.673   4.409  13.921  0.00  0.00    +0.000 OA
ENDBRANCH  11  14
ENDBRANCH   5  11
ENDBRANCH   1  10
BRANCH   2  15
ATOM     15  C   UNL     1       8.001   8.948  17.580  0.00  0.00    +0.000 C 
BRANCH  15  16
ATOM     16  C   UNL     1       8.788   9.479  18.781  0.00  0.00    +0.000 C 
BRANCH  16  17
ATOM     17  C   UNL     1       9.419  10.816  18.466  0.00  0.00    +0.000 A 
ATOM     18  C   UNL     1      10.732  11.088  18.870  0.00  0.00    +0.000 A 
ATOM     19  C   UNL     1      11.293  12.348  18.654  0.00  0.00    +0.000 A 
ATOM     20  C   UNL     1      10.548  13.347  18.031  0.00  0.00    +0.000 A 
ATOM     21  C   UNL     1       9.248  13.081  17.607  0.00  0.00    +0.000 A 
ATOM     22  C   UNL     1       8.684  11.821  17.821  0.00  0.00    +0.000 A 
ENDBRANCH  16  17
ENDBRANCH  15  16
ENDBRANCH   2  15
TORSDOF 6
ENDMDL
MODEL 6
REMARK VINA RESULT:      -7.4      1.800      2.774
REMARK  Name = 
REMARK  8 active torsions:
REMARK  status: ('A' for Active; 'I' for Inactive)
REMARK    1  A    between atoms: C_1  and  O_2
REMARK    2  A    between atoms: O_2  and  C_3
REMARK    3  A    between atoms: C_3  and  C_5
REMARK    4  A    between atoms: C_7  and  C_8
REMARK    5  A    between atoms: C_10  and  N_11
REMARK    6  A    between atoms: C_12  and  C_14
REMARK    7  A    between atoms: C_14  and  C_15
REMARK    8  A    between atoms: C_15  and  C_16
REMARK                            x       y       z     vdW  Elec       q    Type
REMARK                         _______ _______ _______ _____ _____    ______ ____
ROOT
ATOM      1  N   UNL     1       7.740   6.146  17.062  0.00  0.00    +0.000 N 
ATOM      2  C   UNL     1       7.290   7.425  17.349  0.00  0.00    +0.000 C 
ATOM      3  O   UNL     1       6.211   7.897  16.983  0.00  0.00    +0.000 OA
ATOM      4  H   UNL     1       8.359   5.713  17.735  0.00  0.00    +0.000 HD
ENDROOT
BRANCH   1  10
ATOM      5  C   UNL     1       5.947   4.396  16.736  0.00  0.00    +0.000 A 
ATOM      6  C   UNL     1       5.528   3.615  15.599  0.00  0.00    +0.000 A 
ATOM      7  C   UNL     1       6.129   4.009  14.420  0.00  0.00    +0.000 A 
ATOM      8  C   UNL     1       5.941   3.446  13.053  0.00  0.00    +0.000 C 
ATOM      9  S   UNL     1       7.175   5.339  14.673  0.00  0.00    +0.000 S 
ATOM     10  C   UNL     1       6.927   5.289  16.351  0.00  0.00    +0.000 A 
BRANCH   5  11
ATOM     11  C   UNL     1       5.386   4.309  18.080  0.00  0.00    +0.000 C 
ATOM     12  O   UNL     1       6.062   4.267  19.103  0.00  0.00    +0.000 OA
BRANCH  11  14
ATOM     13  C   UNL     1       3.513   5.704  17.920  0.00  0.00    +0.000 C 
ATOM     14  O   UNL     1       4.019   4.379  18.074  0.00  0.00    +0.000 OA
ENDBRANCH  11  14
ENDBRANCH   5  11
ENDBRANCH   1  10
BRANCH   2  15
ATOM     15  C   UNL     1       8.263   8.215  18.200  0.00  0.00    +0.000 C 
BRANCH  15  16
ATOM     16  C   UNL     1       8.161   9.720  17.936  0.00  0.00    +0.000 C 
BRANCH  16  17
ATOM     17  C   UNL     1       9.290  10.465  18.610  0.00  0.00    +0.000 A 
ATOM     18  C   UNL     1       9.285  10.647  19.998  0.00  0.00    +0.000 A 
ATOM     19  C   UNL     1      10.281  11.403  20.618  0.00  0.00    +0.000 A 
ATOM     20  C   UNL     1      11.293  11.982  19.857  0.00  0.00    +0.000 A 
ATOM     21  C   UNL     1      11.320  11.791  18.477  0.00  0.00    +0.000 A 
ATOM     22  C   UNL     1      10.325  11.035  17.855  0.00  0.00    +0.000 A 
ENDBRANCH  16  17
ENDBRANCH  15  16
ENDBRANCH   2  15
TORSDOF 6
ENDMDL
MODEL 7
REMARK VINA RESULT:      -7.3      1.301      1.348
REMARK  Name = 
REMARK  8 active torsions:
REMARK  status: ('A' for Active; 'I' for Inactive)
REMARK    1  A    between atoms: C_1  and  O_2
REMARK    2  A    between atoms: O_2  and  C_3
REMARK    3  A    between atoms: C_3  and  C_5
REMARK    4  A    between atoms: C_7  and  C_8
REMARK    5  A    between atoms: C_10  and  N_11
REMARK    6  A    between atoms: C_12  and  C_14
REMARK    7  A    between atoms: C_14  and  C_15
REMARK    8  A    between atoms: C_15  and  C_16
REMARK                            x       y       z     vdW  Elec       q    Type
REMARK                         _______ _______ _______ _____ _____    ______ ____
ROOT
ATOM      1  N   UNL     1       6.100   7.243  16.938  0.00  0.00    +0.000 N 
ATOM      2  C   UNL     1       7.270   7.312  17.678  0.00  0.00    +0.000 C 
ATOM      3  O   UNL     1       7.744   6.390  18.344  0.00  0.00    +0.000 OA
ATOM      4  H   UNL     1       6.038   7.830  16.116  0.00  0.00    +0.000 HD
ENDROOT
BRANCH   1  10
ATOM      5  C   UNL     1       5.475   4.970  16.030  0.00  0.00    +0.000 A 
ATOM      6  C   UNL     1       4.394   4.058  16.314  0.00  0.00    +0.000 A 
ATOM      7  C   UNL     1       3.637   4.440  17.402  0.00  0.00    +0.000 A 
ATOM      8  C   UNL     1       2.454   3.752  17.992  0.00  0.00    +0.000 C 
ATOM      9  S   UNL     1       4.240   5.879  18.104  0.00  0.00    +0.000 S 
ATOM     10  C   UNL     1       5.407   6.052  16.883  0.00  0.00    +0.000 A 
BRANCH   5  11
ATOM     11  C   UNL     1       6.523   4.763  15.036  0.00  0.00    +0.000 C 
ATOM     12  O   UNL     1       7.671   5.180  15.154  0.00  0.00    +0.000 OA
BRANCH  11  14
ATOM     13  C   UNL     1       6.834   4.167  12.794  0.00  0.00    +0.000 C 
ATOM     14  O   UNL     1       6.105   3.966  14.004  0.00  0.00    +0.000 OA
ENDBRANCH  11  14
ENDBRANCH   5  11
ENDBRANCH   1  10
BRANCH   2  15
ATOM     15  C   UNL     1       7.952   8.662  17.576  0.00  0.00    +0.000 C 
BRANCH  15  16
ATOM     16  C   UNL     1       8.864   8.932  18.776  0.00  0.00    +0.000 C 
BRANCH  16  17
ATOM     17  C   UNL     1       9.093  10.415  18.958  0.00  0.00    +0.000 A 
ATOM     18  C   UNL     1       9.448  10.924  20.213  0.00  0.00    +0.000 A 
ATOM     19  C   UNL     1       9.582  12.300  20.408  0.00  0.00    +0.000 A 
ATOM     20  C   UNL     1       9.364  13.179  19.350  0.00  0.00    +0.000 A 
ATOM     21  C   UNL     1       9.029  12.683  18.092  0.00  0.00    +0.000 A 
ATOM     22  C   UNL     1       8.896  11.307  17.895  0.00  0.00    +0.000 A 
ENDBRANCH  16  17
ENDBRANCH  15  16
ENDBRANCH   2  15
TORSDOF 6
ENDMDL
MODEL 8
REMARK VINA RESULT:      -7.3      4.923      6.714
REMARK  Name = 
REMARK  8 active torsions:
REMARK  status: ('A' for Active; 'I' for Inactive)
REMARK    1  A    between atoms: C_1  and  O_2
REMARK    2  A    between atoms: O_2  and  C_3
REMARK    3  A    between atoms: C_3  and  C_5
REMARK    4  A    between atoms: C_7  and  C_8
REMARK    5  A    between atoms: C_10  and  N_11
REMARK    6  A    between atoms: C_12  and  C_14
REMARK    7  A    between atoms: C_14  and  C_15
REMARK    8  A    between atoms: C_15  and  C_16
REMARK                            x       y       z     vdW  Elec       q    Type
REMARK                         _______ _______ _______ _____ _____    ______ ____
ROOT
ATOM      1  N   UNL     1       4.256   4.684  17.991  0.00  0.00    +0.000 N 
ATOM      2  C   UNL     1       5.610   4.687  18.283  0.00  0.00    +0.000 C 
ATOM      3  O   UNL     1       6.093   4.621  19.416  0.00  0.00    +0.000 OA
ATOM      4  H   UNL     1       3.977   4.295  17.099  0.00  0.00    +0.000 HD
ENDROOT
BRANCH   1  10
ATOM      5  C   UNL     1       2.608   5.472  19.736  0.00  0.00    +0.000 A 
ATOM      6  C   UNL     1       1.937   4.812  20.829  0.00  0.00    +0.000 A 
ATOM      7  C   UNL     1       2.121   3.444  20.828  0.00  0.00    +0.000 A 
ATOM      8  C   UNL     1       1.582   2.439  21.787  0.00  0.00    +0.000 C 
ATOM      9  S   UNL     1       3.074   2.948  19.497  0.00  0.00    +0.000 S 
ATOM     10  C   UNL     1       3.345   4.553  19.018  0.00  0.00    +0.000 A 
BRANCH   5  11
ATOM     11  C   UNL     1       2.485   6.886  19.394  0.00  0.00    +0.000 C 
ATOM     12  O   UNL     1       2.092   7.747  20.174  0.00  0.00    +0.000 OA
BRANCH  11  14
ATOM     13  C   UNL     1       2.484   8.395  17.605  0.00  0.00    +0.000 C 
ATOM     14  O   UNL     1       2.949   7.155  18.134  0.00  0.00    +0.000 OA
ENDBRANCH  11  14
ENDBRANCH   5  11
ENDBRANCH   1  10
BRANCH   2  15
ATOM     15  C   UNL     1       6.480   4.761  17.044  0.00  0.00    +0.000 C 
BRANCH  15  16
ATOM     16  C   UNL     1       5.756   5.440  15.878  0.00  0.00    +0.000 C 
BRANCH  16  17
ATOM     17  C   UNL     1       6.216   4.877  14.554  0.00  0.00    +0.000 A 
ATOM     18  C   UNL     1       7.384   5.361  13.949  0.00  0.00    +0.000 A 
ATOM     19  C   UNL     1       7.771   4.904  12.689  0.00  0.00    +0.000 A 
ATOM     20  C   UNL     1       6.998   3.957  12.021  0.00  0.00    +0.000 A 
ATOM     21  C   UNL     1       5.846   3.453  12.622  0.00  0.00    +0.000 A 
ATOM     22  C   UNL     1       5.456   3.909  13.883  0.00  0.00    +0.000 A 
ENDBRANCH  16  17
ENDBRANCH  15  16
ENDBRANCH   2  15
TORSDOF 6
ENDMDL
MODEL 9
REMARK VINA RESULT:      -7.2      5.028      6.847
REMARK  Name = 
REMARK  8 active torsions:
REMARK  status: ('A' for Active; 'I' for Inactive)
REMARK    1  A    between atoms: C_1  and  O_2
REMARK    2  A    between atoms: O_2  and  C_3
REMARK    3  A    between atoms: C_3  and  C_5
REMARK    4  A    between atoms: C_7  and  C_8
REMARK    5  A    between atoms: C_10  and  N_11
REMARK    6  A    between atoms: C_12  and  C_14
REMARK    7  A    between atoms: C_14  and  C_15
REMARK    8  A    between atoms: C_15  and  C_16
REMARK                            x       y       z     vdW  Elec       q    Type
REMARK                         _______ _______ _______ _____ _____    ______ ____
ROOT
ATOM      1  N   UNL     1       4.193   4.514  17.862  0.00  0.00    +0.000 N 
ATOM      2  C   UNL     1       5.549   4.508  18.144  0.00  0.00    +0.000 C 
ATOM      3  O   UNL     1       6.039   4.509  19.275  0.00  0.00    +0.000 OA
ATOM      4  H   UNL     1       3.898   4.070  17.001  0.00  0.00    +0.000 HD
ENDROOT
BRANCH   1  10
ATOM      5  C   UNL     1       2.618   5.462  19.594  0.00  0.00    +0.000 A 
ATOM      6  C   UNL     1       1.920   4.882  20.715  0.00  0.00    +0.000 A 
ATOM      7  C   UNL     1       2.018   3.506  20.760  0.00  0.00    +0.000 A 
ATOM      8  C   UNL     1       1.430   2.569  21.757  0.00  0.00    +0.000 C 
ATOM      9  S   UNL     1       2.924   2.906  19.437  0.00  0.00    +0.000 S 
ATOM     10  C   UNL     1       3.288   4.475  18.902  0.00  0.00    +0.000 A 
BRANCH   5  11
ATOM     11  C   UNL     1       2.579   6.868  19.205  0.00  0.00    +0.000 C 
ATOM     12  O   UNL     1       2.991   7.292  18.130  0.00  0.00    +0.000 OA
BRANCH  11  14
ATOM     13  C   UNL     1       1.442   8.873  19.610  0.00  0.00    +0.000 C 
ATOM     14  O   UNL     1       1.942   7.644  20.135  0.00  0.00    +0.000 OA
ENDBRANCH  11  14
ENDBRANCH   5  11
ENDBRANCH   1  10
BRANCH   2  15
ATOM     15  C   UNL     1       6.410   4.476  16.897  0.00  0.00    +0.000 C 
BRANCH  15  16
ATOM     16  C   UNL     1       5.872   5.409  15.808  0.00  0.00    +0.000 C 
BRANCH  16  17
ATOM     17  C   UNL     1       6.242   4.904  14.433  0.00  0.00    +0.000 A 
ATOM     18  C   UNL     1       5.457   3.929  13.804  0.00  0.00    +0.000 A 
ATOM     19  C   UNL     1       5.837   3.400  12.570  0.00  0.00    +0.000 A 
ATOM     20  C   UNL     1       7.004   3.842  11.950  0.00  0.00    +0.000 A 
ATOM     21  C   UNL     1       7.782   4.826  12.556  0.00  0.00    +0.000 A 
ATOM     22  C   UNL     1       7.404   5.357  13.791  0.00  0.00    +0.000 A 
ENDBRANCH  16  17
ENDBRANCH  15  16
ENDBRANCH   2  15
TORSDOF 6
ENDMDL
