MODEL 1
REMARK VINA RESULT:      -7.4      0.000      0.000
REMARK  Name = 
REMARK  5 active torsions:
REMARK  status: ('A' for Active; 'I' for Inactive)
REMARK    1  A    between atoms: C_1  and  N_2
REMARK    2  A    between atoms: C_4  and  C_5
REMARK    3  A    between atoms: C_11  and  C_12
REMARK    4  A    between atoms: C_15  and  C_16
REMARK    5  A    between atoms: N_18  and  C_19
REMARK                            x       y       z     vdW  Elec       q    Type
REMARK                         _______ _______ _______ _____ _____    ______ ____
ROOT
ATOM      1  C   UNL     1       4.209   6.222  17.993  0.00  0.00    +0.000 A 
ATOM      2  C   UNL     1       3.855   5.493  19.111  0.00  0.00    +0.000 A 
ATOM      3  C   UNL     1       2.884   6.156  19.912  0.00  0.00    +0.000 A 
ATOM      4  C   UNL     1       2.480   7.360  19.369  0.00  0.00    +0.000 A 
ATOM      5  S   UNL     1       3.323   7.692  17.920  0.00  0.00    +0.000 S 
ENDROOT
BRANCH   1  11
ATOM      6  C   UNL     1       7.227   7.014  17.865  0.00  0.00    +0.000 C 
ATOM      7  N   UNL     1       6.491   6.176  16.946  0.00  0.00    +0.000 N 
ATOM      8  N   UNL     1       7.139   5.700  15.865  0.00  0.00    +0.000 NA
ATOM      9  C   UNL     1       6.178   5.135  15.125  0.00  0.00    +0.000 A 
ATOM     10  C   UNL     1       4.924   5.213  15.768  0.00  0.00    +0.000 A 
ATOM     11  C   UNL     1       5.147   5.876  16.961  0.00  0.00    +0.000 A 
BRANCH   9  12
ATOM     12  C   UNL     1       6.457   4.536  13.780  0.00  0.00    +0.000 A 
ATOM     13  C   UNL     1       5.698   3.534  13.211  0.00  0.00    +0.000 A 
ATOM     14  C   UNL     1       6.213   3.115  11.949  0.00  0.00    +0.000 A 
ATOM     15  C   UNL     1       7.346   3.815  11.599  0.00  0.00    +0.000 A 
ATOM     16  S   UNL     1       7.763   4.988  12.773  0.00  0.00    +0.000 S 
ENDBRANCH   9  12
ENDBRANCH   1  11
BRANCH   4  17
ATOM     17  C   UNL     1       1.465   8.248  19.924  0.00  0.00    +0.000 C 
ATOM     18  O   UNL     1       0.964   8.006  21.018  0.00  0.00    +0.000 OA
ATOM     19  N   UNL     1       1.082   9.293  19.101  0.00  0.00    +0.000 N 
ATOM     20  H   UNL     1       1.411   9.250  18.143  0.00  0.00    +0.000 HD
BRANCH  19  21
ATOM     21  C   UNL     1       0.128  10.297  19.383  0.00  0.00    +0.000 A 
ATOM     22  C   UNL     1       0.179  11.188  20.460  0.00  0.00    +0.000 A 
ATOM     23  F   UNL     1       1.241  11.268  21.265  0.00  0.00    +0.000 F 
ATOM     24  C   UNL     1      -0.851  12.104  20.690  0.00  0.00    +0.000 A 
ATOM     25  C   UNL     1      -1.941  12.170  19.825  0.00  0.00    +0.000 A 
ATOM     26  C   UNL     1      -1.985  11.333  18.712  0.00  0.00    +0.000 A 
ATOM     27  C   UNL     1      -0.955  10.415  18.500  0.00  0.00    +0.000 A 
ATOM     28  F   UNL     1      -1.022   9.610  17.428  0.00  0.00    +0.000 F 
ENDBRANCH  19  21
ENDBRANCH   4  17
TORSDOF 4
ENDMDL
MODEL 2
REMARK VINA RESULT:      -7.4      3.829      9.655
REMARK  Name = 
REMARK  5 active torsions:
REMARK  status: ('A' for Active; 'I' for Inactive)
REMARK    1  A    between atoms: C_1  and  N_2
REMARK    2  A    between atoms: C_4  and  C_5
REMARK    3  A    between atoms: C_11  and  C_12
REMARK    4  A    between atoms: C_15  and  C_16
REMARK    5  A    between atoms: N_18  and  C_19
REMARK                            x       y       z     vdW  Elec       q    Type
REMARK                         _______ _______ _______ _____ _____    ______ ____
ROOT
ATOM      1  C   UNL     1       1.118  10.114  19.136  0.00  0.00    +0.000 A 
ATOM      2  C   UNL     1       1.010   9.268  20.221  0.00  0.00    +0.000 A 
ATOM      3  C   UNL     1       1.625   8.005  19.994  0.00  0.00    +0.000 A 
ATOM      4  C   UNL     1       2.231   7.925  18.755  0.00  0.00    +0.000 A 
ATOM      5  S   UNL     1       2.001   9.366  17.867  0.00  0.00    +0.000 S 
ENDROOT
BRANCH   1  11
ATOM      6  C   UNL     1      -1.766  10.978  18.306  0.00  0.00    +0.000 C 
ATOM      7  N   UNL     1      -0.664  11.827  18.694  0.00  0.00    +0.000 N 
ATOM      8  N   UNL     1      -0.850  13.161  18.660  0.00  0.00    +0.000 NA
ATOM      9  C   UNL     1       0.367  13.672  18.880  0.00  0.00    +0.000 A 
ATOM     10  C   UNL     1       1.317  12.652  19.103  0.00  0.00    +0.000 A 
ATOM     11  C   UNL     1       0.627  11.458  18.999  0.00  0.00    +0.000 A 
BRANCH   9  12
ATOM     12  C   UNL     1       0.629  15.147  18.854  0.00  0.00    +0.000 A 
ATOM     13  C   UNL     1       1.871  15.704  18.625  0.00  0.00    +0.000 A 
ATOM     14  C   UNL     1       1.847  17.128  18.703  0.00  0.00    +0.000 A 
ATOM     15  C   UNL     1       0.588  17.606  18.986  0.00  0.00    +0.000 A 
ATOM     16  S   UNL     1      -0.560  16.345  19.126  0.00  0.00    +0.000 S 
ENDBRANCH   9  12
ENDBRANCH   1  11
BRANCH   4  17
ATOM     17  C   UNL     1       2.985   6.784  18.247  0.00  0.00    +0.000 C 
ATOM     18  O   UNL     1       2.491   5.662  18.261  0.00  0.00    +0.000 OA
ATOM     19  N   UNL     1       4.279   7.066  17.844  0.00  0.00    +0.000 N 
ATOM     20  H   UNL     1       4.634   7.983  18.090  0.00  0.00    +0.000 HD
BRANCH  19  21
ATOM     21  C   UNL     1       5.225   6.160  17.313  0.00  0.00    +0.000 A 
ATOM     22  C   UNL     1       5.996   5.260  18.058  0.00  0.00    +0.000 A 
ATOM     23  F   UNL     1       5.798   5.068  19.364  0.00  0.00    +0.000 F 
ATOM     24  C   UNL     1       6.954   4.449  17.444  0.00  0.00    +0.000 A 
ATOM     25  C   UNL     1       7.140   4.500  16.064  0.00  0.00    +0.000 A 
ATOM     26  C   UNL     1       6.344   5.345  15.295  0.00  0.00    +0.000 A 
ATOM     27  C   UNL     1       5.397   6.157  15.922  0.00  0.00    +0.000 A 
ATOM     28  F   UNL     1       4.648   6.974  15.163  0.00  0.00    +0.000 F 
ENDBRANCH  19  21
ENDBRANCH   4  17
TORSDOF 4
ENDMDL
MODEL 3
REMARK VINA RESULT:      -7.4      3.651     10.447
REMARK  Name = 
REMARK  5 active torsions:
REMARK  status: ('A' for Active; 'I' for Inactive)
REMARK    1  A    between atoms: C_1  and  N_2
REMARK    2  A    between atoms: C_4  and  C_5
REMARK    3  A    between atoms: C_11  and  C_12
REMARK    4  A    between atoms: C_15  and  C_16
REMARK    5  A    between atoms: N_18  and  C_19
REMARK                            x       y       z     vdW  Elec       q    Type
REMARK                         _______ _______ _______ _____ _____    ______ ____
ROOT
ATOM      1  C   UNL     1       0.809   9.795  19.952  0.00  0.00    +0.000 A 
ATOM      2  C   UNL     1       1.069  10.249  18.675  0.00  0.00    +0.000 A 
ATOM      3  C   UNL     1       1.840   9.329  17.913  0.00  0.00    +0.000 A 
ATOM      4  C   UNL     1       2.120   8.168  18.606  0.00  0.00    +0.000 A 
ATOM      5  S   UNL     1       1.483   8.233  20.191  0.00  0.00    +0.000 S 
ENDROOT
BRANCH   1  11
ATOM      6  C   UNL     1       1.030   9.255  23.020  0.00  0.00    +0.000 C 
ATOM      7  N   UNL     1       0.215  10.242  22.351  0.00  0.00    +0.000 N 
ATOM      8  N   UNL     1      -0.598  11.009  23.104  0.00  0.00    +0.000 NA
ATOM      9  C   UNL     1      -1.343  11.675  22.214  0.00  0.00    +0.000 A 
ATOM     10  C   UNL     1      -0.964  11.361  20.891  0.00  0.00    +0.000 A 
ATOM     11  C   UNL     1       0.064  10.443  20.996  0.00  0.00    +0.000 A 
BRANCH   9  12
ATOM     12  C   UNL     1      -2.444  12.601  22.633  0.00  0.00    +0.000 A 
ATOM     13  C   UNL     1      -3.328  12.333  23.659  0.00  0.00    +0.000 A 
ATOM     14  C   UNL     1      -4.305  13.359  23.814  0.00  0.00    +0.000 A 
ATOM     15  C   UNL     1      -4.130  14.376  22.903  0.00  0.00    +0.000 A 
ATOM     16  S   UNL     1      -2.779  14.104  21.889  0.00  0.00    +0.000 S 
ENDBRANCH   9  12
ENDBRANCH   1  11
BRANCH   4  17
ATOM     17  C   UNL     1       2.846   7.016  18.084  0.00  0.00    +0.000 C 
ATOM     18  O   UNL     1       2.323   5.906  18.079  0.00  0.00    +0.000 OA
ATOM     19  N   UNL     1       4.148   7.270  17.689  0.00  0.00    +0.000 N 
ATOM     20  H   UNL     1       4.526   8.174  17.950  0.00  0.00    +0.000 HD
BRANCH  19  21
ATOM     21  C   UNL     1       5.072   6.348  17.148  0.00  0.00    +0.000 A 
ATOM     22  C   UNL     1       5.341   6.170  15.786  0.00  0.00    +0.000 A 
ATOM     23  F   UNL     1       4.839   6.981  14.852  0.00  0.00    +0.000 F 
ATOM     24  C   UNL     1       6.228   5.183  15.347  0.00  0.00    +0.000 A 
ATOM     25  C   UNL     1       6.889   4.371  16.266  0.00  0.00    +0.000 A 
ATOM     26  C   UNL     1       6.681   4.568  17.629  0.00  0.00    +0.000 A 
ATOM     27  C   UNL     1       5.786   5.551  18.054  0.00  0.00    +0.000 A 
ATOM     28  F   UNL     1       5.592   5.717  19.372  0.00  0.00    +0.000 F 
ENDBRANCH  19  21
ENDBRANCH   4  17
TORSDOF 4
ENDMDL
MODEL 4
REMARK VINA RESULT:      -7.4      3.577      9.927
REMARK  Name = 
REMARK  5 active torsions:
REMARK  status: ('A' for Active; 'I' for Inactive)
REMARK    1  A    between atoms: C_1  and  N_2
REMARK    2  A    between atoms: C_4  and  C_5
REMARK    3  A    between atoms: C_11  and  C_12
REMARK    4  A    between atoms: C_15  and  C_16
REMARK    5  A    between atoms: N_18  and  C_19
REMARK                            x       y       z     vdW  Elec       q    Type
REMARK                         _______ _______ _______ _____ _____    ______ ____
ROOT
ATOM      1  C   UNL     1       0.978   9.721  19.377  0.00  0.00    +0.000 A 
ATOM      2  C   UNL     1       1.121   8.882  20.464  0.00  0.00    +0.000 A 
ATOM      3  C   UNL     1       1.835   7.693  20.148  0.00  0.00    +0.000 A 
ATOM      4  C   UNL     1       2.263   7.664  18.836  0.00  0.00    +0.000 A 
ATOM      5  S   UNL     1       1.749   9.058  17.993  0.00  0.00    +0.000 S 
ENDROOT
BRANCH   1  11
ATOM      6  C   UNL     1      -1.706  10.384  17.924  0.00  0.00    +0.000 C 
ATOM      7  N   UNL     1      -0.891  11.267  18.725  0.00  0.00    +0.000 N 
ATOM      8  N   UNL     1      -1.277  12.552  18.844  0.00  0.00    +0.000 NA
ATOM      9  C   UNL     1      -0.254  13.150  19.466  0.00  0.00    +0.000 A 
ATOM     10  C   UNL     1       0.762  12.224  19.785  0.00  0.00    +0.000 A 
ATOM     11  C   UNL     1       0.325  10.999  19.315  0.00  0.00    +0.000 A 
BRANCH   9  12
ATOM     12  C   UNL     1      -0.238  14.624  19.736  0.00  0.00    +0.000 A 
ATOM     13  C   UNL     1       0.719  15.487  19.240  0.00  0.00    +0.000 A 
ATOM     14  C   UNL     1       0.525  16.826  19.691  0.00  0.00    +0.000 A 
ATOM     15  C   UNL     1      -0.574  16.937  20.513  0.00  0.00    +0.000 A 
ATOM     16  S   UNL     1      -1.379  15.440  20.712  0.00  0.00    +0.000 S 
ENDBRANCH   9  12
ENDBRANCH   1  11
BRANCH   4  17
ATOM     17  C   UNL     1       3.060   6.607  18.222  0.00  0.00    +0.000 C 
ATOM     18  O   UNL     1       2.605   5.473  18.116  0.00  0.00    +0.000 OA
ATOM     19  N   UNL     1       4.347   6.972  17.864  0.00  0.00    +0.000 N 
ATOM     20  H   UNL     1       4.668   7.871  18.207  0.00  0.00    +0.000 HD
BRANCH  19  21
ATOM     21  C   UNL     1       5.327   6.157  17.254  0.00  0.00    +0.000 A 
ATOM     22  C   UNL     1       5.518   6.008  15.876  0.00  0.00    +0.000 A 
ATOM     23  F   UNL     1       4.864   6.756  14.984  0.00  0.00    +0.000 F 
ATOM     24  C   UNL     1       6.476   5.125  15.371  0.00  0.00    +0.000 A 
ATOM     25  C   UNL     1       7.286   4.393  16.236  0.00  0.00    +0.000 A 
ATOM     26  C   UNL     1       7.154   4.569  17.612  0.00  0.00    +0.000 A 
ATOM     27  C   UNL     1       6.187   5.447  18.104  0.00  0.00    +0.000 A 
ATOM     28  F   UNL     1       6.069   5.593  19.433  0.00  0.00    +0.000 F 
ENDBRANCH  19  21
ENDBRANCH   4  17
TORSDOF 4
ENDMDL
MODEL 5
REMARK VINA RESULT:      -7.3      3.365      5.493
REMARK  Name = 
REMARK  5 active torsions:
REMARK  status: ('A' for Active; 'I' for Inactive)
REMARK    1  A    between atoms: C_1  and  N_2
REMARK    2  A    between atoms: C_4  and  C_5
REMARK    3  A    between atoms: C_11  and  C_12
REMARK    4  A    between atoms: C_15  and  C_16
REMARK    5  A    between atoms: N_18  and  C_19
REMARK                            x       y       z     vdW  Elec       q    Type
REMARK                         _______ _______ _______ _____ _____    ______ ____
ROOT
ATOM      1  C   UNL     1       0.872  10.038  18.876  0.00  0.00    +0.000 A 
ATOM      2  C   UNL     1       1.292  11.352  18.896  0.00  0.00    +0.000 A 
ATOM      3  C   UNL     1       0.210  12.271  18.993  0.00  0.00    +0.000 A 
ATOM      4  C   UNL     1      -1.015  11.642  19.090  0.00  0.00    +0.000 A 
ATOM      5  S   UNL     1      -0.839   9.944  19.012  0.00  0.00    +0.000 S 
ENDROOT
BRANCH   1  11
ATOM      6  C   UNL     1       1.468   8.016  21.181  0.00  0.00    +0.000 C 
ATOM      7  N   UNL     1       1.874   7.927  19.797  0.00  0.00    +0.000 N 
ATOM      8  N   UNL     1       2.645   6.885  19.428  0.00  0.00    +0.000 NA
ATOM      9  C   UNL     1       3.007   7.169  18.171  0.00  0.00    +0.000 A 
ATOM     10  C   UNL     1       2.420   8.374  17.729  0.00  0.00    +0.000 A 
ATOM     11  C   UNL     1       1.670   8.846  18.791  0.00  0.00    +0.000 A 
BRANCH   9  12
ATOM     12  C   UNL     1       3.941   6.293  17.395  0.00  0.00    +0.000 A 
ATOM     13  C   UNL     1       4.841   6.764  16.460  0.00  0.00    +0.000 A 
ATOM     14  C   UNL     1       5.573   5.712  15.835  0.00  0.00    +0.000 A 
ATOM     15  C   UNL     1       5.206   4.475  16.316  0.00  0.00    +0.000 A 
ATOM     16  S   UNL     1       4.010   4.590  17.534  0.00  0.00    +0.000 S 
ENDBRANCH   9  12
ENDBRANCH   1  11
BRANCH   4  17
ATOM     17  C   UNL     1      -2.304  12.305  19.252  0.00  0.00    +0.000 C 
ATOM     18  O   UNL     1      -2.376  13.381  19.835  0.00  0.00    +0.000 OA
ATOM     19  N   UNL     1      -3.395  11.596  18.778  0.00  0.00    +0.000 N 
ATOM     20  H   UNL     1      -3.223  10.630  18.521  0.00  0.00    +0.000 HD
BRANCH  19  21
ATOM     21  C   UNL     1      -4.750  11.996  18.802  0.00  0.00    +0.000 A 
ATOM     22  C   UNL     1      -5.513  12.213  19.955  0.00  0.00    +0.000 A 
ATOM     23  F   UNL     1      -4.974  12.202  21.176  0.00  0.00    +0.000 F 
ATOM     24  C   UNL     1      -6.868  12.544  19.873  0.00  0.00    +0.000 A 
ATOM     25  C   UNL     1      -7.483  12.695  18.631  0.00  0.00    +0.000 A 
ATOM     26  C   UNL     1      -6.729  12.541  17.470  0.00  0.00    +0.000 A 
ATOM     27  C   UNL     1      -5.378  12.201  17.566  0.00  0.00    +0.000 A 
ATOM     28  F   UNL     1      -4.672  12.046  16.434  0.00  0.00    +0.000 F 
ENDBRANCH  19  21
ENDBRANCH   4  17
TORSDOF 4
ENDMDL
MODEL 6
REMARK VINA RESULT:      -7.3      3.593     10.308
REMARK  Name = 
REMARK  5 active torsions:
REMARK  status: ('A' for Active; 'I' for Inactive)
REMARK    1  A    between atoms: C_1  and  N_2
REMARK    2  A    between atoms: C_4  and  C_5
REMARK    3  A    between atoms: C_11  and  C_12
REMARK    4  A    between atoms: C_15  and  C_16
REMARK    5  A    between atoms: N_18  and  C_19
REMARK                            x       y       z     vdW  Elec       q    Type
REMARK                         _______ _______ _______ _____ _____    ______ ____
ROOT
ATOM      1  C   UNL     1       0.902   9.726  19.773  0.00  0.00    +0.000 A 
ATOM      2  C   UNL     1       1.184  10.125  18.482  0.00  0.00    +0.000 A 
ATOM      3  C   UNL     1       1.991   9.186  17.782  0.00  0.00    +0.000 A 
ATOM      4  C   UNL     1       2.277   8.065  18.537  0.00  0.00    +0.000 A 
ATOM      5  S   UNL     1       1.601   8.191  20.101  0.00  0.00    +0.000 S 
ENDROOT
BRANCH   1  11
ATOM      6  C   UNL     1       1.092   9.368  22.870  0.00  0.00    +0.000 C 
ATOM      7  N   UNL     1       0.256  10.288  22.134  0.00  0.00    +0.000 N 
ATOM      8  N   UNL     1      -0.593  11.068  22.831  0.00  0.00    +0.000 NA
ATOM      9  C   UNL     1      -1.347  11.657  21.894  0.00  0.00    +0.000 A 
ATOM     10  C   UNL     1      -0.937  11.281  20.597  0.00  0.00    +0.000 A 
ATOM     11  C   UNL     1       0.120  10.406  20.768  0.00  0.00    +0.000 A 
BRANCH   9  12
ATOM     12  C   UNL     1      -2.484  12.567  22.244  0.00  0.00    +0.000 A 
ATOM     13  C   UNL     1      -2.806  12.936  23.534  0.00  0.00    +0.000 A 
ATOM     14  C   UNL     1      -3.962  13.769  23.587  0.00  0.00    +0.000 A 
ATOM     15  C   UNL     1      -4.479  14.009  22.334  0.00  0.00    +0.000 A 
ATOM     16  S   UNL     1      -3.557  13.256  21.105  0.00  0.00    +0.000 S 
ENDBRANCH   9  12
ENDBRANCH   1  11
BRANCH   4  17
ATOM     17  C   UNL     1       3.038   6.905  18.086  0.00  0.00    +0.000 C 
ATOM     18  O   UNL     1       2.520   5.793  18.072  0.00  0.00    +0.000 OA
ATOM     19  N   UNL     1       4.362   7.156  17.768  0.00  0.00    +0.000 N 
ATOM     20  H   UNL     1       4.720   8.068  18.033  0.00  0.00    +0.000 HD
BRANCH  19  21
ATOM     21  C   UNL     1       5.321   6.227  17.307  0.00  0.00    +0.000 A 
ATOM     22  C   UNL     1       6.107   5.399  18.116  0.00  0.00    +0.000 A 
ATOM     23  F   UNL     1       5.914   5.306  19.434  0.00  0.00    +0.000 F 
ATOM     24  C   UNL     1       7.077   4.558  17.564  0.00  0.00    +0.000 A 
ATOM     25  C   UNL     1       7.261   4.505  16.184  0.00  0.00    +0.000 A 
ATOM     26  C   UNL     1       6.450   5.277  15.355  0.00  0.00    +0.000 A 
ATOM     27  C   UNL     1       5.491   6.120  15.919  0.00  0.00    +0.000 A 
ATOM     28  F   UNL     1       4.728   6.863  15.102  0.00  0.00    +0.000 F 
ENDBRANCH  19  21
ENDBRANCH   4  17
TORSDOF 4
ENDMDL
MODEL 7
REMARK VINA RESULT:      -7.3      4.330     10.591
REMARK  Name = 
REMARK  5 active torsions:
REMARK  status: ('A' for Active; 'I' for Inactive)
REMARK    1  A    between atoms: C_1  and  N_2
REMARK    2  A    between atoms: C_4  and  C_5
REMARK    3  A    between atoms: C_11  and  C_12
REMARK    4  A    between atoms: C_15  and  C_16
REMARK    5  A    between atoms: N_18  and  C_19
REMARK                            x       y       z     vdW  Elec       q    Type
REMARK                         _______ _______ _______ _____ _____    ______ ____
ROOT
ATOM      1  C   UNL     1       0.780  10.675  20.530  0.00  0.00    +0.000 A 
ATOM      2  C   UNL     1       0.997  10.531  19.175  0.00  0.00    +0.000 A 
ATOM      3  C   UNL     1       1.449   9.228  18.828  0.00  0.00    +0.000 A 
ATOM      4  C   UNL     1       1.528   8.385  19.919  0.00  0.00    +0.000 A 
ATOM      5  S   UNL     1       1.099   9.203  21.357  0.00  0.00    +0.000 S 
ENDROOT
BRANCH   1  11
ATOM      6  C   UNL     1       2.147  13.482  20.612  0.00  0.00    +0.000 C 
ATOM      7  N   UNL     1       0.899  13.087  21.222  0.00  0.00    +0.000 N 
ATOM      8  N   UNL     1       0.239  13.998  21.963  0.00  0.00    +0.000 NA
ATOM      9  C   UNL     1      -0.752  13.304  22.536  0.00  0.00    +0.000 A 
ATOM     10  C   UNL     1      -0.745  11.957  22.114  0.00  0.00    +0.000 A 
ATOM     11  C   UNL     1       0.323  11.836  21.243  0.00  0.00    +0.000 A 
BRANCH   9  12
ATOM     12  C   UNL     1      -1.699  13.930  23.514  0.00  0.00    +0.000 A 
ATOM     13  C   UNL     1      -3.005  13.520  23.691  0.00  0.00    +0.000 A 
ATOM     14  C   UNL     1      -3.698  14.318  24.648  0.00  0.00    +0.000 A 
ATOM     15  C   UNL     1      -2.894  15.306  25.171  0.00  0.00    +0.000 A 
ATOM     16  S   UNL     1      -1.309  15.249  24.530  0.00  0.00    +0.000 S 
ENDBRANCH   9  12
ENDBRANCH   1  11
BRANCH   4  17
ATOM     17  C   UNL     1       1.909   6.977  19.884  0.00  0.00    +0.000 C 
ATOM     18  O   UNL     1       1.656   6.245  20.835  0.00  0.00    +0.000 OA
ATOM     19  N   UNL     1       2.621   6.587  18.763  0.00  0.00    +0.000 N 
ATOM     20  H   UNL     1       2.953   7.334  18.162  0.00  0.00    +0.000 HD
BRANCH  19  21
ATOM     21  C   UNL     1       3.111   5.295  18.469  0.00  0.00    +0.000 A 
ATOM     22  C   UNL     1       4.357   4.789  18.856  0.00  0.00    +0.000 A 
ATOM     23  F   UNL     1       5.164   5.452  19.688  0.00  0.00    +0.000 F 
ATOM     24  C   UNL     1       4.777   3.518  18.458  0.00  0.00    +0.000 A 
ATOM     25  C   UNL     1       3.943   2.710  17.686  0.00  0.00    +0.000 A 
ATOM     26  C   UNL     1       2.675   3.169  17.338  0.00  0.00    +0.000 A 
ATOM     27  C   UNL     1       2.272   4.445  17.734  0.00  0.00    +0.000 A 
ATOM     28  F   UNL     1       1.050   4.873  17.378  0.00  0.00    +0.000 F 
ENDBRANCH  19  21
ENDBRANCH   4  17
TORSDOF 4
ENDMDL
MODEL 8
REMARK VINA RESULT:      -7.3      2.930      4.529
REMARK  Name = 
REMARK  5 active torsions:
REMARK  status: ('A' for Active; 'I' for Inactive)
REMARK    1  A    between atoms: C_1  and  N_2
REMARK    2  A    between atoms: C_4  and  C_5
REMARK    3  A    between atoms: C_11  and  C_12
REMARK    4  A    between atoms: C_15  and  C_16
REMARK    5  A    between atoms: N_18  and  C_19
REMARK                            x       y       z     vdW  Elec       q    Type
REMARK                         _______ _______ _______ _____ _____    ______ ____
ROOT
ATOM      1  C   UNL     1       1.658   8.342  19.503  0.00  0.00    +0.000 A 
ATOM      2  C   UNL     1       1.071   9.368  18.790  0.00  0.00    +0.000 A 
ATOM      3  C   UNL     1       0.396  10.300  19.627  0.00  0.00    +0.000 A 
ATOM      4  C   UNL     1       0.515   9.994  20.968  0.00  0.00    +0.000 A 
ATOM      5  S   UNL     1       1.405   8.552  21.190  0.00  0.00    +0.000 S 
ENDROOT
BRANCH   1  11
ATOM      6  C   UNL     1       1.677   5.431  20.633  0.00  0.00    +0.000 C 
ATOM      7  N   UNL     1       2.374   5.935  19.472  0.00  0.00    +0.000 N 
ATOM      8  N   UNL     1       3.176   5.089  18.797  0.00  0.00    +0.000 NA
ATOM      9  C   UNL     1       3.812   5.869  17.915  0.00  0.00    +0.000 A 
ATOM     10  C   UNL     1       3.372   7.206  18.002  0.00  0.00    +0.000 A 
ATOM     11  C   UNL     1       2.421   7.230  19.006  0.00  0.00    +0.000 A 
BRANCH   9  12
ATOM     12  C   UNL     1       4.869   5.333  16.997  0.00  0.00    +0.000 A 
ATOM     13  C   UNL     1       4.743   4.160  16.280  0.00  0.00    +0.000 A 
ATOM     14  C   UNL     1       5.914   3.860  15.524  0.00  0.00    +0.000 A 
ATOM     15  C   UNL     1       6.891   4.817  15.689  0.00  0.00    +0.000 A 
ATOM     16  S   UNL     1       6.383   6.080  16.725  0.00  0.00    +0.000 S 
ENDBRANCH   9  12
ENDBRANCH   1  11
BRANCH   4  17
ATOM     17  C   UNL     1      -0.021  10.780  22.073  0.00  0.00    +0.000 C 
ATOM     18  O   UNL     1      -0.010  10.330  23.214  0.00  0.00    +0.000 OA
ATOM     19  N   UNL     1      -0.588  11.991  21.714  0.00  0.00    +0.000 N 
ATOM     20  H   UNL     1      -0.729  12.141  20.721  0.00  0.00    +0.000 HD
BRANCH  19  21
ATOM     21  C   UNL     1      -1.176  12.947  22.573  0.00  0.00    +0.000 A 
ATOM     22  C   UNL     1      -2.371  12.778  23.282  0.00  0.00    +0.000 A 
ATOM     23  F   UNL     1      -3.011  11.607  23.325  0.00  0.00    +0.000 F 
ATOM     24  C   UNL     1      -2.904  13.812  24.056  0.00  0.00    +0.000 A 
ATOM     25  C   UNL     1      -2.236  15.030  24.162  0.00  0.00    +0.000 A 
ATOM     26  C   UNL     1      -1.016  15.201  23.512  0.00  0.00    +0.000 A 
ATOM     27  C   UNL     1      -0.498  14.163  22.734  0.00  0.00    +0.000 A 
ATOM     28  F   UNL     1       0.674  14.353  22.107  0.00  0.00    +0.000 F 
ENDBRANCH  19  21
ENDBRANCH   4  17
TORSDOF 4
ENDMDL
MODEL 9
REMARK VINA RESULT:      -7.2      4.757     10.455
REMARK  Name = 
REMARK  5 active torsions:
REMARK  status: ('A' for Active; 'I' for Inactive)
REMARK    1  A    between atoms: C_1  and  N_2
REMARK    2  A    between atoms: C_4  and  C_5
REMARK    3  A    between atoms: C_11  and  C_12
REMARK    4  A    between atoms: C_15  and  C_16
REMARK    5  A    between atoms: N_18  and  C_19
REMARK                            x       y       z     vdW  Elec       q    Type
REMARK                         _______ _______ _______ _____ _____    ______ ____
ROOT
ATOM      1  C   UNL     1       0.998  10.668  19.977  0.00  0.00    +0.000 A 
ATOM      2  C   UNL     1       1.321  10.758  18.638  0.00  0.00    +0.000 A 
ATOM      3  C   UNL     1       1.809   9.532  18.108  0.00  0.00    +0.000 A 
ATOM      4  C   UNL     1       1.809   8.513  19.041  0.00  0.00    +0.000 A 
ATOM      5  S   UNL     1       1.264   9.073  20.560  0.00  0.00    +0.000 S 
ENDROOT
BRANCH   1  11
ATOM      6  C   UNL     1       2.347  13.398  20.672  0.00  0.00    +0.000 C 
ATOM      7  N   UNL     1       1.050  12.917  21.092  0.00  0.00    +0.000 N 
ATOM      8  N   UNL     1       0.326  13.692  21.923  0.00  0.00    +0.000 NA
ATOM      9  C   UNL     1      -0.709  12.922  22.276  0.00  0.00    +0.000 A 
ATOM     10  C   UNL     1      -0.662  11.671  21.625  0.00  0.00    +0.000 A 
ATOM     11  C   UNL     1       0.477  11.690  20.842  0.00  0.00    +0.000 A 
BRANCH   9  12
ATOM     12  C   UNL     1      -1.740  13.378  23.264  0.00  0.00    +0.000 A 
ATOM     13  C   UNL     1      -2.940  12.730  23.478  0.00  0.00    +0.000 A 
ATOM     14  C   UNL     1      -3.754  13.403  24.437  0.00  0.00    +0.000 A 
ATOM     15  C   UNL     1      -3.144  14.539  24.921  0.00  0.00    +0.000 A 
ATOM     16  S   UNL     1      -1.590  14.771  24.244  0.00  0.00    +0.000 S 
ENDBRANCH   9  12
ENDBRANCH   1  11
BRANCH   4  17
ATOM     17  C   UNL     1       2.203   7.130  18.793  0.00  0.00    +0.000 C 
ATOM     18  O   UNL     1       2.119   6.657  17.665  0.00  0.00    +0.000 OA
ATOM     19  N   UNL     1       2.584   6.416  19.916  0.00  0.00    +0.000 N 
ATOM     20  H   UNL     1       2.398   6.857  20.810  0.00  0.00    +0.000 HD
BRANCH  19  21
ATOM     21  C   UNL     1       3.012   5.070  19.968  0.00  0.00    +0.000 A 
ATOM     22  C   UNL     1       2.284   4.006  20.512  0.00  0.00    +0.000 A 
ATOM     23  F   UNL     1       1.019   4.144  20.914  0.00  0.00    +0.000 F 
ATOM     24  C   UNL     1       2.824   2.719  20.575  0.00  0.00    +0.000 A 
ATOM     25  C   UNL     1       4.095   2.462  20.066  0.00  0.00    +0.000 A 
ATOM     26  C   UNL     1       4.815   3.493  19.467  0.00  0.00    +0.000 A 
ATOM     27  C   UNL     1       4.268   4.777  19.419  0.00  0.00    +0.000 A 
ATOM     28  F   UNL     1       4.983   5.759  18.848  0.00  0.00    +0.000 F 
ENDBRANCH  19  21
ENDBRANCH   4  17
TORSDOF 4
ENDMDL
