MODEL 1
REMARK VINA RESULT:      -6.6      0.000      0.000
REMARK  Name = 
REMARK  9 active torsions:
REMARK  status: ('A' for Active; 'I' for Inactive)
REMARK    1  A    between atoms: C_1  and  C_2
REMARK    2  A    between atoms: C_2  and  C_3
REMARK    3  A    between atoms: C_3  and  C_4
REMARK    4  A    between atoms: C_7  and  C_8
REMARK    5  A    between atoms: C_8  and  O_9
REMARK    6  A    between atoms: C_8  and  C_10
REMARK    7  A    between atoms: C_14  and  O_15
REMARK    8  A    between atoms: O_15  and  C_16
REMARK    9  A    between atoms: N_18  and  C_19
REMARK                            x       y       z     vdW  Elec       q    Type
REMARK                         _______ _______ _______ _____ _____    ______ ____
ROOT
ATOM      1  C   UNL     1       3.562   6.508  17.458  0.00  0.00    +0.000 C 
ENDROOT
BRANCH   1   5
ATOM      2  C   UNL     1       1.586   4.591  19.898  0.00  0.00    +0.000 A 
ATOM      3  N   UNL     1       1.692   5.717  20.583  0.00  0.00    +0.000 NA
ATOM      4  C   UNL     1       2.461   6.546  19.822  0.00  0.00    +0.000 A 
ATOM      5  C   UNL     1       2.823   5.949  18.632  0.00  0.00    +0.000 A 
ATOM      6  N   UNL     1       2.328   4.665  18.735  0.00  0.00    +0.000 N 
ATOM      7  C   UNL     1       2.532   3.572  17.811  0.00  0.00    +0.000 C 
BRANCH   2   8
ATOM      8  C   UNL     1       0.753   3.423  20.318  0.00  0.00    +0.000 C 
BRANCH   8  10
ATOM      9  C   UNL     1       2.853   2.542  21.480  0.00  0.00    +0.000 C 
ATOM     10  C   UNL     1       1.337   2.659  21.510  0.00  0.00    +0.000 C 
ENDBRANCH   8  10
ENDBRANCH   2   8
ENDBRANCH   1   5
BRANCH   1  11
ATOM     11  C   UNL     1       4.980   6.003  17.238  0.00  0.00    +0.000 A 
ATOM     12  C   UNL     1       5.845   5.732  18.310  0.00  0.00    +0.000 A 
ATOM     13  C   UNL     1       7.077   5.108  18.092  0.00  0.00    +0.000 A 
ATOM     14  C   UNL     1       7.452   4.733  16.805  0.00  0.00    +0.000 A 
ATOM     15  C   UNL     1       6.619   4.999  15.718  0.00  0.00    +0.000 A 
ATOM     16  C   UNL     1       5.397   5.642  15.938  0.00  0.00    +0.000 A 
BRANCH  15  17
ATOM     17  O   UNL     1       7.091   4.556  14.513  0.00  0.00    +0.000 OA
ATOM     18  C   UNL     1       6.168   3.880  13.668  0.00  0.00    +0.000 C 
ENDBRANCH  15  17
ENDBRANCH   1  11
BRANCH   1  19
ATOM     19  O   UNL     1       3.547   7.927  17.620  0.00  0.00    +0.000 OA
ATOM     20  H   UNL     1       3.259   8.309  16.774  0.00  0.00    +0.000 HD
ENDBRANCH   1  19
TORSDOF 6
ENDMDL
MODEL 2
REMARK VINA RESULT:      -6.5      2.689      6.394
REMARK  Name = 
REMARK  9 active torsions:
REMARK  status: ('A' for Active; 'I' for Inactive)
REMARK    1  A    between atoms: C_1  and  C_2
REMARK    2  A    between atoms: C_2  and  C_3
REMARK    3  A    between atoms: C_3  and  C_4
REMARK    4  A    between atoms: C_7  and  C_8
REMARK    5  A    between atoms: C_8  and  O_9
REMARK    6  A    between atoms: C_8  and  C_10
REMARK    7  A    between atoms: C_14  and  O_15
REMARK    8  A    between atoms: O_15  and  C_16
REMARK    9  A    between atoms: N_18  and  C_19
REMARK                            x       y       z     vdW  Elec       q    Type
REMARK                         _______ _______ _______ _____ _____    ______ ____
ROOT
ATOM      1  C   UNL     1       4.180   4.044  17.426  0.00  0.00    +0.000 C 
ENDROOT
BRANCH   1   5
ATOM      2  C   UNL     1       6.872   6.529  17.766  0.00  0.00    +0.000 A 
ATOM      3  N   UNL     1       7.285   5.674  18.686  0.00  0.00    +0.000 NA
ATOM      4  C   UNL     1       6.347   4.687  18.728  0.00  0.00    +0.000 A 
ATOM      5  C   UNL     1       5.343   4.903  17.806  0.00  0.00    +0.000 A 
ATOM      6  N   UNL     1       5.648   6.133  17.259  0.00  0.00    +0.000 N 
ATOM      7  C   UNL     1       4.853   6.897  16.324  0.00  0.00    +0.000 C 
BRANCH   2   8
ATOM      8  C   UNL     1       7.642   7.730  17.323  0.00  0.00    +0.000 C 
BRANCH   8  10
ATOM      9  C   UNL     1       8.675   9.874  18.258  0.00  0.00    +0.000 C 
ATOM     10  C   UNL     1       8.448   8.383  18.450  0.00  0.00    +0.000 C 
ENDBRANCH   8  10
ENDBRANCH   2   8
ENDBRANCH   1   5
BRANCH   1  11
ATOM     11  C   UNL     1       2.965   4.093  18.340  0.00  0.00    +0.000 A 
ATOM     12  C   UNL     1       2.166   2.962  18.573  0.00  0.00    +0.000 A 
ATOM     13  C   UNL     1       1.162   2.985  19.545  0.00  0.00    +0.000 A 
ATOM     14  C   UNL     1       0.954   4.132  20.308  0.00  0.00    +0.000 A 
ATOM     15  C   UNL     1       1.724   5.275  20.092  0.00  0.00    +0.000 A 
ATOM     16  C   UNL     1       2.713   5.254  19.104  0.00  0.00    +0.000 A 
BRANCH  15  17
ATOM     17  O   UNL     1       1.439   6.322  20.925  0.00  0.00    +0.000 OA
ATOM     18  C   UNL     1       1.719   7.628  20.438  0.00  0.00    +0.000 C 
ENDBRANCH  15  17
ENDBRANCH   1  11
BRANCH   1  19
ATOM     19  O   UNL     1       4.687   2.713  17.325  0.00  0.00    +0.000 OA
ATOM     20  H   UNL     1       4.372   2.350  16.480  0.00  0.00    +0.000 HD
ENDBRANCH   1  19
TORSDOF 6
ENDMDL
MODEL 3
REMARK VINA RESULT:      -6.5      2.051      3.200
REMARK  Name = 
REMARK  9 active torsions:
REMARK  status: ('A' for Active; 'I' for Inactive)
REMARK    1  A    between atoms: C_1  and  C_2
REMARK    2  A    between atoms: C_2  and  C_3
REMARK    3  A    between atoms: C_3  and  C_4
REMARK    4  A    between atoms: C_7  and  C_8
REMARK    5  A    between atoms: C_8  and  O_9
REMARK    6  A    between atoms: C_8  and  C_10
REMARK    7  A    between atoms: C_14  and  O_15
REMARK    8  A    between atoms: O_15  and  C_16
REMARK    9  A    between atoms: N_18  and  C_19
REMARK                            x       y       z     vdW  Elec       q    Type
REMARK                         _______ _______ _______ _____ _____    ______ ____
ROOT
ATOM      1  C   UNL     1       5.353   4.274  16.678  0.00  0.00    +0.000 C 
ENDROOT
BRANCH   1   5
ATOM      2  C   UNL     1       2.306   3.591  18.623  0.00  0.00    +0.000 A 
ATOM      3  N   UNL     1       2.626   2.342  18.328  0.00  0.00    +0.000 NA
ATOM      4  C   UNL     1       3.739   2.417  17.544  0.00  0.00    +0.000 A 
ATOM      5  C   UNL     1       4.143   3.725  17.363  0.00  0.00    +0.000 A 
ATOM      6  N   UNL     1       3.163   4.469  17.988  0.00  0.00    +0.000 N 
ATOM      7  C   UNL     1       3.029   5.909  17.995  0.00  0.00    +0.000 C 
BRANCH   2   8
ATOM      8  C   UNL     1       1.192   3.981  19.539  0.00  0.00    +0.000 C 
BRANCH   8  10
ATOM      9  C   UNL     1       2.275   3.156  21.703  0.00  0.00    +0.000 C 
ATOM     10  C   UNL     1       1.075   3.079  20.771  0.00  0.00    +0.000 C 
ENDBRANCH   8  10
ENDBRANCH   2   8
ENDBRANCH   1   5
BRANCH   1  11
ATOM     11  C   UNL     1       6.231   5.216  17.488  0.00  0.00    +0.000 A 
ATOM     12  C   UNL     1       6.903   4.791  18.645  0.00  0.00    +0.000 A 
ATOM     13  C   UNL     1       7.836   5.621  19.273  0.00  0.00    +0.000 A 
ATOM     14  C   UNL     1       8.120   6.878  18.745  0.00  0.00    +0.000 A 
ATOM     15  C   UNL     1       7.460   7.332  17.603  0.00  0.00    +0.000 A 
ATOM     16  C   UNL     1       6.513   6.507  16.991  0.00  0.00    +0.000 A 
BRANCH  15  17
ATOM     17  O   UNL     1       7.850   8.571  17.172  0.00  0.00    +0.000 OA
ATOM     18  C   UNL     1       8.405   9.447  18.144  0.00  0.00    +0.000 C 
ENDBRANCH  15  17
ENDBRANCH   1  11
BRANCH   1  19
ATOM     19  O   UNL     1       4.880   4.913  15.492  0.00  0.00    +0.000 OA
ATOM     20  H   UNL     1       5.598   5.482  15.167  0.00  0.00    +0.000 HD
ENDBRANCH   1  19
TORSDOF 6
ENDMDL
MODEL 4
REMARK VINA RESULT:      -6.5      2.169      3.907
REMARK  Name = 
REMARK  9 active torsions:
REMARK  status: ('A' for Active; 'I' for Inactive)
REMARK    1  A    between atoms: C_1  and  C_2
REMARK    2  A    between atoms: C_2  and  C_3
REMARK    3  A    between atoms: C_3  and  C_4
REMARK    4  A    between atoms: C_7  and  C_8
REMARK    5  A    between atoms: C_8  and  O_9
REMARK    6  A    between atoms: C_8  and  C_10
REMARK    7  A    between atoms: C_14  and  O_15
REMARK    8  A    between atoms: O_15  and  C_16
REMARK    9  A    between atoms: N_18  and  C_19
REMARK                            x       y       z     vdW  Elec       q    Type
REMARK                         _______ _______ _______ _____ _____    ______ ____
ROOT
ATOM      1  C   UNL     1       6.721   4.905  16.133  0.00  0.00    +0.000 C 
ENDROOT
BRANCH   1   5
ATOM      2  C   UNL     1       3.483   4.847  17.879  0.00  0.00    +0.000 A 
ATOM      3  N   UNL     1       3.673   3.542  17.789  0.00  0.00    +0.000 NA
ATOM      4  C   UNL     1       4.840   3.381  17.104  0.00  0.00    +0.000 A 
ATOM      5  C   UNL     1       5.409   4.596  16.779  0.00  0.00    +0.000 A 
ATOM      6  N   UNL     1       4.482   5.525  17.206  0.00  0.00    +0.000 N 
ATOM      7  C   UNL     1       4.520   6.956  17.001  0.00  0.00    +0.000 C 
BRANCH   2   8
ATOM      8  C   UNL     1       2.361   5.487  18.631  0.00  0.00    +0.000 C 
BRANCH   8  10
ATOM      9  C   UNL     1       1.072   4.097  20.347  0.00  0.00    +0.000 C 
ATOM     10  C   UNL     1       2.257   5.014  20.084  0.00  0.00    +0.000 C 
ENDBRANCH   8  10
ENDBRANCH   2   8
ENDBRANCH   1   5
BRANCH   1  11
ATOM     11  C   UNL     1       6.785   4.784  14.619  0.00  0.00    +0.000 A 
ATOM     12  C   UNL     1       7.751   5.464  13.861  0.00  0.00    +0.000 A 
ATOM     13  C   UNL     1       7.899   5.205  12.495  0.00  0.00    +0.000 A 
ATOM     14  C   UNL     1       7.096   4.252  11.874  0.00  0.00    +0.000 A 
ATOM     15  C   UNL     1       6.120   3.567  12.598  0.00  0.00    +0.000 A 
ATOM     16  C   UNL     1       5.961   3.846  13.959  0.00  0.00    +0.000 A 
BRANCH  15  17
ATOM     17  O   UNL     1       5.418   2.639  11.878  0.00  0.00    +0.000 OA
ATOM     18  C   UNL     1       4.202   3.071  11.283  0.00  0.00    +0.000 C 
ENDBRANCH  15  17
ENDBRANCH   1  11
BRANCH   1  19
ATOM     19  O   UNL     1       7.679   4.047  16.753  0.00  0.00    +0.000 OA
ATOM     20  H   UNL     1       7.913   4.448  17.607  0.00  0.00    +0.000 HD
ENDBRANCH   1  19
TORSDOF 6
ENDMDL
MODEL 5
REMARK VINA RESULT:      -6.5      2.659      6.401
REMARK  Name = 
REMARK  9 active torsions:
REMARK  status: ('A' for Active; 'I' for Inactive)
REMARK    1  A    between atoms: C_1  and  C_2
REMARK    2  A    between atoms: C_2  and  C_3
REMARK    3  A    between atoms: C_3  and  C_4
REMARK    4  A    between atoms: C_7  and  C_8
REMARK    5  A    between atoms: C_8  and  O_9
REMARK    6  A    between atoms: C_8  and  C_10
REMARK    7  A    between atoms: C_14  and  O_15
REMARK    8  A    between atoms: O_15  and  C_16
REMARK    9  A    between atoms: N_18  and  C_19
REMARK                            x       y       z     vdW  Elec       q    Type
REMARK                         _______ _______ _______ _____ _____    ______ ____
ROOT
ATOM      1  C   UNL     1       3.786   4.384  17.389  0.00  0.00    +0.000 C 
ENDROOT
BRANCH   1   5
ATOM      2  C   UNL     1       6.774   6.531  17.342  0.00  0.00    +0.000 A 
ATOM      3  N   UNL     1       6.389   6.714  16.090  0.00  0.00    +0.000 NA
ATOM      4  C   UNL     1       5.289   5.927  15.918  0.00  0.00    +0.000 A 
ATOM      5  C   UNL     1       4.958   5.260  17.080  0.00  0.00    +0.000 A 
ATOM      6  N   UNL     1       5.971   5.590  17.958  0.00  0.00    +0.000 N 
ATOM      7  C   UNL     1       6.183   5.063  19.287  0.00  0.00    +0.000 C 
BRANCH   2   8
ATOM      8  C   UNL     1       7.898   7.267  17.995  0.00  0.00    +0.000 C 
BRANCH   8  10
ATOM      9  C   UNL     1       8.733   9.597  18.639  0.00  0.00    +0.000 C 
ATOM     10  C   UNL     1       7.919   8.762  17.662  0.00  0.00    +0.000 C 
ENDBRANCH   8  10
ENDBRANCH   2   8
ENDBRANCH   1   5
BRANCH   1  11
ATOM     11  C   UNL     1       2.868   4.840  18.513  0.00  0.00    +0.000 A 
ATOM     12  C   UNL     1       2.243   3.925  19.375  0.00  0.00    +0.000 A 
ATOM     13  C   UNL     1       1.544   4.370  20.502  0.00  0.00    +0.000 A 
ATOM     14  C   UNL     1       1.476   5.731  20.789  0.00  0.00    +0.000 A 
ATOM     15  C   UNL     1       2.078   6.664  19.945  0.00  0.00    +0.000 A 
ATOM     16  C   UNL     1       2.757   6.216  18.808  0.00  0.00    +0.000 A 
BRANCH  15  17
ATOM     17  O   UNL     1       1.961   7.964  20.354  0.00  0.00    +0.000 OA
ATOM     18  C   UNL     1       0.813   8.298  21.123  0.00  0.00    +0.000 C 
ENDBRANCH  15  17
ENDBRANCH   1  11
BRANCH   1  19
ATOM     19  O   UNL     1       4.322   3.089  17.663  0.00  0.00    +0.000 OA
ATOM     20  H   UNL     1       3.788   2.704  18.378  0.00  0.00    +0.000 HD
ENDBRANCH   1  19
TORSDOF 6
ENDMDL
MODEL 6
REMARK VINA RESULT:      -6.4      1.094      2.107
REMARK  Name = 
REMARK  9 active torsions:
REMARK  status: ('A' for Active; 'I' for Inactive)
REMARK    1  A    between atoms: C_1  and  C_2
REMARK    2  A    between atoms: C_2  and  C_3
REMARK    3  A    between atoms: C_3  and  C_4
REMARK    4  A    between atoms: C_7  and  C_8
REMARK    5  A    between atoms: C_8  and  O_9
REMARK    6  A    between atoms: C_8  and  C_10
REMARK    7  A    between atoms: C_14  and  O_15
REMARK    8  A    between atoms: O_15  and  C_16
REMARK    9  A    between atoms: N_18  and  C_19
REMARK                            x       y       z     vdW  Elec       q    Type
REMARK                         _______ _______ _______ _____ _____    ______ ____
ROOT
ATOM      1  C   UNL     1       3.469   6.364  17.345  0.00  0.00    +0.000 C 
ENDROOT
BRANCH   1   5
ATOM      2  C   UNL     1       1.564   4.569  19.931  0.00  0.00    +0.000 A 
ATOM      3  N   UNL     1       1.790   5.686  20.602  0.00  0.00    +0.000 NA
ATOM      4  C   UNL     1       2.549   6.467  19.784  0.00  0.00    +0.000 A 
ATOM      5  C   UNL     1       2.786   5.851  18.572  0.00  0.00    +0.000 A 
ATOM      6  N   UNL     1       2.221   4.599  18.715  0.00  0.00    +0.000 N 
ATOM      7  C   UNL     1       2.289   3.497  17.782  0.00  0.00    +0.000 C 
BRANCH   2   8
ATOM      8  C   UNL     1       0.694   3.454  20.415  0.00  0.00    +0.000 C 
BRANCH   8  10
ATOM      9  C   UNL     1       2.825   2.521  21.477  0.00  0.00    +0.000 C 
ATOM     10  C   UNL     1       1.313   2.661  21.570  0.00  0.00    +0.000 C 
ENDBRANCH   8  10
ENDBRANCH   2   8
ENDBRANCH   1   5
BRANCH   1  11
ATOM     11  C   UNL     1       4.782   5.698  16.962  0.00  0.00    +0.000 A 
ATOM     12  C   UNL     1       5.161   5.526  15.622  0.00  0.00    +0.000 A 
ATOM     13  C   UNL     1       6.442   5.070  15.296  0.00  0.00    +0.000 A 
ATOM     14  C   UNL     1       7.364   4.798  16.304  0.00  0.00    +0.000 A 
ATOM     15  C   UNL     1       7.012   4.949  17.646  0.00  0.00    +0.000 A 
ATOM     16  C   UNL     1       5.723   5.385  17.966  0.00  0.00    +0.000 A 
BRANCH  15  17
ATOM     17  O   UNL     1       8.015   4.676  18.535  0.00  0.00    +0.000 OA
ATOM     18  C   UNL     1       8.141   5.546  19.652  0.00  0.00    +0.000 C 
ENDBRANCH  15  17
ENDBRANCH   1  11
BRANCH   1  19
ATOM     19  O   UNL     1       3.650   7.766  17.550  0.00  0.00    +0.000 OA
ATOM     20  H   UNL     1       4.293   8.071  16.889  0.00  0.00    +0.000 HD
ENDBRANCH   1  19
TORSDOF 6
ENDMDL
MODEL 7
REMARK VINA RESULT:      -6.3      2.123      2.976
REMARK  Name = 
REMARK  9 active torsions:
REMARK  status: ('A' for Active; 'I' for Inactive)
REMARK    1  A    between atoms: C_1  and  C_2
REMARK    2  A    between atoms: C_2  and  C_3
REMARK    3  A    between atoms: C_3  and  C_4
REMARK    4  A    between atoms: C_7  and  C_8
REMARK    5  A    between atoms: C_8  and  O_9
REMARK    6  A    between atoms: C_8  and  C_10
REMARK    7  A    between atoms: C_14  and  O_15
REMARK    8  A    between atoms: O_15  and  C_16
REMARK    9  A    between atoms: N_18  and  C_19
REMARK                            x       y       z     vdW  Elec       q    Type
REMARK                         _______ _______ _______ _____ _____    ______ ____
ROOT
ATOM      1  C   UNL     1       5.188   4.582  17.066  0.00  0.00    +0.000 C 
ENDROOT
BRANCH   1   5
ATOM      2  C   UNL     1       2.029   3.628  18.693  0.00  0.00    +0.000 A 
ATOM      3  N   UNL     1       1.674   4.833  18.281  0.00  0.00    +0.000 NA
ATOM      4  C   UNL     1       2.777   5.364  17.682  0.00  0.00    +0.000 A 
ATOM      5  C   UNL     1       3.834   4.476  17.691  0.00  0.00    +0.000 A 
ATOM      6  N   UNL     1       3.365   3.402  18.420  0.00  0.00    +0.000 N 
ATOM      7  C   UNL     1       4.111   2.237  18.841  0.00  0.00    +0.000 C 
BRANCH   2   8
ATOM      8  C   UNL     1       1.100   2.647  19.332  0.00  0.00    +0.000 C 
BRANCH   8  10
ATOM      9  C   UNL     1       2.040   2.815  21.704  0.00  0.00    +0.000 C 
ATOM     10  C   UNL     1       0.819   2.950  20.806  0.00  0.00    +0.000 C 
ENDBRANCH   8  10
ENDBRANCH   2   8
ENDBRANCH   1   5
BRANCH   1  11
ATOM     11  C   UNL     1       6.193   5.492  17.755  0.00  0.00    +0.000 A 
ATOM     12  C   UNL     1       6.992   5.042  18.818  0.00  0.00    +0.000 A 
ATOM     13  C   UNL     1       8.025   5.839  19.321  0.00  0.00    +0.000 A 
ATOM     14  C   UNL     1       8.282   7.087  18.758  0.00  0.00    +0.000 A 
ATOM     15  C   UNL     1       7.497   7.565  17.709  0.00  0.00    +0.000 A 
ATOM     16  C   UNL     1       6.452   6.773  17.223  0.00  0.00    +0.000 A 
BRANCH  15  17
ATOM     17  O   UNL     1       7.870   8.791  17.228  0.00  0.00    +0.000 OA
ATOM     18  C   UNL     1       8.527   9.666  18.135  0.00  0.00    +0.000 C 
ENDBRANCH  15  17
ENDBRANCH   1  11
BRANCH   1  19
ATOM     19  O   UNL     1       4.969   4.995  15.717  0.00  0.00    +0.000 OA
ATOM     20  H   UNL     1       4.770   5.946  15.737  0.00  0.00    +0.000 HD
ENDBRANCH   1  19
TORSDOF 6
ENDMDL
MODEL 8
REMARK VINA RESULT:      -6.3      2.870      6.314
REMARK  Name = 
REMARK  9 active torsions:
REMARK  status: ('A' for Active; 'I' for Inactive)
REMARK    1  A    between atoms: C_1  and  C_2
REMARK    2  A    between atoms: C_2  and  C_3
REMARK    3  A    between atoms: C_3  and  C_4
REMARK    4  A    between atoms: C_7  and  C_8
REMARK    5  A    between atoms: C_8  and  O_9
REMARK    6  A    between atoms: C_8  and  C_10
REMARK    7  A    between atoms: C_14  and  O_15
REMARK    8  A    between atoms: O_15  and  C_16
REMARK    9  A    between atoms: N_18  and  C_19
REMARK                            x       y       z     vdW  Elec       q    Type
REMARK                         _______ _______ _______ _____ _____    ______ ____
ROOT
ATOM      1  C   UNL     1       4.919   4.011  16.659  0.00  0.00    +0.000 C 
ENDROOT
BRANCH   1   5
ATOM      2  C   UNL     1       7.155   6.800  17.531  0.00  0.00    +0.000 A 
ATOM      3  N   UNL     1       7.850   5.820  18.084  0.00  0.00    +0.000 NA
ATOM      4  C   UNL     1       7.116   4.687  17.891  0.00  0.00    +0.000 A 
ATOM      5  C   UNL     1       5.959   4.947  17.185  0.00  0.00    +0.000 A 
ATOM      6  N   UNL     1       5.956   6.320  17.039  0.00  0.00    +0.000 N 
ATOM      7  C   UNL     1       4.904   7.138  16.479  0.00  0.00    +0.000 C 
BRANCH   2   8
ATOM      8  C   UNL     1       7.626   8.215  17.430  0.00  0.00    +0.000 C 
BRANCH   8  10
ATOM      9  C   UNL     1       8.940  10.097  18.555  0.00  0.00    +0.000 C 
ATOM     10  C   UNL     1       8.565   8.623  18.569  0.00  0.00    +0.000 C 
ENDBRANCH   8  10
ENDBRANCH   2   8
ENDBRANCH   1   5
BRANCH   1  11
ATOM     11  C   UNL     1       3.830   3.580  17.630  0.00  0.00    +0.000 A 
ATOM     12  C   UNL     1       3.512   2.228  17.833  0.00  0.00    +0.000 A 
ATOM     13  C   UNL     1       2.633   1.848  18.851  0.00  0.00    +0.000 A 
ATOM     14  C   UNL     1       2.074   2.811  19.688  0.00  0.00    +0.000 A 
ATOM     15  C   UNL     1       2.362   4.163  19.503  0.00  0.00    +0.000 A 
ATOM     16  C   UNL     1       3.226   4.540  18.470  0.00  0.00    +0.000 A 
BRANCH  15  17
ATOM     17  O   UNL     1       1.772   5.003  20.407  0.00  0.00    +0.000 OA
ATOM     18  C   UNL     1       2.020   6.394  20.253  0.00  0.00    +0.000 C 
ENDBRANCH  15  17
ENDBRANCH   1  11
BRANCH   1  19
ATOM     19  O   UNL     1       5.626   2.879  16.152  0.00  0.00    +0.000 OA
ATOM     20  H   UNL     1       5.083   2.095  16.338  0.00  0.00    +0.000 HD
ENDBRANCH   1  19
TORSDOF 6
ENDMDL
MODEL 9
REMARK VINA RESULT:      -6.2      2.400      5.900
REMARK  Name = 
REMARK  9 active torsions:
REMARK  status: ('A' for Active; 'I' for Inactive)
REMARK    1  A    between atoms: C_1  and  C_2
REMARK    2  A    between atoms: C_2  and  C_3
REMARK    3  A    between atoms: C_3  and  C_4
REMARK    4  A    between atoms: C_7  and  C_8
REMARK    5  A    between atoms: C_8  and  O_9
REMARK    6  A    between atoms: C_8  and  C_10
REMARK    7  A    between atoms: C_14  and  O_15
REMARK    8  A    between atoms: O_15  and  C_16
REMARK    9  A    between atoms: N_18  and  C_19
REMARK                            x       y       z     vdW  Elec       q    Type
REMARK                         _______ _______ _______ _____ _____    ______ ____
ROOT
ATOM      1  C   UNL     1       2.922   3.744  17.246  0.00  0.00    +0.000 C 
ENDROOT
BRANCH   1   5
ATOM      2  C   UNL     1       6.523   4.496  17.304  0.00  0.00    +0.000 A 
ATOM      3  N   UNL     1       6.342   4.534  15.995  0.00  0.00    +0.000 NA
ATOM      4  C   UNL     1       5.032   4.219  15.789  0.00  0.00    +0.000 A 
ATOM      5  C   UNL     1       4.370   4.005  16.980  0.00  0.00    +0.000 A 
ATOM      6  N   UNL     1       5.360   4.101  17.937  0.00  0.00    +0.000 N 
ATOM      7  C   UNL     1       5.236   3.838  19.354  0.00  0.00    +0.000 C 
BRANCH   2   8
ATOM      8  C   UNL     1       7.799   4.862  17.990  0.00  0.00    +0.000 C 
BRANCH   8  10
ATOM      9  C   UNL     1       7.517   7.365  17.552  0.00  0.00    +0.000 C 
ATOM     10  C   UNL     1       7.787   6.276  18.579  0.00  0.00    +0.000 C 
ENDBRANCH   8  10
ENDBRANCH   2   8
ENDBRANCH   1   5
BRANCH   1  11
ATOM     11  C   UNL     1       2.280   4.531  18.379  0.00  0.00    +0.000 A 
ATOM     12  C   UNL     1       1.722   3.895  19.499  0.00  0.00    +0.000 A 
ATOM     13  C   UNL     1       1.294   4.639  20.602  0.00  0.00    +0.000 A 
ATOM     14  C   UNL     1       1.435   6.024  20.608  0.00  0.00    +0.000 A 
ATOM     15  C   UNL     1       1.976   6.685  19.505  0.00  0.00    +0.000 A 
ATOM     16  C   UNL     1       2.383   5.939  18.395  0.00  0.00    +0.000 A 
BRANCH  15  17
ATOM     17  O   UNL     1       2.085   8.042  19.648  0.00  0.00    +0.000 OA
ATOM     18  C   UNL     1       1.883   8.831  18.483  0.00  0.00    +0.000 C 
ENDBRANCH  15  17
ENDBRANCH   1  11
BRANCH   1  19
ATOM     19  O   UNL     1       2.809   2.339  17.475  0.00  0.00    +0.000 OA
ATOM     20  H   UNL     1       2.138   2.214  18.167  0.00  0.00    +0.000 HD
ENDBRANCH   1  19
TORSDOF 6
ENDMDL
