MODEL 1
REMARK VINA RESULT:      -7.1      0.000      0.000
REMARK  Name = 
REMARK  6 active torsions:
REMARK  status: ('A' for Active; 'I' for Inactive)
REMARK    1  A    between atoms: C_1  and  C_2
REMARK    2  A    between atoms: C_6  and  N_7
REMARK    3  A    between atoms: C_8  and  S_9
REMARK    4  A    between atoms: N_10  and  C_11
REMARK    5  A    between atoms: C_11  and  C_12
REMARK    6  A    between atoms: C_12  and  C_13
REMARK                            x       y       z     vdW  Elec       q    Type
REMARK                         _______ _______ _______ _____ _____    ______ ____
ROOT
ATOM      1  N   UNL     1       5.826   6.535  17.987  0.00  0.00    +0.000 NA
ATOM      2  C   UNL     1       6.752   6.394  17.091  0.00  0.00    +0.000 C 
ATOM      3  N   UNL     1       7.734   7.344  16.923  0.00  0.00    +0.000 N 
ATOM      4  H   UNL     1       8.487   7.030  16.320  0.00  0.00    +0.000 HD
ENDROOT
BRANCH   1  10
ATOM      5  C   UNL     1       4.403   2.435  20.048  0.00  0.00    +0.000 C 
ATOM      6  C   UNL     1       4.065   3.659  19.249  0.00  0.00    +0.000 A 
ATOM      7  C   UNL     1       2.797   3.813  18.698  0.00  0.00    +0.000 A 
ATOM      8  C   UNL     1       2.550   4.915  17.894  0.00  0.00    +0.000 A 
ATOM      9  C   UNL     1       3.575   5.830  17.677  0.00  0.00    +0.000 A 
ATOM     10  C   UNL     1       4.808   5.631  18.284  0.00  0.00    +0.000 A 
ATOM     11  N   UNL     1       5.070   4.554  19.053  0.00  0.00    +0.000 NA
ENDBRANCH   1  10
BRANCH   2  12
ATOM     12  S   UNL     1       6.993   5.032  16.019  0.00  0.00    +0.000 S 
ATOM     13  H   UNL     1       8.294   4.874  16.308  0.00  0.00    +0.000 HD
ENDBRANCH   2  12
BRANCH   3  14
ATOM     14  C   UNL     1       8.129   8.169  18.055  0.00  0.00    +0.000 C 
BRANCH  14  15
ATOM     15  C   UNL     1       8.078   9.664  17.734  0.00  0.00    +0.000 C 
BRANCH  15  16
ATOM     16  C   UNL     1       9.176  10.387  18.478  0.00  0.00    +0.000 A 
ATOM     17  C   UNL     1       9.203  10.401  19.880  0.00  0.00    +0.000 A 
ATOM     18  C   UNL     1      10.157  11.156  20.562  0.00  0.00    +0.000 A 
ATOM     19  C   UNL     1      11.096  11.904  19.854  0.00  0.00    +0.000 A 
ATOM     20  C   UNL     1      11.087  11.888  18.459  0.00  0.00    +0.000 A 
ATOM     21  C   UNL     1      10.133  11.134  17.775  0.00  0.00    +0.000 A 
ENDBRANCH  15  16
ENDBRANCH  14  15
ENDBRANCH   3  14
TORSDOF 5
ENDMDL
MODEL 2
REMARK VINA RESULT:      -7.0      0.111      1.113
REMARK  Name = 
REMARK  6 active torsions:
REMARK  status: ('A' for Active; 'I' for Inactive)
REMARK    1  A    between atoms: C_1  and  C_2
REMARK    2  A    between atoms: C_6  and  N_7
REMARK    3  A    between atoms: C_8  and  S_9
REMARK    4  A    between atoms: N_10  and  C_11
REMARK    5  A    between atoms: C_11  and  C_12
REMARK    6  A    between atoms: C_12  and  C_13
REMARK                            x       y       z     vdW  Elec       q    Type
REMARK                         _______ _______ _______ _____ _____    ______ ____
ROOT
ATOM      1  N   UNL     1       5.846   6.519  17.993  0.00  0.00    +0.000 NA
ATOM      2  C   UNL     1       6.797   6.333  17.132  0.00  0.00    +0.000 C 
ATOM      3  N   UNL     1       7.800   7.261  16.966  0.00  0.00    +0.000 N 
ATOM      4  H   UNL     1       8.566   6.915  16.398  0.00  0.00    +0.000 HD
ENDROOT
BRANCH   1  10
ATOM      5  C   UNL     1       4.319   2.421  19.984  0.00  0.00    +0.000 C 
ATOM      6  C   UNL     1       4.010   3.673  19.217  0.00  0.00    +0.000 A 
ATOM      7  C   UNL     1       2.740   3.880  18.690  0.00  0.00    +0.000 A 
ATOM      8  C   UNL     1       2.517   5.008  17.914  0.00  0.00    +0.000 A 
ATOM      9  C   UNL     1       3.568   5.894  17.702  0.00  0.00    +0.000 A 
ATOM     10  C   UNL     1       4.803   5.641  18.285  0.00  0.00    +0.000 A 
ATOM     11  N   UNL     1       5.040   4.539  19.026  0.00  0.00    +0.000 NA
ENDBRANCH   1  10
BRANCH   2  12
ATOM     12  S   UNL     1       7.048   4.933  16.112  0.00  0.00    +0.000 S 
ATOM     13  H   UNL     1       5.749   4.610  16.021  0.00  0.00    +0.000 HD
ENDBRANCH   2  12
BRANCH   3  14
ATOM     14  C   UNL     1       8.173   8.115  18.084  0.00  0.00    +0.000 C 
BRANCH  14  15
ATOM     15  C   UNL     1       7.992   9.602  17.768  0.00  0.00    +0.000 C 
BRANCH  15  16
ATOM     16  C   UNL     1       9.069  10.408  18.456  0.00  0.00    +0.000 A 
ATOM     17  C   UNL     1      10.057  11.067  17.711  0.00  0.00    +0.000 A 
ATOM     18  C   UNL     1      11.108  11.721  18.353  0.00  0.00    +0.000 A 
ATOM     19  C   UNL     1      11.184  11.728  19.745  0.00  0.00    +0.000 A 
ATOM     20  C   UNL     1      10.200  11.087  20.497  0.00  0.00    +0.000 A 
ATOM     21  C   UNL     1       9.148  10.431  19.856  0.00  0.00    +0.000 A 
ENDBRANCH  15  16
ENDBRANCH  14  15
ENDBRANCH   3  14
TORSDOF 5
ENDMDL
MODEL 3
REMARK VINA RESULT:      -7.0      5.205      7.857
REMARK  Name = 
REMARK  6 active torsions:
REMARK  status: ('A' for Active; 'I' for Inactive)
REMARK    1  A    between atoms: C_1  and  C_2
REMARK    2  A    between atoms: C_6  and  N_7
REMARK    3  A    between atoms: C_8  and  S_9
REMARK    4  A    between atoms: N_10  and  C_11
REMARK    5  A    between atoms: C_11  and  C_12
REMARK    6  A    between atoms: C_12  and  C_13
REMARK                            x       y       z     vdW  Elec       q    Type
REMARK                         _______ _______ _______ _____ _____    ______ ____
ROOT
ATOM      1  N   UNL     1       3.083   5.881  18.245  0.00  0.00    +0.000 NA
ATOM      2  C   UNL     1       4.255   5.694  17.724  0.00  0.00    +0.000 C 
ATOM      3  N   UNL     1       4.677   4.439  17.347  0.00  0.00    +0.000 N 
ATOM      4  H   UNL     1       5.529   4.459  16.797  0.00  0.00    +0.000 HD
ENDROOT
BRANCH   1  10
ATOM      5  C   UNL     1       1.119   8.654  21.641  0.00  0.00    +0.000 C 
ATOM      6  C   UNL     1       1.560   8.480  20.218  0.00  0.00    +0.000 A 
ATOM      7  C   UNL     1       1.286   9.460  19.271  0.00  0.00    +0.000 A 
ATOM      8  C   UNL     1       1.633   9.224  17.949  0.00  0.00    +0.000 A 
ATOM      9  C   UNL     1       2.252   8.022  17.623  0.00  0.00    +0.000 A 
ATOM     10  C   UNL     1       2.523   7.100  18.625  0.00  0.00    +0.000 A 
ATOM     11  N   UNL     1       2.175   7.306  19.912  0.00  0.00    +0.000 NA
ENDBRANCH   1  10
BRANCH   2  12
ATOM     12  S   UNL     1       5.452   6.912  17.338  0.00  0.00    +0.000 S 
ATOM     13  H   UNL     1       4.854   7.897  18.025  0.00  0.00    +0.000 HD
ENDBRANCH   2  12
BRANCH   3  14
ATOM     14  C   UNL     1       3.691   3.443  16.956  0.00  0.00    +0.000 C 
BRANCH  14  15
ATOM     15  C   UNL     1       3.716   2.210  17.862  0.00  0.00    +0.000 C 
BRANCH  15  16
ATOM     16  C   UNL     1       2.836   2.441  19.068  0.00  0.00    +0.000 A 
ATOM     17  C   UNL     1       1.465   2.694  18.917  0.00  0.00    +0.000 A 
ATOM     18  C   UNL     1       0.678   3.010  20.025  0.00  0.00    +0.000 A 
ATOM     19  C   UNL     1       1.249   3.075  21.295  0.00  0.00    +0.000 A 
ATOM     20  C   UNL     1       2.610   2.813  21.459  0.00  0.00    +0.000 A 
ATOM     21  C   UNL     1       3.398   2.498  20.352  0.00  0.00    +0.000 A 
ENDBRANCH  15  16
ENDBRANCH  14  15
ENDBRANCH   3  14
TORSDOF 5
ENDMDL
MODEL 4
REMARK VINA RESULT:      -7.0      2.385      3.467
REMARK  Name = 
REMARK  6 active torsions:
REMARK  status: ('A' for Active; 'I' for Inactive)
REMARK    1  A    between atoms: C_1  and  C_2
REMARK    2  A    between atoms: C_6  and  N_7
REMARK    3  A    between atoms: C_8  and  S_9
REMARK    4  A    between atoms: N_10  and  C_11
REMARK    5  A    between atoms: C_11  and  C_12
REMARK    6  A    between atoms: C_12  and  C_13
REMARK                            x       y       z     vdW  Elec       q    Type
REMARK                         _______ _______ _______ _____ _____    ______ ____
ROOT
ATOM      1  N   UNL     1       7.634   6.936  17.007  0.00  0.00    +0.000 NA
ATOM      2  C   UNL     1       7.948   6.878  18.263  0.00  0.00    +0.000 C 
ATOM      3  N   UNL     1       8.647   7.896  18.872  0.00  0.00    +0.000 N 
ATOM      4  H   UNL     1       8.670   7.807  19.883  0.00  0.00    +0.000 HD
ENDROOT
BRANCH   1  10
ATOM      5  C   UNL     1       7.093   4.225  13.077  0.00  0.00    +0.000 C 
ATOM      6  C   UNL     1       6.575   4.677  14.411  0.00  0.00    +0.000 A 
ATOM      7  C   UNL     1       5.319   4.274  14.851  0.00  0.00    +0.000 A 
ATOM      8  C   UNL     1       4.840   4.782  16.050  0.00  0.00    +0.000 A 
ATOM      9  C   UNL     1       5.637   5.663  16.771  0.00  0.00    +0.000 A 
ATOM     10  C   UNL     1       6.896   5.998  16.288  0.00  0.00    +0.000 A 
ATOM     11  N   UNL     1       7.368   5.528  15.115  0.00  0.00    +0.000 NA
ENDBRANCH   1  10
BRANCH   2  12
ATOM     12  S   UNL     1       7.523   5.623  19.407  0.00  0.00    +0.000 S 
ATOM     13  H   UNL     1       6.621   6.361  20.073  0.00  0.00    +0.000 HD
ENDBRANCH   2  12
BRANCH   3  14
ATOM     14  C   UNL     1       8.528   9.250  18.355  0.00  0.00    +0.000 C 
BRANCH  14  15
ATOM     15  C   UNL     1       9.136  10.290  19.300  0.00  0.00    +0.000 C 
BRANCH  15  16
ATOM     16  C   UNL     1       9.715  11.434  18.501  0.00  0.00    +0.000 A 
ATOM     17  C   UNL     1      11.032  11.380  18.023  0.00  0.00    +0.000 A 
ATOM     18  C   UNL     1      11.596  12.481  17.377  0.00  0.00    +0.000 A 
ATOM     19  C   UNL     1      10.852  13.646  17.199  0.00  0.00    +0.000 A 
ATOM     20  C   UNL     1       9.536  13.707  17.659  0.00  0.00    +0.000 A 
ATOM     21  C   UNL     1       8.971  12.608  18.305  0.00  0.00    +0.000 A 
ENDBRANCH  15  16
ENDBRANCH  14  15
ENDBRANCH   3  14
TORSDOF 5
ENDMDL
MODEL 5
REMARK VINA RESULT:      -6.9      5.189      7.842
REMARK  Name = 
REMARK  6 active torsions:
REMARK  status: ('A' for Active; 'I' for Inactive)
REMARK    1  A    between atoms: C_1  and  C_2
REMARK    2  A    between atoms: C_6  and  N_7
REMARK    3  A    between atoms: C_8  and  S_9
REMARK    4  A    between atoms: N_10  and  C_11
REMARK    5  A    between atoms: C_11  and  C_12
REMARK    6  A    between atoms: C_12  and  C_13
REMARK                            x       y       z     vdW  Elec       q    Type
REMARK                         _______ _______ _______ _____ _____    ______ ____
ROOT
ATOM      1  N   UNL     1       3.051   5.931  18.241  0.00  0.00    +0.000 NA
ATOM      2  C   UNL     1       4.236   5.742  17.751  0.00  0.00    +0.000 C 
ATOM      3  N   UNL     1       4.658   4.490  17.367  0.00  0.00    +0.000 N 
ATOM      4  H   UNL     1       5.526   4.511  16.842  0.00  0.00    +0.000 HD
ENDROOT
BRANCH   1  10
ATOM      5  C   UNL     1       1.099   8.699  21.649  0.00  0.00    +0.000 C 
ATOM      6  C   UNL     1       1.533   8.526  20.224  0.00  0.00    +0.000 A 
ATOM      7  C   UNL     1       1.253   9.507  19.279  0.00  0.00    +0.000 A 
ATOM      8  C   UNL     1       1.594   9.272  17.955  0.00  0.00    +0.000 A 
ATOM      9  C   UNL     1       2.213   8.072  17.625  0.00  0.00    +0.000 A 
ATOM     10  C   UNL     1       2.491   7.149  18.625  0.00  0.00    +0.000 A 
ATOM     11  N   UNL     1       2.149   7.354  19.913  0.00  0.00    +0.000 NA
ENDBRANCH   1  10
BRANCH   2  12
ATOM     12  S   UNL     1       5.454   6.955  17.421  0.00  0.00    +0.000 S 
ATOM     13  H   UNL     1       5.907   6.374  16.300  0.00  0.00    +0.000 HD
ENDBRANCH   2  12
BRANCH   3  14
ATOM     14  C   UNL     1       3.675   3.510  16.930  0.00  0.00    +0.000 C 
BRANCH  14  15
ATOM     15  C   UNL     1       3.634   2.280  17.841  0.00  0.00    +0.000 C 
BRANCH  15  16
ATOM     16  C   UNL     1       2.829   2.587  19.083  0.00  0.00    +0.000 A 
ATOM     17  C   UNL     1       3.420   2.529  20.353  0.00  0.00    +0.000 A 
ATOM     18  C   UNL     1       2.649   2.710  21.501  0.00  0.00    +0.000 A 
ATOM     19  C   UNL     1       1.281   2.954  21.395  0.00  0.00    +0.000 A 
ATOM     20  C   UNL     1       0.684   3.027  20.136  0.00  0.00    +0.000 A 
ATOM     21  C   UNL     1       1.453   2.845  18.987  0.00  0.00    +0.000 A 
ENDBRANCH  15  16
ENDBRANCH  14  15
ENDBRANCH   3  14
TORSDOF 5
ENDMDL
MODEL 6
REMARK VINA RESULT:      -6.7      4.811      8.082
REMARK  Name = 
REMARK  6 active torsions:
REMARK  status: ('A' for Active; 'I' for Inactive)
REMARK    1  A    between atoms: C_1  and  C_2
REMARK    2  A    between atoms: C_6  and  N_7
REMARK    3  A    between atoms: C_8  and  S_9
REMARK    4  A    between atoms: N_10  and  C_11
REMARK    5  A    between atoms: C_11  and  C_12
REMARK    6  A    between atoms: C_12  and  C_13
REMARK                            x       y       z     vdW  Elec       q    Type
REMARK                         _______ _______ _______ _____ _____    ______ ____
ROOT
ATOM      1  N   UNL     1       5.331   5.195  15.682  0.00  0.00    +0.000 NA
ATOM      2  C   UNL     1       5.775   5.160  16.899  0.00  0.00    +0.000 C 
ATOM      3  N   UNL     1       4.977   5.518  17.961  0.00  0.00    +0.000 N 
ATOM      4  H   UNL     1       5.384   5.276  18.859  0.00  0.00    +0.000 HD
ENDROOT
BRANCH   1  10
ATOM      5  C   UNL     1       8.871   5.986  12.531  0.00  0.00    +0.000 C 
ATOM      6  C   UNL     1       7.703   5.155  12.973  0.00  0.00    +0.000 A 
ATOM      7  C   UNL     1       7.235   4.118  12.173  0.00  0.00    +0.000 A 
ATOM      8  C   UNL     1       6.101   3.429  12.575  0.00  0.00    +0.000 A 
ATOM      9  C   UNL     1       5.481   3.793  13.765  0.00  0.00    +0.000 A 
ATOM     10  C   UNL     1       6.021   4.818  14.530  0.00  0.00    +0.000 A 
ATOM     11  N   UNL     1       7.112   5.511  14.145  0.00  0.00    +0.000 NA
ENDBRANCH   1  10
BRANCH   2  12
ATOM     12  S   UNL     1       7.349   4.617  17.439  0.00  0.00    +0.000 S 
ATOM     13  H   UNL     1       7.886   5.844  17.514  0.00  0.00    +0.000 HD
ENDBRANCH   2  12
BRANCH   3  14
ATOM     14  C   UNL     1       3.534   5.358  17.854  0.00  0.00    +0.000 C 
BRANCH  14  15
ATOM     15  C   UNL     1       3.116   3.890  17.749  0.00  0.00    +0.000 C 
BRANCH  15  16
ATOM     16  C   UNL     1       2.571   3.415  19.076  0.00  0.00    +0.000 A 
ATOM     17  C   UNL     1       1.207   3.534  19.376  0.00  0.00    +0.000 A 
ATOM     18  C   UNL     1       0.728   3.192  20.640  0.00  0.00    +0.000 A 
ATOM     19  C   UNL     1       1.603   2.724  21.618  0.00  0.00    +0.000 A 
ATOM     20  C   UNL     1       2.961   2.589  21.328  0.00  0.00    +0.000 A 
ATOM     21  C   UNL     1       3.442   2.932  20.064  0.00  0.00    +0.000 A 
ENDBRANCH  15  16
ENDBRANCH  14  15
ENDBRANCH   3  14
TORSDOF 5
ENDMDL
MODEL 7
REMARK VINA RESULT:      -6.7      3.182      7.856
REMARK  Name = 
REMARK  6 active torsions:
REMARK  status: ('A' for Active; 'I' for Inactive)
REMARK    1  A    between atoms: C_1  and  C_2
REMARK    2  A    between atoms: C_6  and  N_7
REMARK    3  A    between atoms: C_8  and  S_9
REMARK    4  A    between atoms: N_10  and  C_11
REMARK    5  A    between atoms: C_11  and  C_12
REMARK    6  A    between atoms: C_12  and  C_13
REMARK                            x       y       z     vdW  Elec       q    Type
REMARK                         _______ _______ _______ _____ _____    ______ ____
ROOT
ATOM      1  N   UNL     1       3.626   5.534  18.644  0.00  0.00    +0.000 NA
ATOM      2  C   UNL     1       2.714   6.443  18.793  0.00  0.00    +0.000 C 
ATOM      3  N   UNL     1       1.671   6.271  19.674  0.00  0.00    +0.000 N 
ATOM      4  H   UNL     1       1.137   7.121  19.822  0.00  0.00    +0.000 HD
ENDROOT
BRANCH   1  10
ATOM      5  C   UNL     1       7.798   7.630  17.511  0.00  0.00    +0.000 C 
ATOM      6  C   UNL     1       6.763   6.583  17.222  0.00  0.00    +0.000 A 
ATOM      7  C   UNL     1       6.857   5.798  16.078  0.00  0.00    +0.000 A 
ATOM      8  C   UNL     1       5.835   4.901  15.801  0.00  0.00    +0.000 A 
ATOM      9  C   UNL     1       4.763   4.812  16.683  0.00  0.00    +0.000 A 
ATOM     10  C   UNL     1       4.750   5.605  17.823  0.00  0.00    +0.000 A 
ATOM     11  N   UNL     1       5.725   6.495  18.097  0.00  0.00    +0.000 NA
ENDBRANCH   1  10
BRANCH   2  12
ATOM     12  S   UNL     1       2.646   8.013  18.022  0.00  0.00    +0.000 S 
ATOM     13  H   UNL     1       3.700   7.805  17.219  0.00  0.00    +0.000 HD
ENDBRANCH   2  12
BRANCH   3  14
ATOM     14  C   UNL     1       1.857   5.426  20.843  0.00  0.00    +0.000 C 
BRANCH  14  15
ATOM     15  C   UNL     1       1.142   4.079  20.709  0.00  0.00    +0.000 C 
BRANCH  15  16
ATOM     16  C   UNL     1       1.973   3.137  19.869  0.00  0.00    +0.000 A 
ATOM     17  C   UNL     1       3.219   2.682  20.323  0.00  0.00    +0.000 A 
ATOM     18  C   UNL     1       4.028   1.898  19.501  0.00  0.00    +0.000 A 
ATOM     19  C   UNL     1       3.602   1.557  18.218  0.00  0.00    +0.000 A 
ATOM     20  C   UNL     1       2.359   1.994  17.760  0.00  0.00    +0.000 A 
ATOM     21  C   UNL     1       1.549   2.779  18.581  0.00  0.00    +0.000 A 
ENDBRANCH  15  16
ENDBRANCH  14  15
ENDBRANCH   3  14
TORSDOF 5
ENDMDL
MODEL 8
REMARK VINA RESULT:      -6.7      1.303      1.778
REMARK  Name = 
REMARK  6 active torsions:
REMARK  status: ('A' for Active; 'I' for Inactive)
REMARK    1  A    between atoms: C_1  and  C_2
REMARK    2  A    between atoms: C_6  and  N_7
REMARK    3  A    between atoms: C_8  and  S_9
REMARK    4  A    between atoms: N_10  and  C_11
REMARK    5  A    between atoms: C_11  and  C_12
REMARK    6  A    between atoms: C_12  and  C_13
REMARK                            x       y       z     vdW  Elec       q    Type
REMARK                         _______ _______ _______ _____ _____    ______ ____
ROOT
ATOM      1  N   UNL     1       5.504   6.658  17.513  0.00  0.00    +0.000 NA
ATOM      2  C   UNL     1       6.709   6.267  17.240  0.00  0.00    +0.000 C 
ATOM      3  N   UNL     1       7.717   7.173  17.003  0.00  0.00    +0.000 N 
ATOM      4  H   UNL     1       8.636   6.743  16.979  0.00  0.00    +0.000 HD
ENDROOT
BRANCH   1  10
ATOM      5  C   UNL     1       2.045   5.340  20.577  0.00  0.00    +0.000 C 
ATOM      6  C   UNL     1       2.730   5.160  19.255  0.00  0.00    +0.000 A 
ATOM      7  C   UNL     1       2.371   4.114  18.412  0.00  0.00    +0.000 A 
ATOM      8  C   UNL     1       3.086   3.930  17.238  0.00  0.00    +0.000 A 
ATOM      9  C   UNL     1       4.126   4.804  16.942  0.00  0.00    +0.000 A 
ATOM     10  C   UNL     1       4.411   5.847  17.814  0.00  0.00    +0.000 A 
ATOM     11  N   UNL     1       3.738   6.028  18.969  0.00  0.00    +0.000 NA
ENDBRANCH   1  10
BRANCH   2  12
ATOM     12  S   UNL     1       7.305   4.622  17.187  0.00  0.00    +0.000 S 
ATOM     13  H   UNL     1       8.316   4.882  16.344  0.00  0.00    +0.000 HD
ENDBRANCH   2  12
BRANCH   3  14
ATOM     14  C   UNL     1       7.649   8.491  17.616  0.00  0.00    +0.000 C 
BRANCH  14  15
ATOM     15  C   UNL     1       8.719   8.691  18.692  0.00  0.00    +0.000 C 
BRANCH  15  16
ATOM     16  C   UNL     1       8.983  10.166  18.886  0.00  0.00    +0.000 A 
ATOM     17  C   UNL     1       8.821  11.069  17.826  0.00  0.00    +0.000 A 
ATOM     18  C   UNL     1       9.167  12.412  17.982  0.00  0.00    +0.000 A 
ATOM     19  C   UNL     1       9.675  12.868  19.197  0.00  0.00    +0.000 A 
ATOM     20  C   UNL     1       9.829  11.981  20.263  0.00  0.00    +0.000 A 
ATOM     21  C   UNL     1       9.485  10.638  20.109  0.00  0.00    +0.000 A 
ENDBRANCH  15  16
ENDBRANCH  14  15
ENDBRANCH   3  14
TORSDOF 5
ENDMDL
MODEL 9
REMARK VINA RESULT:      -6.7      1.290      1.466
REMARK  Name = 
REMARK  6 active torsions:
REMARK  status: ('A' for Active; 'I' for Inactive)
REMARK    1  A    between atoms: C_1  and  C_2
REMARK    2  A    between atoms: C_6  and  N_7
REMARK    3  A    between atoms: C_8  and  S_9
REMARK    4  A    between atoms: N_10  and  C_11
REMARK    5  A    between atoms: C_11  and  C_12
REMARK    6  A    between atoms: C_12  and  C_13
REMARK                            x       y       z     vdW  Elec       q    Type
REMARK                         _______ _______ _______ _____ _____    ______ ____
ROOT
ATOM      1  N   UNL     1       5.507   6.589  17.531  0.00  0.00    +0.000 NA
ATOM      2  C   UNL     1       6.713   6.222  17.230  0.00  0.00    +0.000 C 
ATOM      3  N   UNL     1       7.702   7.149  16.989  0.00  0.00    +0.000 N 
ATOM      4  H   UNL     1       8.627   6.735  16.942  0.00  0.00    +0.000 HD
ENDROOT
BRANCH   1  10
ATOM      5  C   UNL     1       2.179   5.109  20.664  0.00  0.00    +0.000 C 
ATOM      6  C   UNL     1       2.815   4.991  19.311  0.00  0.00    +0.000 A 
ATOM      7  C   UNL     1       2.433   3.977  18.440  0.00  0.00    +0.000 A 
ATOM      8  C   UNL     1       3.105   3.849  17.233  0.00  0.00    +0.000 A 
ATOM      9  C   UNL     1       4.126   4.745  16.935  0.00  0.00    +0.000 A 
ATOM     10  C   UNL     1       4.434   5.754  17.838  0.00  0.00    +0.000 A 
ATOM     11  N   UNL     1       3.803   5.880  19.024  0.00  0.00    +0.000 NA
ENDBRANCH   1  10
BRANCH   2  12
ATOM     12  S   UNL     1       7.336   4.589  17.139  0.00  0.00    +0.000 S 
ATOM     13  H   UNL     1       8.607   4.924  17.408  0.00  0.00    +0.000 HD
ENDBRANCH   2  12
BRANCH   3  14
ATOM     14  C   UNL     1       7.623   8.456  17.624  0.00  0.00    +0.000 C 
BRANCH  14  15
ATOM     15  C   UNL     1       8.673   8.636  18.723  0.00  0.00    +0.000 C 
BRANCH  15  16
ATOM     16  C   UNL     1       9.021  10.099  18.868  0.00  0.00    +0.000 A 
ATOM     17  C   UNL     1       9.538  10.598  20.072  0.00  0.00    +0.000 A 
ATOM     18  C   UNL     1       9.758  11.965  20.234  0.00  0.00    +0.000 A 
ATOM     19  C   UNL     1       9.468  12.850  19.197  0.00  0.00    +0.000 A 
ATOM     20  C   UNL     1       8.965  12.364  17.990  0.00  0.00    +0.000 A 
ATOM     21  C   UNL     1       8.743  10.997  17.826  0.00  0.00    +0.000 A 
ENDBRANCH  15  16
ENDBRANCH  14  15
ENDBRANCH   3  14
TORSDOF 5
ENDMDL
