MODEL 1
REMARK VINA RESULT:      -8.1      0.000      0.000
REMARK  Name = 
REMARK  7 active torsions:
REMARK  status: ('A' for Active; 'I' for Inactive)
REMARK    1  A    between atoms: C_1  and  C_2
REMARK    2  A    between atoms: C_2  and  O_3
REMARK    3  A    between atoms: C_2  and  C_4
REMARK    4  A    between atoms: C_7  and  C_8
REMARK    5  A    between atoms: C_10  and  N_11
REMARK    6  A    between atoms: C_12  and  C_14
REMARK    7  A    between atoms: C_16  and  C_17
REMARK                            x       y       z     vdW  Elec       q    Type
REMARK                         _______ _______ _______ _____ _____    ______ ____
ROOT
ATOM      1  N   UNL     1       3.369   7.016  18.571  0.00  0.00    +0.000 N 
ATOM      2  C   UNL     1       2.571   8.096  18.232  0.00  0.00    +0.000 C 
ATOM      3  O   UNL     1       2.574   8.577  17.102  0.00  0.00    +0.000 OA
ATOM      4  H   UNL     1       3.258   6.643  19.508  0.00  0.00    +0.000 HD
ENDROOT
BRANCH   2   5
ATOM      5  C   UNL     1       1.737   8.591  19.296  0.00  0.00    +0.000 A 
ATOM      6  C   UNL     1       0.994   9.741  19.420  0.00  0.00    +0.000 A 
ATOM      7  C   UNL     1       0.365   9.640  20.688  0.00  0.00    +0.000 A 
ATOM      8  N   UNL     1       0.751   8.511  21.305  0.00  0.00    +0.000 NA
ATOM      9  O   UNL     1       1.594   7.859  20.433  0.00  0.00    +0.000 OA
BRANCH   7  10
ATOM     10  C   UNL     1      -0.586  10.561  21.296  0.00  0.00    +0.000 A 
ATOM     11  C   UNL     1      -0.801  10.555  22.684  0.00  0.00    +0.000 A 
ATOM     12  C   UNL     1      -1.685  11.465  23.273  0.00  0.00    +0.000 A 
ATOM     13  C   UNL     1      -2.368  12.384  22.479  0.00  0.00    +0.000 A 
ATOM     14  C   UNL     1      -2.172  12.396  21.100  0.00  0.00    +0.000 A 
ATOM     15  C   UNL     1      -1.286  11.493  20.511  0.00  0.00    +0.000 A 
ENDBRANCH   7  10
ENDBRANCH   2   5
BRANCH   1  18
ATOM     16  C   UNL     1       5.489   4.623  17.295  0.00  0.00    +0.000 C 
ATOM     17  C   UNL     1       5.627   5.908  18.163  0.00  0.00    +0.000 C 
ATOM     18  C   UNL     1       4.281   6.398  17.601  0.00  0.00    +0.000 C 
ATOM     19  C   UNL     1       3.962   4.919  17.298  0.00  0.00    +0.000 C 
BRANCH  16  23
ATOM     20  C   UNL     1       6.616   4.250  13.884  0.00  0.00    +0.000 A 
ATOM     21  N   UNL     1       7.500   5.131  14.299  0.00  0.00    +0.000 NA
ATOM     22  N   UNL     1       7.172   5.418  15.610  0.00  0.00    +0.000 NA
ATOM     23  C   UNL     1       6.102   4.704  15.899  0.00  0.00    +0.000 A 
ATOM     24  O   UNL     1       5.671   3.961  14.830  0.00  0.00    +0.000 OA
BRANCH  20  26
ATOM     25  C   UNL     1       5.060   3.436  12.120  0.00  0.00    +0.000 C 
ATOM     26  C   UNL     1       6.504   3.541  12.579  0.00  0.00    +0.000 C 
BRANCH  26  27
ATOM     27  O   UNL     1       7.259   4.248  11.591  0.00  0.00    +0.000 OA
ATOM     28  H   UNL     1       7.548   5.087  11.995  0.00  0.00    +0.000 HD
ENDBRANCH  26  27
ENDBRANCH  20  26
ENDBRANCH  16  23
ENDBRANCH   1  18
TORSDOF 6
ENDMDL
MODEL 2
REMARK VINA RESULT:      -7.9      2.595      3.525
REMARK  Name = 
REMARK  7 active torsions:
REMARK  status: ('A' for Active; 'I' for Inactive)
REMARK    1  A    between atoms: C_1  and  C_2
REMARK    2  A    between atoms: C_2  and  O_3
REMARK    3  A    between atoms: C_2  and  C_4
REMARK    4  A    between atoms: C_7  and  C_8
REMARK    5  A    between atoms: C_10  and  N_11
REMARK    6  A    between atoms: C_12  and  C_14
REMARK    7  A    between atoms: C_16  and  C_17
REMARK                            x       y       z     vdW  Elec       q    Type
REMARK                         _______ _______ _______ _____ _____    ______ ____
ROOT
ATOM      1  N   UNL     1       1.619   8.180  19.040  0.00  0.00    +0.000 N 
ATOM      2  C   UNL     1       1.451   9.276  18.211  0.00  0.00    +0.000 C 
ATOM      3  O   UNL     1       2.199   9.493  17.261  0.00  0.00    +0.000 OA
ATOM      4  H   UNL     1       0.920   8.043  19.763  0.00  0.00    +0.000 HD
ENDROOT
BRANCH   2   5
ATOM      5  C   UNL     1       0.333  10.121  18.542  0.00  0.00    +0.000 A 
ATOM      6  C   UNL     1      -0.934  10.214  18.015  0.00  0.00    +0.000 A 
ATOM      7  C   UNL     1      -1.583  11.210  18.789  0.00  0.00    +0.000 A 
ATOM      8  N   UNL     1      -0.733  11.714  19.698  0.00  0.00    +0.000 NA
ATOM      9  O   UNL     1       0.451  11.027  19.548  0.00  0.00    +0.000 OA
BRANCH   7  10
ATOM     10  C   UNL     1      -2.966  11.662  18.695  0.00  0.00    +0.000 A 
ATOM     11  C   UNL     1      -3.728  11.400  17.545  0.00  0.00    +0.000 A 
ATOM     12  C   UNL     1      -5.066  11.799  17.470  0.00  0.00    +0.000 A 
ATOM     13  C   UNL     1      -5.652  12.471  18.541  0.00  0.00    +0.000 A 
ATOM     14  C   UNL     1      -4.906  12.747  19.684  0.00  0.00    +0.000 A 
ATOM     15  C   UNL     1      -3.572  12.343  19.764  0.00  0.00    +0.000 A 
ENDBRANCH   7  10
ENDBRANCH   2   5
BRANCH   1  18
ATOM     16  C   UNL     1       3.156   5.103  18.911  0.00  0.00    +0.000 C 
ATOM     17  C   UNL     1       2.940   6.214  19.980  0.00  0.00    +0.000 C 
ATOM     18  C   UNL     1       2.717   7.225  18.841  0.00  0.00    +0.000 C 
ATOM     19  C   UNL     1       2.341   6.019  17.954  0.00  0.00    +0.000 C 
BRANCH  16  23
ATOM     20  C   UNL     1       6.305   4.591  17.218  0.00  0.00    +0.000 A 
ATOM     21  N   UNL     1       6.682   4.307  18.446  0.00  0.00    +0.000 NA
ATOM     22  N   UNL     1       5.570   4.502  19.244  0.00  0.00    +0.000 NA
ATOM     23  C   UNL     1       4.598   4.904  18.451  0.00  0.00    +0.000 A 
ATOM     24  O   UNL     1       5.008   5.018  17.147  0.00  0.00    +0.000 OA
BRANCH  20  26
ATOM     25  C   UNL     1       6.190   4.002  14.803  0.00  0.00    +0.000 C 
ATOM     26  C   UNL     1       7.061   4.510  15.938  0.00  0.00    +0.000 C 
BRANCH  26  27
ATOM     27  O   UNL     1       7.560   5.808  15.600  0.00  0.00    +0.000 OA
ATOM     28  H   UNL     1       7.809   6.247  16.435  0.00  0.00    +0.000 HD
ENDBRANCH  26  27
ENDBRANCH  20  26
ENDBRANCH  16  23
ENDBRANCH   1  18
TORSDOF 6
ENDMDL
MODEL 3
REMARK VINA RESULT:      -7.8      0.953      1.427
REMARK  Name = 
REMARK  7 active torsions:
REMARK  status: ('A' for Active; 'I' for Inactive)
REMARK    1  A    between atoms: C_1  and  C_2
REMARK    2  A    between atoms: C_2  and  O_3
REMARK    3  A    between atoms: C_2  and  C_4
REMARK    4  A    between atoms: C_7  and  C_8
REMARK    5  A    between atoms: C_10  and  N_11
REMARK    6  A    between atoms: C_12  and  C_14
REMARK    7  A    between atoms: C_16  and  C_17
REMARK                            x       y       z     vdW  Elec       q    Type
REMARK                         _______ _______ _______ _____ _____    ______ ____
ROOT
ATOM      1  N   UNL     1       3.750   6.590  18.014  0.00  0.00    +0.000 N 
ATOM      2  C   UNL     1       2.940   7.699  17.835  0.00  0.00    +0.000 C 
ATOM      3  O   UNL     1       2.863   8.280  16.756  0.00  0.00    +0.000 OA
ATOM      4  H   UNL     1       3.707   6.135  18.920  0.00  0.00    +0.000 HD
ENDROOT
BRANCH   2   5
ATOM      5  C   UNL     1       2.194   8.099  19.000  0.00  0.00    +0.000 A 
ATOM      6  C   UNL     1       1.526   9.260  19.307  0.00  0.00    +0.000 A 
ATOM      7  C   UNL     1       0.960   9.033  20.589  0.00  0.00    +0.000 A 
ATOM      8  N   UNL     1       1.313   7.818  21.039  0.00  0.00    +0.000 NA
ATOM      9  O   UNL     1       2.069   7.238  20.045  0.00  0.00    +0.000 OA
BRANCH   7  10
ATOM     10  C   UNL     1       0.098   9.918  21.361  0.00  0.00    +0.000 A 
ATOM     11  C   UNL     1      -0.435  11.082  20.782  0.00  0.00    +0.000 A 
ATOM     12  C   UNL     1      -1.294  11.911  21.509  0.00  0.00    +0.000 A 
ATOM     13  C   UNL     1      -1.622  11.590  22.825  0.00  0.00    +0.000 A 
ATOM     14  C   UNL     1      -1.094  10.444  23.415  0.00  0.00    +0.000 A 
ATOM     15  C   UNL     1      -0.242   9.611  22.689  0.00  0.00    +0.000 A 
ENDBRANCH   7  10
ENDBRANCH   2   5
BRANCH   1  18
ATOM     16  C   UNL     1       6.523   5.172  16.547  0.00  0.00    +0.000 C 
ATOM     17  C   UNL     1       6.014   6.613  16.845  0.00  0.00    +0.000 C 
ATOM     18  C   UNL     1       4.580   6.060  16.925  0.00  0.00    +0.000 C 
ATOM     19  C   UNL     1       5.215   4.687  17.236  0.00  0.00    +0.000 C 
BRANCH  16  23
ATOM     20  C   UNL     1       6.333   3.735  13.240  0.00  0.00    +0.000 A 
ATOM     21  N   UNL     1       7.311   4.591  13.037  0.00  0.00    +0.000 NA
ATOM     22  N   UNL     1       7.481   5.269  14.229  0.00  0.00    +0.000 NA
ATOM     23  C   UNL     1       6.587   4.790  15.071  0.00  0.00    +0.000 A 
ATOM     24  O   UNL     1       5.795   3.830  14.493  0.00  0.00    +0.000 OA
BRANCH  20  26
ATOM     25  C   UNL     1       4.636   3.278  11.477  0.00  0.00    +0.000 C 
ATOM     26  C   UNL     1       5.753   2.706  12.332  0.00  0.00    +0.000 C 
BRANCH  26  27
ATOM     27  O   UNL     1       6.781   2.195  11.479  0.00  0.00    +0.000 OA
ATOM     28  H   UNL     1       6.454   2.262  10.563  0.00  0.00    +0.000 HD
ENDBRANCH  26  27
ENDBRANCH  20  26
ENDBRANCH  16  23
ENDBRANCH   1  18
TORSDOF 6
ENDMDL
MODEL 4
REMARK VINA RESULT:      -7.8      3.562      4.400
REMARK  Name = 
REMARK  7 active torsions:
REMARK  status: ('A' for Active; 'I' for Inactive)
REMARK    1  A    between atoms: C_1  and  C_2
REMARK    2  A    between atoms: C_2  and  O_3
REMARK    3  A    between atoms: C_2  and  C_4
REMARK    4  A    between atoms: C_7  and  C_8
REMARK    5  A    between atoms: C_10  and  N_11
REMARK    6  A    between atoms: C_12  and  C_14
REMARK    7  A    between atoms: C_16  and  C_17
REMARK                            x       y       z     vdW  Elec       q    Type
REMARK                         _______ _______ _______ _____ _____    ______ ____
ROOT
ATOM      1  N   UNL     1       1.425   8.229  18.932  0.00  0.00    +0.000 N 
ATOM      2  C   UNL     1       1.419   9.394  18.183  0.00  0.00    +0.000 C 
ATOM      3  O   UNL     1       2.317   9.662  17.390  0.00  0.00    +0.000 OA
ATOM      4  H   UNL     1       0.613   8.059  19.517  0.00  0.00    +0.000 HD
ENDROOT
BRANCH   2   5
ATOM      5  C   UNL     1       0.279  10.247  18.399  0.00  0.00    +0.000 A 
ATOM      6  C   UNL     1      -1.028  10.154  17.984  0.00  0.00    +0.000 A 
ATOM      7  C   UNL     1      -1.677  11.283  18.548  0.00  0.00    +0.000 A 
ATOM      8  N   UNL     1      -0.791  12.033  19.224  0.00  0.00    +0.000 NA
ATOM      9  O   UNL     1       0.419  11.380  19.138  0.00  0.00    +0.000 OA
BRANCH   7  10
ATOM     10  C   UNL     1      -3.088  11.640  18.474  0.00  0.00    +0.000 A 
ATOM     11  C   UNL     1      -3.729  12.251  19.564  0.00  0.00    +0.000 A 
ATOM     12  C   UNL     1      -5.072  12.629  19.481  0.00  0.00    +0.000 A 
ATOM     13  C   UNL     1      -5.790  12.392  18.310  0.00  0.00    +0.000 A 
ATOM     14  C   UNL     1      -5.170  11.778  17.225  0.00  0.00    +0.000 A 
ATOM     15  C   UNL     1      -3.827  11.406  17.303  0.00  0.00    +0.000 A 
ENDBRANCH   7  10
ENDBRANCH   2   5
BRANCH   1  18
ATOM     16  C   UNL     1       2.920   5.129  18.961  0.00  0.00    +0.000 C 
ATOM     17  C   UNL     1       2.636   6.257  19.996  0.00  0.00    +0.000 C 
ATOM     18  C   UNL     1       2.520   7.257  18.833  0.00  0.00    +0.000 C 
ATOM     19  C   UNL     1       2.200   6.045  17.931  0.00  0.00    +0.000 C 
BRANCH  16  23
ATOM     20  C   UNL     1       6.508   5.115  18.552  0.00  0.00    +0.000 A 
ATOM     21  N   UNL     1       6.179   4.372  17.517  0.00  0.00    +0.000 NA
ATOM     22  N   UNL     1       4.804   4.244  17.558  0.00  0.00    +0.000 NA
ATOM     23  C   UNL     1       4.391   4.904  18.621  0.00  0.00    +0.000 A 
ATOM     24  O   UNL     1       5.433   5.457  19.323  0.00  0.00    +0.000 OA
BRANCH  20  26
ATOM     25  C   UNL     1       8.053   7.067  18.553  0.00  0.00    +0.000 C 
ATOM     26  C   UNL     1       7.839   5.626  18.983  0.00  0.00    +0.000 C 
BRANCH  26  27
ATOM     27  O   UNL     1       7.938   5.543  20.408  0.00  0.00    +0.000 OA
ATOM     28  H   UNL     1       7.632   6.397  20.768  0.00  0.00    +0.000 HD
ENDBRANCH  26  27
ENDBRANCH  20  26
ENDBRANCH  16  23
ENDBRANCH   1  18
TORSDOF 6
ENDMDL
MODEL 5
REMARK VINA RESULT:      -7.7      1.254      1.392
REMARK  Name = 
REMARK  7 active torsions:
REMARK  status: ('A' for Active; 'I' for Inactive)
REMARK    1  A    between atoms: C_1  and  C_2
REMARK    2  A    between atoms: C_2  and  O_3
REMARK    3  A    between atoms: C_2  and  C_4
REMARK    4  A    between atoms: C_7  and  C_8
REMARK    5  A    between atoms: C_10  and  N_11
REMARK    6  A    between atoms: C_12  and  C_14
REMARK    7  A    between atoms: C_16  and  C_17
REMARK                            x       y       z     vdW  Elec       q    Type
REMARK                         _______ _______ _______ _____ _____    ______ ____
ROOT
ATOM      1  N   UNL     1       3.963   7.092  17.981  0.00  0.00    +0.000 N 
ATOM      2  C   UNL     1       2.710   6.614  18.327  0.00  0.00    +0.000 C 
ATOM      3  O   UNL     1       2.212   5.637  17.772  0.00  0.00    +0.000 OA
ATOM      4  H   UNL     1       4.324   7.865  18.531  0.00  0.00    +0.000 HD
ENDROOT
BRANCH   2   5
ATOM      5  C   UNL     1       2.056   7.337  19.386  0.00  0.00    +0.000 A 
ATOM      6  C   UNL     1       1.622   8.638  19.476  0.00  0.00    +0.000 A 
ATOM      7  C   UNL     1       1.026   8.740  20.760  0.00  0.00    +0.000 A 
ATOM      8  N   UNL     1       1.141   7.574  21.415  0.00  0.00    +0.000 NA
ATOM      9  O   UNL     1       1.771   6.703  20.554  0.00  0.00    +0.000 OA
BRANCH   7  10
ATOM     10  C   UNL     1       0.349   9.889  21.348  0.00  0.00    +0.000 A 
ATOM     11  C   UNL     1      -0.433   9.743  22.505  0.00  0.00    +0.000 A 
ATOM     12  C   UNL     1      -1.051  10.851  23.093  0.00  0.00    +0.000 A 
ATOM     13  C   UNL     1      -0.900  12.115  22.525  0.00  0.00    +0.000 A 
ATOM     14  C   UNL     1      -0.135  12.273  21.372  0.00  0.00    +0.000 A 
ATOM     15  C   UNL     1       0.488  11.169  20.787  0.00  0.00    +0.000 A 
ENDBRANCH   7  10
ENDBRANCH   2   5
BRANCH   1  18
ATOM     16  C   UNL     1       6.616   5.403  16.583  0.00  0.00    +0.000 C 
ATOM     17  C   UNL     1       6.236   6.889  16.849  0.00  0.00    +0.000 C 
ATOM     18  C   UNL     1       4.757   6.470  16.914  0.00  0.00    +0.000 C 
ATOM     19  C   UNL     1       5.259   5.051  17.258  0.00  0.00    +0.000 C 
BRANCH  16  23
ATOM     20  C   UNL     1       6.401   3.895  13.308  0.00  0.00    +0.000 A 
ATOM     21  N   UNL     1       7.370   4.755  13.077  0.00  0.00    +0.000 NA
ATOM     22  N   UNL     1       7.548   5.459  14.253  0.00  0.00    +0.000 NA
ATOM     23  C   UNL     1       6.667   4.990  15.114  0.00  0.00    +0.000 A 
ATOM     24  O   UNL     1       5.877   4.012  14.566  0.00  0.00    +0.000 OA
BRANCH  20  26
ATOM     25  C   UNL     1       4.701   3.392  11.561  0.00  0.00    +0.000 C 
ATOM     26  C   UNL     1       5.820   2.843  12.429  0.00  0.00    +0.000 C 
BRANCH  26  27
ATOM     27  O   UNL     1       6.846   2.309  11.588  0.00  0.00    +0.000 OA
ATOM     28  H   UNL     1       6.446   1.588  11.068  0.00  0.00    +0.000 HD
ENDBRANCH  26  27
ENDBRANCH  20  26
ENDBRANCH  16  23
ENDBRANCH   1  18
TORSDOF 6
ENDMDL
MODEL 6
REMARK VINA RESULT:      -7.7      2.546      3.299
REMARK  Name = 
REMARK  7 active torsions:
REMARK  status: ('A' for Active; 'I' for Inactive)
REMARK    1  A    between atoms: C_1  and  C_2
REMARK    2  A    between atoms: C_2  and  O_3
REMARK    3  A    between atoms: C_2  and  C_4
REMARK    4  A    between atoms: C_7  and  C_8
REMARK    5  A    between atoms: C_10  and  N_11
REMARK    6  A    between atoms: C_12  and  C_14
REMARK    7  A    between atoms: C_16  and  C_17
REMARK                            x       y       z     vdW  Elec       q    Type
REMARK                         _______ _______ _______ _____ _____    ______ ____
ROOT
ATOM      1  N   UNL     1       1.985   7.511  20.312  0.00  0.00    +0.000 N 
ATOM      2  C   UNL     1       1.642   8.754  19.807  0.00  0.00    +0.000 C 
ATOM      3  O   UNL     1       1.990   9.118  18.686  0.00  0.00    +0.000 OA
ATOM      4  H   UNL     1       1.604   7.267  21.220  0.00  0.00    +0.000 HD
ENDROOT
BRANCH   2   5
ATOM      5  C   UNL     1       0.840   9.565  20.685  0.00  0.00    +0.000 A 
ATOM      6  C   UNL     1      -0.258  10.359  20.453  0.00  0.00    +0.000 A 
ATOM      7  C   UNL     1      -0.619  10.873  21.725  0.00  0.00    +0.000 A 
ATOM      8  N   UNL     1       0.248  10.443  22.658  0.00  0.00    +0.000 NA
ATOM      9  O   UNL     1       1.144   9.624  22.009  0.00  0.00    +0.000 OA
BRANCH   7  10
ATOM     10  C   UNL     1      -1.753  11.723  22.064  0.00  0.00    +0.000 A 
ATOM     11  C   UNL     1      -2.396  12.485  21.074  0.00  0.00    +0.000 A 
ATOM     12  C   UNL     1      -3.508  13.271  21.390  0.00  0.00    +0.000 A 
ATOM     13  C   UNL     1      -3.983  13.310  22.700  0.00  0.00    +0.000 A 
ATOM     14  C   UNL     1      -3.349  12.567  23.693  0.00  0.00    +0.000 A 
ATOM     15  C   UNL     1      -2.243  11.777  23.379  0.00  0.00    +0.000 A 
ENDBRANCH   7  10
ENDBRANCH   2   5
BRANCH   1  18
ATOM     16  C   UNL     1       2.742   4.586  18.664  0.00  0.00    +0.000 C 
ATOM     17  C   UNL     1       2.894   5.140  20.111  0.00  0.00    +0.000 C 
ATOM     18  C   UNL     1       2.805   6.567  19.543  0.00  0.00    +0.000 C 
ATOM     19  C   UNL     1       2.076   5.951  18.330  0.00  0.00    +0.000 C 
BRANCH  16  23
ATOM     20  C   UNL     1       6.063   4.549  17.246  0.00  0.00    +0.000 A 
ATOM     21  N   UNL     1       5.428   3.889  16.302  0.00  0.00    +0.000 NA
ATOM     22  N   UNL     1       4.117   3.779  16.725  0.00  0.00    +0.000 NA
ATOM     23  C   UNL     1       4.047   4.365  17.904  0.00  0.00    +0.000 A 
ATOM     24  O   UNL     1       5.263   4.849  18.314  0.00  0.00    +0.000 OA
BRANCH  20  26
ATOM     25  C   UNL     1       7.649   6.166  18.279  0.00  0.00    +0.000 C 
ATOM     26  C   UNL     1       7.479   5.007  17.313  0.00  0.00    +0.000 C 
BRANCH  26  27
ATOM     27  O   UNL     1       8.308   3.920  17.735  0.00  0.00    +0.000 OA
ATOM     28  H   UNL     1       8.884   4.257  18.446  0.00  0.00    +0.000 HD
ENDBRANCH  26  27
ENDBRANCH  20  26
ENDBRANCH  16  23
ENDBRANCH   1  18
TORSDOF 6
ENDMDL
MODEL 7
REMARK VINA RESULT:      -7.7      2.450      3.201
REMARK  Name = 
REMARK  7 active torsions:
REMARK  status: ('A' for Active; 'I' for Inactive)
REMARK    1  A    between atoms: C_1  and  C_2
REMARK    2  A    between atoms: C_2  and  O_3
REMARK    3  A    between atoms: C_2  and  C_4
REMARK    4  A    between atoms: C_7  and  C_8
REMARK    5  A    between atoms: C_10  and  N_11
REMARK    6  A    between atoms: C_12  and  C_14
REMARK    7  A    between atoms: C_16  and  C_17
REMARK                            x       y       z     vdW  Elec       q    Type
REMARK                         _______ _______ _______ _____ _____    ______ ____
ROOT
ATOM      1  N   UNL     1       1.741   7.998  19.050  0.00  0.00    +0.000 N 
ATOM      2  C   UNL     1       1.518   9.140  18.298  0.00  0.00    +0.000 C 
ATOM      3  O   UNL     1       2.244   9.449  17.356  0.00  0.00    +0.000 OA
ATOM      4  H   UNL     1       1.057   7.787  19.770  0.00  0.00    +0.000 HD
ENDROOT
BRANCH   2   5
ATOM      5  C   UNL     1       0.372   9.915  18.696  0.00  0.00    +0.000 A 
ATOM      6  C   UNL     1      -0.803  10.214  18.048  0.00  0.00    +0.000 A 
ATOM      7  C   UNL     1      -1.549  10.988  18.975  0.00  0.00    +0.000 A 
ATOM      8  N   UNL     1      -0.835  11.177  20.097  0.00  0.00    +0.000 NA
ATOM      9  O   UNL     1       0.351  10.500  19.923  0.00  0.00    +0.000 OA
BRANCH   7  10
ATOM     10  C   UNL     1      -2.898  11.518  18.824  0.00  0.00    +0.000 A 
ATOM     11  C   UNL     1      -3.439  12.383  19.789  0.00  0.00    +0.000 A 
ATOM     12  C   UNL     1      -4.719  12.922  19.626  0.00  0.00    +0.000 A 
ATOM     13  C   UNL     1      -5.473  12.595  18.500  0.00  0.00    +0.000 A 
ATOM     14  C   UNL     1      -4.953  11.731  17.540  0.00  0.00    +0.000 A 
ATOM     15  C   UNL     1      -3.674  11.197  17.698  0.00  0.00    +0.000 A 
ENDBRANCH   7  10
ENDBRANCH   2   5
BRANCH   1  18
ATOM     16  C   UNL     1       3.461   5.021  18.902  0.00  0.00    +0.000 C 
ATOM     17  C   UNL     1       3.288   6.177  19.931  0.00  0.00    +0.000 C 
ATOM     18  C   UNL     1       2.872   7.104  18.776  0.00  0.00    +0.000 C 
ATOM     19  C   UNL     1       2.485   5.828  17.999  0.00  0.00    +0.000 C 
BRANCH  16  23
ATOM     20  C   UNL     1       6.431   4.603  16.892  0.00  0.00    +0.000 A 
ATOM     21  N   UNL     1       6.961   4.428  18.083  0.00  0.00    +0.000 NA
ATOM     22  N   UNL     1       5.934   4.603  18.991  0.00  0.00    +0.000 NA
ATOM     23  C   UNL     1       4.853   4.886  18.292  0.00  0.00    +0.000 A 
ATOM     24  O   UNL     1       5.107   4.938  16.944  0.00  0.00    +0.000 OA
BRANCH  20  26
ATOM     25  C   UNL     1       6.015   4.115  14.487  0.00  0.00    +0.000 C 
ATOM     26  C   UNL     1       7.045   4.485  15.540  0.00  0.00    +0.000 C 
BRANCH  26  27
ATOM     27  O   UNL     1       7.651   5.731  15.185  0.00  0.00    +0.000 OA
ATOM     28  H   UNL     1       7.918   6.168  16.015  0.00  0.00    +0.000 HD
ENDBRANCH  26  27
ENDBRANCH  20  26
ENDBRANCH  16  23
ENDBRANCH   1  18
TORSDOF 6
ENDMDL
MODEL 8
REMARK VINA RESULT:      -7.6      2.539      3.484
REMARK  Name = 
REMARK  7 active torsions:
REMARK  status: ('A' for Active; 'I' for Inactive)
REMARK    1  A    between atoms: C_1  and  C_2
REMARK    2  A    between atoms: C_2  and  O_3
REMARK    3  A    between atoms: C_2  and  C_4
REMARK    4  A    between atoms: C_7  and  C_8
REMARK    5  A    between atoms: C_10  and  N_11
REMARK    6  A    between atoms: C_12  and  C_14
REMARK    7  A    between atoms: C_16  and  C_17
REMARK                            x       y       z     vdW  Elec       q    Type
REMARK                         _______ _______ _______ _____ _____    ______ ____
ROOT
ATOM      1  N   UNL     1       1.843   7.536  20.801  0.00  0.00    +0.000 N 
ATOM      2  C   UNL     1       1.411   8.778  20.366  0.00  0.00    +0.000 C 
ATOM      3  O   UNL     1       1.620   9.174  19.222  0.00  0.00    +0.000 OA
ATOM      4  H   UNL     1       1.575   7.264  21.741  0.00  0.00    +0.000 HD
ENDROOT
BRANCH   2   5
ATOM      5  C   UNL     1       0.694   9.549  21.348  0.00  0.00    +0.000 A 
ATOM      6  C   UNL     1      -0.013  10.725  21.254  0.00  0.00    +0.000 A 
ATOM      7  C   UNL     1      -0.518  10.957  22.559  0.00  0.00    +0.000 A 
ATOM      8  N   UNL     1      -0.096   9.994  23.395  0.00  0.00    +0.000 NA
ATOM      9  O   UNL     1       0.646   9.117  22.636  0.00  0.00    +0.000 OA
BRANCH   7  10
ATOM     10  C   UNL     1      -1.388  12.037  23.008  0.00  0.00    +0.000 A 
ATOM     11  C   UNL     1      -0.923  13.361  23.046  0.00  0.00    +0.000 A 
ATOM     12  C   UNL     1      -1.769  14.403  23.439  0.00  0.00    +0.000 A 
ATOM     13  C   UNL     1      -3.086  14.129  23.805  0.00  0.00    +0.000 A 
ATOM     14  C   UNL     1      -3.558  12.819  23.781  0.00  0.00    +0.000 A 
ATOM     15  C   UNL     1      -2.717  11.779  23.383  0.00  0.00    +0.000 A 
ENDBRANCH   7  10
ENDBRANCH   2   5
BRANCH   1  18
ATOM     16  C   UNL     1       2.324   4.946  18.587  0.00  0.00    +0.000 C 
ATOM     17  C   UNL     1       2.341   5.129  20.133  0.00  0.00    +0.000 C 
ATOM     18  C   UNL     1       2.596   6.632  19.923  0.00  0.00    +0.000 C 
ATOM     19  C   UNL     1       1.970   6.460  18.522  0.00  0.00    +0.000 C 
BRANCH  16  23
ATOM     20  C   UNL     1       5.697   4.785  17.307  0.00  0.00    +0.000 A 
ATOM     21  N   UNL     1       5.152   3.838  16.574  0.00  0.00    +0.000 NA
ATOM     22  N   UNL     1       3.836   3.743  16.984  0.00  0.00    +0.000 NA
ATOM     23  C   UNL     1       3.673   4.629  17.947  0.00  0.00    +0.000 A 
ATOM     24  O   UNL     1       4.832   5.306  18.229  0.00  0.00    +0.000 OA
BRANCH  20  26
ATOM     25  C   UNL     1       7.509   5.854  18.637  0.00  0.00    +0.000 C 
ATOM     26  C   UNL     1       7.071   5.358  17.270  0.00  0.00    +0.000 C 
BRANCH  26  27
ATOM     27  O   UNL     1       7.989   4.357  16.820  0.00  0.00    +0.000 OA
ATOM     28  H   UNL     1       8.624   4.203  17.543  0.00  0.00    +0.000 HD
ENDBRANCH  26  27
ENDBRANCH  20  26
ENDBRANCH  16  23
ENDBRANCH   1  18
TORSDOF 6
ENDMDL
MODEL 9
REMARK VINA RESULT:      -7.5      3.335      4.203
REMARK  Name = 
REMARK  7 active torsions:
REMARK  status: ('A' for Active; 'I' for Inactive)
REMARK    1  A    between atoms: C_1  and  C_2
REMARK    2  A    between atoms: C_2  and  O_3
REMARK    3  A    between atoms: C_2  and  C_4
REMARK    4  A    between atoms: C_7  and  C_8
REMARK    5  A    between atoms: C_10  and  N_11
REMARK    6  A    between atoms: C_12  and  C_14
REMARK    7  A    between atoms: C_16  and  C_17
REMARK                            x       y       z     vdW  Elec       q    Type
REMARK                         _______ _______ _______ _____ _____    ______ ____
ROOT
ATOM      1  N   UNL     1       1.636   8.187  19.394  0.00  0.00    +0.000 N 
ATOM      2  C   UNL     1       1.416   9.259  18.546  0.00  0.00    +0.000 C 
ATOM      3  O   UNL     1       2.081   9.429  17.527  0.00  0.00    +0.000 OA
ATOM      4  H   UNL     1       1.001   8.089  20.180  0.00  0.00    +0.000 HD
ENDROOT
BRANCH   2   5
ATOM      5  C   UNL     1       0.347  10.138  18.944  0.00  0.00    +0.000 A 
ATOM      6  C   UNL     1      -0.920  10.326  18.446  0.00  0.00    +0.000 A 
ATOM      7  C   UNL     1      -1.507  11.306  19.287  0.00  0.00    +0.000 A 
ATOM      8  N   UNL     1      -0.619  11.712  20.210  0.00  0.00    +0.000 NA
ATOM      9  O   UNL     1       0.526  10.976  20.000  0.00  0.00    +0.000 OA
BRANCH   7  10
ATOM     10  C   UNL     1      -2.865  11.832  19.244  0.00  0.00    +0.000 A 
ATOM     11  C   UNL     1      -3.755  11.433  18.234  0.00  0.00    +0.000 A 
ATOM     12  C   UNL     1      -5.071  11.907  18.214  0.00  0.00    +0.000 A 
ATOM     13  C   UNL     1      -5.506  12.790  19.199  0.00  0.00    +0.000 A 
ATOM     14  C   UNL     1      -4.632  13.202  20.202  0.00  0.00    +0.000 A 
ATOM     15  C   UNL     1      -3.321  12.725  20.228  0.00  0.00    +0.000 A 
ENDBRANCH   7  10
ENDBRANCH   2   5
BRANCH   1  18
ATOM     16  C   UNL     1       2.988   5.097  18.707  0.00  0.00    +0.000 C 
ATOM     17  C   UNL     1       2.641   5.921  19.982  0.00  0.00    +0.000 C 
ATOM     18  C   UNL     1       2.694   7.203  19.132  0.00  0.00    +0.000 C 
ATOM     19  C   UNL     1       2.421   6.305  17.907  0.00  0.00    +0.000 C 
BRANCH  16  23
ATOM     20  C   UNL     1       6.593   5.087  18.497  0.00  0.00    +0.000 A 
ATOM     21  N   UNL     1       6.323   4.318  17.465  0.00  0.00    +0.000 NA
ATOM     22  N   UNL     1       4.948   4.185  17.432  0.00  0.00    +0.000 NA
ATOM     23  C   UNL     1       4.475   4.870  18.455  0.00  0.00    +0.000 A 
ATOM     24  O   UNL     1       5.475   5.444  19.199  0.00  0.00    +0.000 OA
BRANCH  20  26
ATOM     25  C   UNL     1       8.110   7.059  18.574  0.00  0.00    +0.000 C 
ATOM     26  C   UNL     1       7.896   5.614  18.989  0.00  0.00    +0.000 C 
BRANCH  26  27
ATOM     27  O   UNL     1       7.933   5.527  20.417  0.00  0.00    +0.000 OA
ATOM     28  H   UNL     1       8.738   5.030  20.654  0.00  0.00    +0.000 HD
ENDBRANCH  26  27
ENDBRANCH  20  26
ENDBRANCH  16  23
ENDBRANCH   1  18
TORSDOF 6
ENDMDL
