MODEL 1
REMARK VINA RESULT:      -8.3      0.000      0.000
REMARK  Name = 
REMARK  4 active torsions:
REMARK  status: ('A' for Active; 'I' for Inactive)
REMARK    1  A    between atoms: C_1  and  C_2
REMARK    2  A    between atoms: C_5  and  N_6
REMARK    3  A    between atoms: C_8  and  C_9
REMARK    4  A    between atoms: C_24  and  C_25
REMARK                            x       y       z     vdW  Elec       q    Type
REMARK                         _______ _______ _______ _____ _____    ______ ____
ROOT
ATOM      1  N   UNL     1      -3.177  13.870  21.090  0.00  0.00    +0.000 N 
ATOM      2  N   UNL     1      -2.743  12.727  20.487  0.00  0.00    +0.000 NA
ATOM      3  C   UNL     1      -1.698  12.364  21.255  0.00  0.00    +0.000 A 
ATOM      4  N   UNL     1      -1.536  13.144  22.377  0.00  0.00    +0.000 NA
ATOM      5  C   UNL     1      -2.494  14.039  22.289  0.00  0.00    +0.000 A 
ATOM      6  N   UNL     1      -2.842  14.936  23.286  0.00  0.00    +0.000 N 
ATOM      7  C   UNL     1      -1.848  15.797  23.709  0.00  0.00    +0.000 C 
ATOM      8  O   UNL     1      -0.863  16.169  23.089  0.00  0.00    +0.000 OA
ATOM      9  C   UNL     1      -2.216  16.243  25.097  0.00  0.00    +0.000 C 
ATOM     10  C   UNL     1      -1.250  15.651  26.106  0.00  0.00    +0.000 C 
ATOM     11  O   UNL     1      -3.541  15.732  25.320  0.00  0.00    +0.000 OA
ATOM     12  C   UNL     1      -3.813  14.741  24.326  0.00  0.00    +0.000 C 
ATOM     13  C   UNL     1      -5.196  15.007  23.805  0.00  0.00    +0.000 C 
ATOM     14  C   UNL     1      -6.146  14.067  23.670  0.00  0.00    +0.000 C 
ATOM     15  C   UNL     1      -5.887  12.676  24.103  0.00  0.00    +0.000 C 
ATOM     16  O   UNL     1      -6.672  11.772  23.855  0.00  0.00    +0.000 OA
ATOM     17  C   UNL     1      -4.648  12.437  24.879  0.00  0.00    +0.000 C 
ATOM     18  C   UNL     1      -3.707  13.389  24.975  0.00  0.00    +0.000 C 
ENDROOT
BRANCH   3  19
ATOM     19  C   UNL     1      -0.819  11.212  21.001  0.00  0.00    +0.000 A 
ATOM     20  C   UNL     1      -0.454  10.333  22.027  0.00  0.00    +0.000 A 
ATOM     21  C   UNL     1       0.398   9.247  21.773  0.00  0.00    +0.000 A 
ATOM     22  C   UNL     1       0.916   9.010  20.486  0.00  0.00    +0.000 A 
ATOM     23  C   UNL     1       1.776   7.930  20.224  0.00  0.00    +0.000 A 
ATOM     24  C   UNL     1       2.281   7.711  18.942  0.00  0.00    +0.000 A 
ATOM     25  C   UNL     1       1.921   8.561  17.902  0.00  0.00    +0.000 A 
ATOM     26  C   UNL     1       1.055   9.633  18.148  0.00  0.00    +0.000 A 
ATOM     27  C   UNL     1       0.542   9.876  19.436  0.00  0.00    +0.000 A 
ATOM     28  C   UNL     1      -0.325  10.961  19.708  0.00  0.00    +0.000 A 
ENDBRANCH   3  19
BRANCH   1  33
ATOM     29  C   UNL     1      -7.519  17.298  19.643  0.00  0.00    +0.000 C 
ATOM     30  C   UNL     1      -6.355  16.379  19.871  0.00  0.00    +0.000 A 
ATOM     31  C   UNL     1      -6.492  14.984  19.814  0.00  0.00    +0.000 A 
ATOM     32  C   UNL     1      -5.417  14.139  20.135  0.00  0.00    +0.000 A 
ATOM     33  C   UNL     1      -4.201  14.694  20.540  0.00  0.00    +0.000 A 
ATOM     34  C   UNL     1      -4.030  16.086  20.472  0.00  0.00    +0.000 A 
ATOM     35  C   UNL     1      -5.103  16.921  20.160  0.00  0.00    +0.000 A 
ENDBRANCH   1  33
TORSDOF 2
ENDMDL
MODEL 2
REMARK VINA RESULT:      -8.1      1.759      4.569
REMARK  Name = 
REMARK  4 active torsions:
REMARK  status: ('A' for Active; 'I' for Inactive)
REMARK    1  A    between atoms: C_1  and  C_2
REMARK    2  A    between atoms: C_5  and  N_6
REMARK    3  A    between atoms: C_8  and  C_9
REMARK    4  A    between atoms: C_24  and  C_25
REMARK                            x       y       z     vdW  Elec       q    Type
REMARK                         _______ _______ _______ _____ _____    ______ ____
ROOT
ATOM      1  N   UNL     1      -1.403  13.997  23.690  0.00  0.00    +0.000 N 
ATOM      2  N   UNL     1      -0.380  13.331  23.085  0.00  0.00    +0.000 NA
ATOM      3  C   UNL     1      -0.982  12.218  22.622  0.00  0.00    +0.000 A 
ATOM      4  N   UNL     1      -2.348  12.215  22.792  0.00  0.00    +0.000 NA
ATOM      5  C   UNL     1      -2.599  13.349  23.405  0.00  0.00    +0.000 A 
ATOM      6  N   UNL     1      -3.862  13.872  23.631  0.00  0.00    +0.000 N 
ATOM      7  C   UNL     1      -4.727  13.087  24.369  0.00  0.00    +0.000 C 
ATOM      8  O   UNL     1      -4.444  12.220  25.182  0.00  0.00    +0.000 OA
ATOM      9  C   UNL     1      -6.123  13.523  24.019  0.00  0.00    +0.000 C 
ATOM     10  C   UNL     1      -6.824  12.433  23.230  0.00  0.00    +0.000 C 
ATOM     11  O   UNL     1      -5.960  14.697  23.207  0.00  0.00    +0.000 OA
ATOM     12  C   UNL     1      -4.598  14.759  22.773  0.00  0.00    +0.000 C 
ATOM     13  C   UNL     1      -4.137  16.175  22.968  0.00  0.00    +0.000 C 
ATOM     14  C   UNL     1      -3.495  16.894  22.033  0.00  0.00    +0.000 C 
ATOM     15  C   UNL     1      -3.252  16.325  20.688  0.00  0.00    +0.000 C 
ATOM     16  O   UNL     1      -2.541  16.893  19.872  0.00  0.00    +0.000 OA
ATOM     17  C   UNL     1      -3.937  15.052  20.368  0.00  0.00    +0.000 C 
ATOM     18  C   UNL     1      -4.551  14.344  21.329  0.00  0.00    +0.000 C 
ENDROOT
BRANCH   3  19
ATOM     19  C   UNL     1      -0.303  11.109  21.934  0.00  0.00    +0.000 A 
ATOM     20  C   UNL     1      -0.022   9.906  22.592  0.00  0.00    +0.000 A 
ATOM     21  C   UNL     1       0.641   8.862  21.927  0.00  0.00    +0.000 A 
ATOM     22  C   UNL     1       1.047   8.992  20.585  0.00  0.00    +0.000 A 
ATOM     23  C   UNL     1       1.718   7.956  19.913  0.00  0.00    +0.000 A 
ATOM     24  C   UNL     1       2.114   8.102  18.584  0.00  0.00    +0.000 A 
ATOM     25  C   UNL     1       1.832   9.282  17.904  0.00  0.00    +0.000 A 
ATOM     26  C   UNL     1       1.154  10.317  18.558  0.00  0.00    +0.000 A 
ATOM     27  C   UNL     1       0.753  10.192  19.902  0.00  0.00    +0.000 A 
ATOM     28  C   UNL     1       0.077  11.231  20.586  0.00  0.00    +0.000 A 
ENDBRANCH   3  19
BRANCH   1  33
ATOM     29  C   UNL     1       0.092  18.467  26.929  0.00  0.00    +0.000 C 
ATOM     30  C   UNL     1      -0.438  17.364  26.060  0.00  0.00    +0.000 A 
ATOM     31  C   UNL     1      -1.262  16.351  26.571  0.00  0.00    +0.000 A 
ATOM     32  C   UNL     1      -1.660  15.270  25.768  0.00  0.00    +0.000 A 
ATOM     33  C   UNL     1      -1.209  15.188  24.448  0.00  0.00    +0.000 A 
ATOM     34  C   UNL     1      -0.492  16.266  23.905  0.00  0.00    +0.000 A 
ATOM     35  C   UNL     1      -0.093  17.334  24.708  0.00  0.00    +0.000 A 
ENDBRANCH   1  33
TORSDOF 2
ENDMDL
MODEL 3
REMARK VINA RESULT:      -7.5      0.708      1.627
REMARK  Name = 
REMARK  4 active torsions:
REMARK  status: ('A' for Active; 'I' for Inactive)
REMARK    1  A    between atoms: C_1  and  C_2
REMARK    2  A    between atoms: C_5  and  N_6
REMARK    3  A    between atoms: C_8  and  C_9
REMARK    4  A    between atoms: C_24  and  C_25
REMARK                            x       y       z     vdW  Elec       q    Type
REMARK                         _______ _______ _______ _____ _____    ______ ____
ROOT
ATOM      1  N   UNL     1      -3.596  14.434  20.892  0.00  0.00    +0.000 N 
ATOM      2  N   UNL     1      -3.155  13.390  20.135  0.00  0.00    +0.000 NA
ATOM      3  C   UNL     1      -2.020  13.026  20.763  0.00  0.00    +0.000 A 
ATOM      4  N   UNL     1      -1.797  13.700  21.941  0.00  0.00    +0.000 NA
ATOM      5  C   UNL     1      -2.811  14.531  22.035  0.00  0.00    +0.000 A 
ATOM      6  N   UNL     1      -3.114  15.298  23.148  0.00  0.00    +0.000 N 
ATOM      7  C   UNL     1      -2.136  16.180  23.567  0.00  0.00    +0.000 C 
ATOM      8  O   UNL     1      -1.240  16.679  22.903  0.00  0.00    +0.000 OA
ATOM      9  C   UNL     1      -2.394  16.460  25.022  0.00  0.00    +0.000 C 
ATOM     10  C   UNL     1      -1.300  15.840  25.872  0.00  0.00    +0.000 C 
ATOM     11  O   UNL     1      -3.657  15.839  25.309  0.00  0.00    +0.000 OA
ATOM     12  C   UNL     1      -3.965  14.934  24.245  0.00  0.00    +0.000 C 
ATOM     13  C   UNL     1      -5.406  15.154  23.882  0.00  0.00    +0.000 C 
ATOM     14  C   UNL     1      -6.306  14.168  23.737  0.00  0.00    +0.000 C 
ATOM     15  C   UNL     1      -5.923  12.762  23.996  0.00  0.00    +0.000 C 
ATOM     16  O   UNL     1      -6.673  11.835  23.726  0.00  0.00    +0.000 OA
ATOM     17  C   UNL     1      -4.603  12.535  24.627  0.00  0.00    +0.000 C 
ATOM     18  C   UNL     1      -3.716  13.536  24.737  0.00  0.00    +0.000 C 
ENDROOT
BRANCH   3  19
ATOM     19  C   UNL     1      -1.102  11.968  20.310  0.00  0.00    +0.000 A 
ATOM     20  C   UNL     1      -0.601  11.948  19.004  0.00  0.00    +0.000 A 
ATOM     21  C   UNL     1       0.262  10.924  18.582  0.00  0.00    +0.000 A 
ATOM     22  C   UNL     1       0.645   9.886  19.453  0.00  0.00    +0.000 A 
ATOM     23  C   UNL     1       1.502   8.852  19.038  0.00  0.00    +0.000 A 
ATOM     24  C   UNL     1       1.871   7.832  19.914  0.00  0.00    +0.000 A 
ATOM     25  C   UNL     1       1.398   7.839  21.222  0.00  0.00    +0.000 A 
ATOM     26  C   UNL     1       0.554   8.869  21.651  0.00  0.00    +0.000 A 
ATOM     27  C   UNL     1       0.163   9.904  20.780  0.00  0.00    +0.000 A 
ATOM     28  C   UNL     1      -0.699  10.949  21.190  0.00  0.00    +0.000 A 
ENDBRANCH   3  19
BRANCH   1  33
ATOM     29  C   UNL     1      -7.873  17.509  18.667  0.00  0.00    +0.000 C 
ATOM     30  C   UNL     1      -6.802  16.748  19.391  0.00  0.00    +0.000 A 
ATOM     31  C   UNL     1      -5.631  17.371  19.848  0.00  0.00    +0.000 A 
ATOM     32  C   UNL     1      -4.593  16.623  20.427  0.00  0.00    +0.000 A 
ATOM     33  C   UNL     1      -4.716  15.235  20.527  0.00  0.00    +0.000 A 
ATOM     34  C   UNL     1      -5.938  14.632  20.187  0.00  0.00    +0.000 A 
ATOM     35  C   UNL     1      -6.963  15.379  19.605  0.00  0.00    +0.000 A 
ENDBRANCH   1  33
TORSDOF 2
ENDMDL
MODEL 4
REMARK VINA RESULT:      -7.4      2.573      5.010
REMARK  Name = 
REMARK  4 active torsions:
REMARK  status: ('A' for Active; 'I' for Inactive)
REMARK    1  A    between atoms: C_1  and  C_2
REMARK    2  A    between atoms: C_5  and  N_6
REMARK    3  A    between atoms: C_8  and  C_9
REMARK    4  A    between atoms: C_24  and  C_25
REMARK                            x       y       z     vdW  Elec       q    Type
REMARK                         _______ _______ _______ _____ _____    ______ ____
ROOT
ATOM      1  N   UNL     1      -2.633  14.165  22.326  0.00  0.00    +0.000 N 
ATOM      2  N   UNL     1      -1.998  13.744  21.197  0.00  0.00    +0.000 NA
ATOM      3  C   UNL     1      -2.834  12.802  20.719  0.00  0.00    +0.000 A 
ATOM      4  N   UNL     1      -4.016  12.703  21.417  0.00  0.00    +0.000 NA
ATOM      5  C   UNL     1      -3.899  13.593  22.376  0.00  0.00    +0.000 A 
ATOM      6  N   UNL     1      -4.917  13.983  23.232  0.00  0.00    +0.000 N 
ATOM      7  C   UNL     1      -5.489  12.985  23.998  0.00  0.00    +0.000 C 
ATOM      8  O   UNL     1      -4.989  11.924  24.341  0.00  0.00    +0.000 OA
ATOM      9  C   UNL     1      -6.863  13.460  24.381  0.00  0.00    +0.000 C 
ATOM     10  C   UNL     1      -7.916  12.633  23.667  0.00  0.00    +0.000 C 
ATOM     11  O   UNL     1      -6.926  14.828  23.946  0.00  0.00    +0.000 OA
ATOM     12  C   UNL     1      -5.846  15.061  23.037  0.00  0.00    +0.000 C 
ATOM     13  C   UNL     1      -5.217  16.368  23.426  0.00  0.00    +0.000 C 
ATOM     14  C   UNL     1      -4.932  17.355  22.560  0.00  0.00    +0.000 C 
ATOM     15  C   UNL     1      -5.293  17.222  21.131  0.00  0.00    +0.000 C 
ATOM     16  O   UNL     1      -4.912  18.031  20.297  0.00  0.00    +0.000 OA
ATOM     17  C   UNL     1      -6.163  16.081  20.764  0.00  0.00    +0.000 C 
ATOM     18  C   UNL     1      -6.411  15.099  21.645  0.00  0.00    +0.000 C 
ENDROOT
BRANCH   3  19
ATOM     19  C   UNL     1      -2.586  11.972  19.529  0.00  0.00    +0.000 A 
ATOM     20  C   UNL     1      -1.443  11.173  19.423  0.00  0.00    +0.000 A 
ATOM     21  C   UNL     1      -1.212  10.398  18.275  0.00  0.00    +0.000 A 
ATOM     22  C   UNL     1      -2.116  10.404  17.196  0.00  0.00    +0.000 A 
ATOM     23  C   UNL     1      -1.891   9.638  16.039  0.00  0.00    +0.000 A 
ATOM     24  C   UNL     1      -2.797   9.656  14.980  0.00  0.00    +0.000 A 
ATOM     25  C   UNL     1      -3.949  10.431  15.068  0.00  0.00    +0.000 A 
ATOM     26  C   UNL     1      -4.192  11.188  16.220  0.00  0.00    +0.000 A 
ATOM     27  C   UNL     1      -3.285  11.190  17.297  0.00  0.00    +0.000 A 
ATOM     28  C   UNL     1      -3.505  11.958  18.465  0.00  0.00    +0.000 A 
ENDBRANCH   3  19
BRANCH   1  33
ATOM     29  C   UNL     1      -1.030  18.086  26.167  0.00  0.00    +0.000 C 
ATOM     30  C   UNL     1      -1.299  17.028  25.137  0.00  0.00    +0.000 A 
ATOM     31  C   UNL     1      -1.229  17.300  23.763  0.00  0.00    +0.000 A 
ATOM     32  C   UNL     1      -1.589  16.327  22.816  0.00  0.00    +0.000 A 
ATOM     33  C   UNL     1      -2.047  15.080  23.248  0.00  0.00    +0.000 A 
ATOM     34  C   UNL     1      -1.992  14.770  24.617  0.00  0.00    +0.000 A 
ATOM     35  C   UNL     1      -1.642  15.742  25.554  0.00  0.00    +0.000 A 
ENDBRANCH   1  33
TORSDOF 2
ENDMDL
MODEL 5
REMARK VINA RESULT:      -7.3      1.605      4.619
REMARK  Name = 
REMARK  4 active torsions:
REMARK  status: ('A' for Active; 'I' for Inactive)
REMARK    1  A    between atoms: C_1  and  C_2
REMARK    2  A    between atoms: C_5  and  N_6
REMARK    3  A    between atoms: C_8  and  C_9
REMARK    4  A    between atoms: C_24  and  C_25
REMARK                            x       y       z     vdW  Elec       q    Type
REMARK                         _______ _______ _______ _____ _____    ______ ____
ROOT
ATOM      1  N   UNL     1      -1.714  14.231  23.205  0.00  0.00    +0.000 N 
ATOM      2  N   UNL     1      -0.715  13.772  22.399  0.00  0.00    +0.000 NA
ATOM      3  C   UNL     1      -1.274  12.693  21.818  0.00  0.00    +0.000 A 
ATOM      4  N   UNL     1      -2.607  12.529  22.118  0.00  0.00    +0.000 NA
ATOM      5  C   UNL     1      -2.878  13.522  22.934  0.00  0.00    +0.000 A 
ATOM      6  N   UNL     1      -4.146  13.876  23.367  0.00  0.00    +0.000 N 
ATOM      7  C   UNL     1      -4.856  12.903  24.045  0.00  0.00    +0.000 C 
ATOM      8  O   UNL     1      -4.413  11.949  24.669  0.00  0.00    +0.000 OA
ATOM      9  C   UNL     1      -6.313  13.249  23.911  0.00  0.00    +0.000 C 
ATOM     10  C   UNL     1      -7.008  12.234  23.023  0.00  0.00    +0.000 C 
ATOM     11  O   UNL     1      -6.338  14.547  23.295  0.00  0.00    +0.000 OA
ATOM     12  C   UNL     1      -5.044  14.810  22.746  0.00  0.00    +0.000 C 
ATOM     13  C   UNL     1      -4.680  16.216  23.129  0.00  0.00    +0.000 C 
ATOM     14  C   UNL     1      -4.207  17.133  22.270  0.00  0.00    +0.000 C 
ATOM     15  C   UNL     1      -4.072  16.810  20.832  0.00  0.00    +0.000 C 
ATOM     16  O   UNL     1      -3.506  17.568  20.056  0.00  0.00    +0.000 OA
ATOM     17  C   UNL     1      -4.684  15.543  20.371  0.00  0.00    +0.000 C 
ATOM     18  C   UNL     1      -5.126  14.636  21.256  0.00  0.00    +0.000 C 
ENDROOT
BRANCH   3  19
ATOM     19  C   UNL     1      -0.589  11.779  20.890  0.00  0.00    +0.000 A 
ATOM     20  C   UNL     1      -0.543  12.035  19.516  0.00  0.00    +0.000 A 
ATOM     21  C   UNL     1       0.101  11.146  18.640  0.00  0.00    +0.000 A 
ATOM     22  C   UNL     1       0.713   9.970  19.114  0.00  0.00    +0.000 A 
ATOM     23  C   UNL     1       1.353   9.070  18.245  0.00  0.00    +0.000 A 
ATOM     24  C   UNL     1       1.955   7.909  18.732  0.00  0.00    +0.000 A 
ATOM     25  C   UNL     1       1.936   7.640  20.096  0.00  0.00    +0.000 A 
ATOM     26  C   UNL     1       1.312   8.535  20.973  0.00  0.00    +0.000 A 
ATOM     27  C   UNL     1       0.693   9.708  20.501  0.00  0.00    +0.000 A 
ATOM     28  C   UNL     1       0.047  10.620  21.369  0.00  0.00    +0.000 A 
ENDBRANCH   3  19
BRANCH   1  33
ATOM     29  C   UNL     1      -0.232  18.254  26.988  0.00  0.00    +0.000 C 
ATOM     30  C   UNL     1      -0.765  17.257  26.002  0.00  0.00    +0.000 A 
ATOM     31  C   UNL     1      -1.448  16.103  26.412  0.00  0.00    +0.000 A 
ATOM     32  C   UNL     1      -1.844  15.130  25.481  0.00  0.00    +0.000 A 
ATOM     33  C   UNL     1      -1.532  15.300  24.129  0.00  0.00    +0.000 A 
ATOM     34  C   UNL     1      -0.964  16.513  23.708  0.00  0.00    +0.000 A 
ATOM     35  C   UNL     1      -0.565  17.473  24.638  0.00  0.00    +0.000 A 
ENDBRANCH   1  33
TORSDOF 2
ENDMDL
MODEL 6
REMARK VINA RESULT:      -7.1      2.397      5.224
REMARK  Name = 
REMARK  4 active torsions:
REMARK  status: ('A' for Active; 'I' for Inactive)
REMARK    1  A    between atoms: C_1  and  C_2
REMARK    2  A    between atoms: C_5  and  N_6
REMARK    3  A    between atoms: C_8  and  C_9
REMARK    4  A    between atoms: C_24  and  C_25
REMARK                            x       y       z     vdW  Elec       q    Type
REMARK                         _______ _______ _______ _____ _____    ______ ____
ROOT
ATOM      1  N   UNL     1      -2.268  14.303  22.722  0.00  0.00    +0.000 N 
ATOM      2  N   UNL     1      -1.590  13.707  21.701  0.00  0.00    +0.000 NA
ATOM      3  C   UNL     1      -2.560  13.031  21.055  0.00  0.00    +0.000 A 
ATOM      4  N   UNL     1      -3.824  13.276  21.540  0.00  0.00    +0.000 NA
ATOM      5  C   UNL     1      -3.632  14.109  22.537  0.00  0.00    +0.000 A 
ATOM      6  N   UNL     1      -4.633  14.779  23.223  0.00  0.00    +0.000 N 
ATOM      7  C   UNL     1      -5.582  13.990  23.845  0.00  0.00    +0.000 C 
ATOM      8  O   UNL     1      -5.464  12.835  24.228  0.00  0.00    +0.000 OA
ATOM      9  C   UNL     1      -6.815  14.835  24.009  0.00  0.00    +0.000 C 
ATOM     10  C   UNL     1      -7.916  14.328  23.098  0.00  0.00    +0.000 C 
ATOM     11  O   UNL     1      -6.419  16.161  23.620  0.00  0.00    +0.000 OA
ATOM     12  C   UNL     1      -5.178  16.071  22.915  0.00  0.00    +0.000 C 
ATOM     13  C   UNL     1      -4.287  17.154  23.452  0.00  0.00    +0.000 C 
ATOM     14  C   UNL     1      -3.594  18.011  22.684  0.00  0.00    +0.000 C 
ATOM     15  C   UNL     1      -3.726  17.968  21.210  0.00  0.00    +0.000 C 
ATOM     16  O   UNL     1      -2.998  18.629  20.483  0.00  0.00    +0.000 OA
ATOM     17  C   UNL     1      -4.803  17.113  20.660  0.00  0.00    +0.000 C 
ATOM     18  C   UNL     1      -5.461  16.250  21.450  0.00  0.00    +0.000 C 
ENDROOT
BRANCH   3  19
ATOM     19  C   UNL     1      -2.352  12.151  19.894  0.00  0.00    +0.000 A 
ATOM     20  C   UNL     1      -1.232  11.318  19.802  0.00  0.00    +0.000 A 
ATOM     21  C   UNL     1      -1.039  10.495  18.682  0.00  0.00    +0.000 A 
ATOM     22  C   UNL     1      -1.959  10.485  17.615  0.00  0.00    +0.000 A 
ATOM     23  C   UNL     1      -1.770   9.672  16.485  0.00  0.00    +0.000 A 
ATOM     24  C   UNL     1      -2.691   9.675  15.438  0.00  0.00    +0.000 A 
ATOM     25  C   UNL     1      -3.821  10.483  15.513  0.00  0.00    +0.000 A 
ATOM     26  C   UNL     1      -4.026  11.290  16.638  0.00  0.00    +0.000 A 
ATOM     27  C   UNL     1      -3.104  11.306  17.702  0.00  0.00    +0.000 A 
ATOM     28  C   UNL     1      -3.287  12.123  18.844  0.00  0.00    +0.000 A 
ENDBRANCH   3  19
BRANCH   1  33
ATOM     29  C   UNL     1      -0.297  17.700  26.879  0.00  0.00    +0.000 C 
ATOM     30  C   UNL     1      -0.679  16.731  25.799  0.00  0.00    +0.000 A 
ATOM     31  C   UNL     1      -0.239  16.885  24.476  0.00  0.00    +0.000 A 
ATOM     32  C   UNL     1      -0.694  16.031  23.459  0.00  0.00    +0.000 A 
ATOM     33  C   UNL     1      -1.618  15.028  23.763  0.00  0.00    +0.000 A 
ATOM     34  C   UNL     1      -1.956  14.796  25.106  0.00  0.00    +0.000 A 
ATOM     35  C   UNL     1      -1.508  15.652  26.111  0.00  0.00    +0.000 A 
ENDBRANCH   1  33
TORSDOF 2
ENDMDL
MODEL 7
REMARK VINA RESULT:      -7.1      2.909      4.204
REMARK  Name = 
REMARK  4 active torsions:
REMARK  status: ('A' for Active; 'I' for Inactive)
REMARK    1  A    between atoms: C_1  and  C_2
REMARK    2  A    between atoms: C_5  and  N_6
REMARK    3  A    between atoms: C_8  and  C_9
REMARK    4  A    between atoms: C_24  and  C_25
REMARK                            x       y       z     vdW  Elec       q    Type
REMARK                         _______ _______ _______ _____ _____    ______ ____
ROOT
ATOM      1  N   UNL     1      -1.623  11.279  18.999  0.00  0.00    +0.000 N 
ATOM      2  N   UNL     1      -1.250   9.970  19.060  0.00  0.00    +0.000 NA
ATOM      3  C   UNL     1       0.071  10.050  19.315  0.00  0.00    +0.000 A 
ATOM      4  N   UNL     1       0.515  11.331  19.545  0.00  0.00    +0.000 NA
ATOM      5  C   UNL     1      -0.557  12.076  19.399  0.00  0.00    +0.000 A 
ATOM      6  N   UNL     1      -0.641  13.424  19.707  0.00  0.00    +0.000 N 
ATOM      7  C   UNL     1       0.234  14.260  19.041  0.00  0.00    +0.000 C 
ATOM      8  O   UNL     1       0.772  14.075  17.958  0.00  0.00    +0.000 OA
ATOM      9  C   UNL     1       0.390  15.495  19.884  0.00  0.00    +0.000 C 
ATOM     10  C   UNL     1       1.788  15.550  20.471  0.00  0.00    +0.000 C 
ATOM     11  O   UNL     1      -0.583  15.361  20.933  0.00  0.00    +0.000 OA
ATOM     12  C   UNL     1      -1.029  14.003  20.963  0.00  0.00    +0.000 C 
ATOM     13  C   UNL     1      -2.526  14.032  21.084  0.00  0.00    +0.000 C 
ATOM     14  C   UNL     1      -3.225  13.306  21.972  0.00  0.00    +0.000 C 
ATOM     15  C   UNL     1      -2.524  12.452  22.956  0.00  0.00    +0.000 C 
ATOM     16  O   UNL     1      -3.132  11.668  23.671  0.00  0.00    +0.000 OA
ATOM     17  C   UNL     1      -1.055  12.615  23.056  0.00  0.00    +0.000 C 
ATOM     18  C   UNL     1      -0.382  13.328  22.140  0.00  0.00    +0.000 C 
ENDROOT
BRANCH   3  19
ATOM     19  C   UNL     1       0.986   8.902  19.416  0.00  0.00    +0.000 A 
ATOM     20  C   UNL     1       1.012   8.088  20.554  0.00  0.00    +0.000 A 
ATOM     21  C   UNL     1       1.901   7.005  20.642  0.00  0.00    +0.000 A 
ATOM     22  C   UNL     1       2.796   6.708  19.597  0.00  0.00    +0.000 A 
ATOM     23  C   UNL     1       3.696   5.632  19.679  0.00  0.00    +0.000 A 
ATOM     24  C   UNL     1       4.576   5.351  18.634  0.00  0.00    +0.000 A 
ATOM     25  C   UNL     1       4.559   6.137  17.486  0.00  0.00    +0.000 A 
ATOM     26  C   UNL     1       3.659   7.204  17.387  0.00  0.00    +0.000 A 
ATOM     27  C   UNL     1       2.768   7.508  18.434  0.00  0.00    +0.000 A 
ATOM     28  C   UNL     1       1.859   8.590  18.359  0.00  0.00    +0.000 A 
ENDBRANCH   3  19
BRANCH   1  33
ATOM     29  C   UNL     1      -7.094  12.183  17.602  0.00  0.00    +0.000 C 
ATOM     30  C   UNL     1      -5.632  12.093  17.925  0.00  0.00    +0.000 A 
ATOM     31  C   UNL     1      -4.670  11.846  16.935  0.00  0.00    +0.000 A 
ATOM     32  C   UNL     1      -3.319  11.658  17.271  0.00  0.00    +0.000 A 
ATOM     33  C   UNL     1      -2.931  11.693  18.612  0.00  0.00    +0.000 A 
ATOM     34  C   UNL     1      -3.872  12.067  19.585  0.00  0.00    +0.000 A 
ATOM     35  C   UNL     1      -5.214  12.244  19.247  0.00  0.00    +0.000 A 
ENDBRANCH   1  33
TORSDOF 2
ENDMDL
MODEL 8
REMARK VINA RESULT:      -6.9      9.284     12.017
REMARK  Name = 
REMARK  4 active torsions:
REMARK  status: ('A' for Active; 'I' for Inactive)
REMARK    1  A    between atoms: C_1  and  C_2
REMARK    2  A    between atoms: C_5  and  N_6
REMARK    3  A    between atoms: C_8  and  C_9
REMARK    4  A    between atoms: C_24  and  C_25
REMARK                            x       y       z     vdW  Elec       q    Type
REMARK                         _______ _______ _______ _____ _____    ______ ____
ROOT
ATOM      1  N   UNL     1       6.787  14.420  20.871  0.00  0.00    +0.000 N 
ATOM      2  N   UNL     1       6.335  14.280  22.148  0.00  0.00    +0.000 NA
ATOM      3  C   UNL     1       7.253  13.464  22.701  0.00  0.00    +0.000 A 
ATOM      4  N   UNL     1       8.321  13.192  21.878  0.00  0.00    +0.000 NA
ATOM      5  C   UNL     1       8.045  13.836  20.767  0.00  0.00    +0.000 A 
ATOM      6  N   UNL     1       8.916  14.004  19.703  0.00  0.00    +0.000 N 
ATOM      7  C   UNL     1       9.391  12.849  19.113  0.00  0.00    +0.000 C 
ATOM      8  O   UNL     1       8.870  11.743  19.102  0.00  0.00    +0.000 OA
ATOM      9  C   UNL     1      10.683  13.204  18.430  0.00  0.00    +0.000 C 
ATOM     10  C   UNL     1      11.847  12.552  19.152  0.00  0.00    +0.000 C 
ATOM     11  O   UNL     1      10.779  14.634  18.523  0.00  0.00    +0.000 OA
ATOM     12  C   UNL     1       9.840  15.085  19.503  0.00  0.00    +0.000 C 
ATOM     13  C   UNL     1       9.132  16.275  18.921  0.00  0.00    +0.000 C 
ATOM     14  C   UNL     1       8.955  17.439  19.567  0.00  0.00    +0.000 C 
ATOM     15  C   UNL     1       9.525  17.637  20.919  0.00  0.00    +0.000 C 
ATOM     16  O   UNL     1       9.254  18.622  21.590  0.00  0.00    +0.000 OA
ATOM     17  C   UNL     1      10.466  16.601  21.406  0.00  0.00    +0.000 C 
ATOM     18  C   UNL     1      10.602  15.439  20.749  0.00  0.00    +0.000 C 
ENDROOT
BRANCH   3  19
ATOM     19  C   UNL     1       7.202  12.936  24.074  0.00  0.00    +0.000 A 
ATOM     20  C   UNL     1       8.199  13.238  25.008  0.00  0.00    +0.000 A 
ATOM     21  C   UNL     1       8.145  12.715  26.310  0.00  0.00    +0.000 A 
ATOM     22  C   UNL     1       7.095  11.869  26.715  0.00  0.00    +0.000 A 
ATOM     23  C   UNL     1       7.037  11.333  28.013  0.00  0.00    +0.000 A 
ATOM     24  C   UNL     1       5.989  10.496  28.396  0.00  0.00    +0.000 A 
ATOM     25  C   UNL     1       4.978  10.194  27.490  0.00  0.00    +0.000 A 
ATOM     26  C   UNL     1       5.018  10.731  26.198  0.00  0.00    +0.000 A 
ATOM     27  C   UNL     1       6.071  11.571  25.789  0.00  0.00    +0.000 A 
ATOM     28  C   UNL     1       6.137  12.114  24.484  0.00  0.00    +0.000 A 
ENDBRANCH   3  19
BRANCH   1  33
ATOM     29  C   UNL     1       3.178  16.862  17.168  0.00  0.00    +0.000 C 
ATOM     30  C   UNL     1       4.241  16.279  18.053  0.00  0.00    +0.000 A 
ATOM     31  C   UNL     1       4.892  15.079  17.735  0.00  0.00    +0.000 A 
ATOM     32  C   UNL     1       5.806  14.494  18.627  0.00  0.00    +0.000 A 
ATOM     33  C   UNL     1       6.051  15.103  19.860  0.00  0.00    +0.000 A 
ATOM     34  C   UNL     1       5.497  16.367  20.119  0.00  0.00    +0.000 A 
ATOM     35  C   UNL     1       4.584  16.940  19.233  0.00  0.00    +0.000 A 
ENDBRANCH   1  33
TORSDOF 2
ENDMDL
MODEL 9
REMARK VINA RESULT:      -6.8      8.372     11.827
REMARK  Name = 
REMARK  4 active torsions:
REMARK  status: ('A' for Active; 'I' for Inactive)
REMARK    1  A    between atoms: C_1  and  C_2
REMARK    2  A    between atoms: C_5  and  N_6
REMARK    3  A    between atoms: C_8  and  C_9
REMARK    4  A    between atoms: C_24  and  C_25
REMARK                            x       y       z     vdW  Elec       q    Type
REMARK                         _______ _______ _______ _____ _____    ______ ____
ROOT
ATOM      1  N   UNL     1       7.363  14.323  20.867  0.00  0.00    +0.000 N 
ATOM      2  N   UNL     1       6.682  14.883  19.828  0.00  0.00    +0.000 NA
ATOM      3  C   UNL     1       5.476  15.142  20.369  0.00  0.00    +0.000 A 
ATOM      4  N   UNL     1       5.409  14.893  21.721  0.00  0.00    +0.000 NA
ATOM      5  C   UNL     1       6.603  14.438  22.025  0.00  0.00    +0.000 A 
ATOM      6  N   UNL     1       7.070  14.218  23.310  0.00  0.00    +0.000 N 
ATOM      7  C   UNL     1       6.349  13.323  24.078  0.00  0.00    +0.000 C 
ATOM      8  O   UNL     1       5.634  12.410  23.693  0.00  0.00    +0.000 OA
ATOM      9  C   UNL     1       6.635  13.650  25.517  0.00  0.00    +0.000 C 
ATOM     10  C   UNL     1       5.396  14.228  26.174  0.00  0.00    +0.000 C 
ATOM     11  O   UNL     1       7.682  14.633  25.481  0.00  0.00    +0.000 OA
ATOM     12  C   UNL     1       7.767  15.151  24.151  0.00  0.00    +0.000 C 
ATOM     13  C   UNL     1       9.224  15.193  23.786  0.00  0.00    +0.000 C 
ATOM     14  C   UNL     1       9.835  16.259  23.244  0.00  0.00    +0.000 C 
ATOM     15  C   UNL     1       9.088  17.518  23.026  0.00  0.00    +0.000 C 
ATOM     16  O   UNL     1       9.573  18.449  22.399  0.00  0.00    +0.000 OA
ATOM     17  C   UNL     1       7.739  17.608  23.631  0.00  0.00    +0.000 C 
ATOM     18  C   UNL     1       7.145  16.519  24.143  0.00  0.00    +0.000 C 
ENDROOT
BRANCH   3  19
ATOM     19  C   UNL     1       4.323  15.700  19.644  0.00  0.00    +0.000 A 
ATOM     20  C   UNL     1       4.447  16.179  18.335  0.00  0.00    +0.000 A 
ATOM     21  C   UNL     1       3.342  16.722  17.662  0.00  0.00    +0.000 A 
ATOM     22  C   UNL     1       2.080  16.808  18.279  0.00  0.00    +0.000 A 
ATOM     23  C   UNL     1       0.969  17.358  17.616  0.00  0.00    +0.000 A 
ATOM     24  C   UNL     1      -0.274  17.435  18.244  0.00  0.00    +0.000 A 
ATOM     25  C   UNL     1      -0.427  16.951  19.538  0.00  0.00    +0.000 A 
ATOM     26  C   UNL     1       0.669  16.390  20.205  0.00  0.00    +0.000 A 
ATOM     27  C   UNL     1       1.933  16.310  19.592  0.00  0.00    +0.000 A 
ATOM     28  C   UNL     1       3.057  15.758  20.253  0.00  0.00    +0.000 A 
ENDBRANCH   3  19
BRANCH   1  33
ATOM     29  C   UNL     1      12.333  11.807  19.575  0.00  0.00    +0.000 C 
ATOM     30  C   UNL     1      11.091  12.499  20.053  0.00  0.00    +0.000 A 
ATOM     31  C   UNL     1      10.145  11.848  20.859  0.00  0.00    +0.000 A 
ATOM     32  C   UNL     1       8.938  12.477  21.207  0.00  0.00    +0.000 A 
ATOM     33  C   UNL     1       8.664  13.759  20.724  0.00  0.00    +0.000 A 
ATOM     34  C   UNL     1       9.665  14.454  20.027  0.00  0.00    +0.000 A 
ATOM     35  C   UNL     1      10.859  13.822  19.676  0.00  0.00    +0.000 A 
ENDBRANCH   1  33
TORSDOF 2
ENDMDL
