MODEL 1
REMARK VINA RESULT:      -7.4      0.000      0.000
REMARK  Name = 
REMARK  4 active torsions:
REMARK  status: ('A' for Active; 'I' for Inactive)
REMARK    1  A    between atoms: C_1  and  C_2
REMARK    2  A    between atoms: C_2  and  C_3
REMARK    3  A    between atoms: N_6  and  C_7
REMARK    4  A    between atoms: C_11  and  C_12
REMARK                            x       y       z     vdW  Elec       q    Type
REMARK                         _______ _______ _______ _____ _____    ______ ____
ROOT
ATOM      1  C   UNL     1       7.620   6.361  18.175  0.00  0.00    +0.000 C 
ATOM      2  S   UNL     1       6.078   6.594  17.235  0.00  0.00    +0.000 S 
ATOM      3  C   UNL     1       5.198   5.641  18.407  0.00  0.00    +0.000 C 
ATOM      4  N   UNL     1       3.886   5.430  18.093  0.00  0.00    +0.000 N 
ATOM      5  N   UNL     1       5.862   5.236  19.431  0.00  0.00    +0.000 NA
ATOM      6  C   UNL     1       7.184   5.598  19.416  0.00  0.00    +0.000 C 
ATOM      7  O   UNL     1       7.967   5.312  20.317  0.00  0.00    +0.000 OA
ATOM      8  H   UNL     1       3.565   5.902  17.256  0.00  0.00    +0.000 HD
ENDROOT
BRANCH   4   9
ATOM      9  C   UNL     1       3.116   4.300  18.435  0.00  0.00    +0.000 A 
ATOM     10  C   UNL     1       2.834   3.266  17.534  0.00  0.00    +0.000 A 
ATOM     11  C   UNL     1       2.064   2.166  17.909  0.00  0.00    +0.000 A 
ATOM     12  C   UNL     1       1.578   2.066  19.210  0.00  0.00    +0.000 A 
ATOM     13  C   UNL     1       1.875   3.060  20.144  0.00  0.00    +0.000 A 
ATOM     14  C   UNL     1       1.360   2.957  21.549  0.00  0.00    +0.000 C 
ATOM     15  C   UNL     1       2.653   4.165  19.753  0.00  0.00    +0.000 A 
ENDBRANCH   4   9
BRANCH   1  17
ATOM     16  C   UNL     1       7.882   8.847  17.676  0.00  0.00    +0.000 C 
ATOM     17  C   UNL     1       8.287   7.678  18.560  0.00  0.00    +0.000 C 
ENDBRANCH   1  17
TORSDOF 2
ENDMDL
MODEL 2
REMARK VINA RESULT:      -6.8      3.589      6.546
REMARK  Name = 
REMARK  4 active torsions:
REMARK  status: ('A' for Active; 'I' for Inactive)
REMARK    1  A    between atoms: C_1  and  C_2
REMARK    2  A    between atoms: C_2  and  C_3
REMARK    3  A    between atoms: N_6  and  C_7
REMARK    4  A    between atoms: C_11  and  C_12
REMARK                            x       y       z     vdW  Elec       q    Type
REMARK                         _______ _______ _______ _____ _____    ______ ____
ROOT
ATOM      1  C   UNL     1       1.921   2.612  18.834  0.00  0.00    +0.000 C 
ATOM      2  S   UNL     1       3.703   2.433  19.163  0.00  0.00    +0.000 S 
ATOM      3  C   UNL     1       4.067   3.626  17.937  0.00  0.00    +0.000 C 
ATOM      4  N   UNL     1       5.400   3.820  17.717  0.00  0.00    +0.000 N 
ATOM      5  N   UNL     1       3.060   4.191  17.372  0.00  0.00    +0.000 NA
ATOM      6  C   UNL     1       1.845   3.731  17.807  0.00  0.00    +0.000 C 
ATOM      7  O   UNL     1       0.775   4.164  17.390  0.00  0.00    +0.000 OA
ATOM      8  H   UNL     1       6.016   3.301  18.331  0.00  0.00    +0.000 HD
ENDROOT
BRANCH   4   9
ATOM      9  C   UNL     1       6.000   4.191  16.497  0.00  0.00    +0.000 A 
ATOM     10  C   UNL     1       7.094   5.061  16.416  0.00  0.00    +0.000 A 
ATOM     11  C   UNL     1       7.657   5.407  15.188  0.00  0.00    +0.000 A 
ATOM     12  C   UNL     1       7.149   4.866  14.010  0.00  0.00    +0.000 A 
ATOM     13  C   UNL     1       6.084   3.964  14.059  0.00  0.00    +0.000 A 
ATOM     14  C   UNL     1       5.535   3.373  12.795  0.00  0.00    +0.000 C 
ATOM     15  C   UNL     1       5.525   3.623  15.304  0.00  0.00    +0.000 A 
ENDBRANCH   4   9
BRANCH   1  17
ATOM     16  C   UNL     1       1.849   2.673  21.382  0.00  0.00    +0.000 C 
ATOM     17  C   UNL     1       1.119   2.971  20.082  0.00  0.00    +0.000 C 
ENDBRANCH   1  17
TORSDOF 2
ENDMDL
MODEL 3
REMARK VINA RESULT:      -6.6      3.372      6.181
REMARK  Name = 
REMARK  4 active torsions:
REMARK  status: ('A' for Active; 'I' for Inactive)
REMARK    1  A    between atoms: C_1  and  C_2
REMARK    2  A    between atoms: C_2  and  C_3
REMARK    3  A    between atoms: N_6  and  C_7
REMARK    4  A    between atoms: C_11  and  C_12
REMARK                            x       y       z     vdW  Elec       q    Type
REMARK                         _______ _______ _______ _____ _____    ______ ____
ROOT
ATOM      1  C   UNL     1       1.645   4.368  19.315  0.00  0.00    +0.000 C 
ATOM      2  S   UNL     1       2.514   2.920  18.634  0.00  0.00    +0.000 S 
ATOM      3  C   UNL     1       3.844   3.936  18.126  0.00  0.00    +0.000 C 
ATOM      4  N   UNL     1       4.818   3.282  17.428  0.00  0.00    +0.000 N 
ATOM      5  N   UNL     1       3.772   5.177  18.451  0.00  0.00    +0.000 NA
ATOM      6  C   UNL     1       2.627   5.512  19.126  0.00  0.00    +0.000 C 
ATOM      7  O   UNL     1       2.394   6.648  19.528  0.00  0.00    +0.000 OA
ATOM      8  H   UNL     1       4.687   2.281  17.344  0.00  0.00    +0.000 HD
ENDROOT
BRANCH   4   9
ATOM      9  C   UNL     1       5.634   3.832  16.419  0.00  0.00    +0.000 A 
ATOM     10  C   UNL     1       6.695   4.706  16.685  0.00  0.00    +0.000 A 
ATOM     11  C   UNL     1       7.477   5.232  15.657  0.00  0.00    +0.000 A 
ATOM     12  C   UNL     1       7.227   4.873  14.336  0.00  0.00    +0.000 A 
ATOM     13  C   UNL     1       6.201   3.972  14.039  0.00  0.00    +0.000 A 
ATOM     14  C   UNL     1       5.929   3.575  12.619  0.00  0.00    +0.000 C 
ATOM     15  C   UNL     1       5.420   3.448  15.085  0.00  0.00    +0.000 A 
ENDBRANCH   4   9
BRANCH   1  17
ATOM     16  C   UNL     1       2.020   3.064  21.475  0.00  0.00    +0.000 C 
ATOM     17  C   UNL     1       1.284   4.205  20.789  0.00  0.00    +0.000 C 
ENDBRANCH   1  17
TORSDOF 2
ENDMDL
MODEL 4
REMARK VINA RESULT:      -6.5      3.643      4.466
REMARK  Name = 
REMARK  4 active torsions:
REMARK  status: ('A' for Active; 'I' for Inactive)
REMARK    1  A    between atoms: C_1  and  C_2
REMARK    2  A    between atoms: C_2  and  C_3
REMARK    3  A    between atoms: N_6  and  C_7
REMARK    4  A    between atoms: C_11  and  C_12
REMARK                            x       y       z     vdW  Elec       q    Type
REMARK                         _______ _______ _______ _____ _____    ______ ____
ROOT
ATOM      1  C   UNL     1       6.693   5.246  17.722  0.00  0.00    +0.000 C 
ATOM      2  S   UNL     1       5.051   4.624  18.204  0.00  0.00    +0.000 S 
ATOM      3  C   UNL     1       4.344   6.192  17.885  0.00  0.00    +0.000 C 
ATOM      4  N   UNL     1       3.017   6.286  18.192  0.00  0.00    +0.000 N 
ATOM      5  N   UNL     1       5.132   7.087  17.404  0.00  0.00    +0.000 NA
ATOM      6  C   UNL     1       6.427   6.666  17.250  0.00  0.00    +0.000 C 
ATOM      7  O   UNL     1       7.314   7.380  16.792  0.00  0.00    +0.000 OA
ATOM      8  H   UNL     1       2.588   5.424  18.504  0.00  0.00    +0.000 HD
ENDROOT
BRANCH   4   9
ATOM      9  C   UNL     1       2.340   7.444  18.623  0.00  0.00    +0.000 A 
ATOM     10  C   UNL     1       1.956   8.473  17.755  0.00  0.00    +0.000 A 
ATOM     11  C   UNL     1       1.290   9.606  18.221  0.00  0.00    +0.000 A 
ATOM     12  C   UNL     1       0.972   9.722  19.572  0.00  0.00    +0.000 A 
ATOM     13  C   UNL     1       1.305   8.695  20.458  0.00  0.00    +0.000 A 
ATOM     14  C   UNL     1       0.960   8.809  21.913  0.00  0.00    +0.000 C 
ATOM     15  C   UNL     1       1.976   7.557  19.975  0.00  0.00    +0.000 A 
ENDBRANCH   4   9
BRANCH   1  17
ATOM     16  C   UNL     1       6.427   4.192  15.415  0.00  0.00    +0.000 C 
ATOM     17  C   UNL     1       7.338   4.421  16.611  0.00  0.00    +0.000 C 
ENDBRANCH   1  17
TORSDOF 2
ENDMDL
MODEL 5
REMARK VINA RESULT:      -6.5      2.816      6.071
REMARK  Name = 
REMARK  4 active torsions:
REMARK  status: ('A' for Active; 'I' for Inactive)
REMARK    1  A    between atoms: C_1  and  C_2
REMARK    2  A    between atoms: C_2  and  C_3
REMARK    3  A    between atoms: N_6  and  C_7
REMARK    4  A    between atoms: C_11  and  C_12
REMARK                            x       y       z     vdW  Elec       q    Type
REMARK                         _______ _______ _______ _____ _____    ______ ____
ROOT
ATOM      1  C   UNL     1       1.301   3.669  19.376  0.00  0.00    +0.000 C 
ATOM      2  S   UNL     1       2.286   2.481  18.409  0.00  0.00    +0.000 S 
ATOM      3  C   UNL     1       3.614   3.618  18.334  0.00  0.00    +0.000 C 
ATOM      4  N   UNL     1       4.673   3.200  17.581  0.00  0.00    +0.000 N 
ATOM      5  N   UNL     1       3.462   4.718  18.981  0.00  0.00    +0.000 NA
ATOM      6  C   UNL     1       2.248   4.834  19.607  0.00  0.00    +0.000 C 
ATOM      7  O   UNL     1       1.933   5.809  20.282  0.00  0.00    +0.000 OA
ATOM      8  H   UNL     1       4.592   2.260  17.212  0.00  0.00    +0.000 HD
ENDROOT
BRANCH   4   9
ATOM      9  C   UNL     1       5.553   4.020  16.848  0.00  0.00    +0.000 A 
ATOM     10  C   UNL     1       5.875   3.788  15.506  0.00  0.00    +0.000 A 
ATOM     11  C   UNL     1       6.755   4.622  14.815  0.00  0.00    +0.000 A 
ATOM     12  C   UNL     1       7.314   5.726  15.452  0.00  0.00    +0.000 A 
ATOM     13  C   UNL     1       6.982   6.009  16.779  0.00  0.00    +0.000 A 
ATOM     14  C   UNL     1       7.575   7.201  17.470  0.00  0.00    +0.000 C 
ATOM     15  C   UNL     1       6.093   5.161  17.464  0.00  0.00    +0.000 A 
ENDBRANCH   4   9
BRANCH   1  17
ATOM     16  C   UNL     1       1.943   2.675  21.634  0.00  0.00    +0.000 C 
ATOM     17  C   UNL     1       0.816   3.096  20.704  0.00  0.00    +0.000 C 
ENDBRANCH   1  17
TORSDOF 2
ENDMDL
MODEL 6
REMARK VINA RESULT:      -6.5      1.144      1.497
REMARK  Name = 
REMARK  4 active torsions:
REMARK  status: ('A' for Active; 'I' for Inactive)
REMARK    1  A    between atoms: C_1  and  C_2
REMARK    2  A    between atoms: C_2  and  C_3
REMARK    3  A    between atoms: N_6  and  C_7
REMARK    4  A    between atoms: C_11  and  C_12
REMARK                            x       y       z     vdW  Elec       q    Type
REMARK                         _______ _______ _______ _____ _____    ______ ____
ROOT
ATOM      1  C   UNL     1       7.762   6.549  18.156  0.00  0.00    +0.000 C 
ATOM      2  S   UNL     1       6.310   6.852  17.100  0.00  0.00    +0.000 S 
ATOM      3  C   UNL     1       5.314   5.884  18.163  0.00  0.00    +0.000 C 
ATOM      4  N   UNL     1       4.028   5.716  17.735  0.00  0.00    +0.000 N 
ATOM      5  N   UNL     1       5.881   5.431  19.224  0.00  0.00    +0.000 NA
ATOM      6  C   UNL     1       7.208   5.759  19.330  0.00  0.00    +0.000 C 
ATOM      7  O   UNL     1       7.907   5.425  20.282  0.00  0.00    +0.000 OA
ATOM      8  H   UNL     1       3.788   6.223  16.891  0.00  0.00    +0.000 HD
ENDROOT
BRANCH   4   9
ATOM      9  C   UNL     1       3.207   4.597  17.974  0.00  0.00    +0.000 A 
ATOM     10  C   UNL     1       1.809   4.660  17.975  0.00  0.00    +0.000 A 
ATOM     11  C   UNL     1       1.030   3.529  18.220  0.00  0.00    +0.000 A 
ATOM     12  C   UNL     1       1.640   2.299  18.447  0.00  0.00    +0.000 A 
ATOM     13  C   UNL     1       3.032   2.193  18.414  0.00  0.00    +0.000 A 
ATOM     14  C   UNL     1       3.697   0.869  18.651  0.00  0.00    +0.000 C 
ATOM     15  C   UNL     1       3.806   3.341  18.164  0.00  0.00    +0.000 A 
ENDBRANCH   4   9
BRANCH   1  17
ATOM     16  C   UNL     1       8.021   9.066  17.839  0.00  0.00    +0.000 C 
ATOM     17  C   UNL     1       8.425   7.837  18.638  0.00  0.00    +0.000 C 
ENDBRANCH   1  17
TORSDOF 2
ENDMDL
MODEL 7
REMARK VINA RESULT:      -6.5      2.719      6.374
REMARK  Name = 
REMARK  4 active torsions:
REMARK  status: ('A' for Active; 'I' for Inactive)
REMARK    1  A    between atoms: C_1  and  C_2
REMARK    2  A    between atoms: C_2  and  C_3
REMARK    3  A    between atoms: N_6  and  C_7
REMARK    4  A    between atoms: C_11  and  C_12
REMARK                            x       y       z     vdW  Elec       q    Type
REMARK                         _______ _______ _______ _____ _____    ______ ____
ROOT
ATOM      1  C   UNL     1       2.231   2.181  19.146  0.00  0.00    +0.000 C 
ATOM      2  S   UNL     1       3.956   2.177  19.731  0.00  0.00    +0.000 S 
ATOM      3  C   UNL     1       4.270   3.666  18.870  0.00  0.00    +0.000 C 
ATOM      4  N   UNL     1       5.566   4.090  18.929  0.00  0.00    +0.000 N 
ATOM      5  N   UNL     1       3.267   4.204  18.272  0.00  0.00    +0.000 NA
ATOM      6  C   UNL     1       2.102   3.490  18.384  0.00  0.00    +0.000 C 
ATOM      7  O   UNL     1       1.041   3.857  17.890  0.00  0.00    +0.000 OA
ATOM      8  H   UNL     1       6.173   3.530  19.516  0.00  0.00    +0.000 HD
ENDROOT
BRANCH   4   9
ATOM      9  C   UNL     1       6.253   4.819  17.939  0.00  0.00    +0.000 A 
ATOM     10  C   UNL     1       6.445   4.345  16.635  0.00  0.00    +0.000 A 
ATOM     11  C   UNL     1       7.135   5.095  15.683  0.00  0.00    +0.000 A 
ATOM     12  C   UNL     1       7.629   6.355  16.012  0.00  0.00    +0.000 A 
ATOM     13  C   UNL     1       7.420   6.874  17.292  0.00  0.00    +0.000 A 
ATOM     14  C   UNL     1       7.943   8.233  17.652  0.00  0.00    +0.000 C 
ATOM     15  C   UNL     1       6.722   6.107  18.242  0.00  0.00    +0.000 A 
ENDBRANCH   4   9
BRANCH   1  17
ATOM     16  C   UNL     1       1.665   2.848  21.541  0.00  0.00    +0.000 C 
ATOM     17  C   UNL     1       1.217   2.118  20.284  0.00  0.00    +0.000 C 
ENDBRANCH   1  17
TORSDOF 2
ENDMDL
MODEL 8
REMARK VINA RESULT:      -6.4      2.704      3.355
REMARK  Name = 
REMARK  4 active torsions:
REMARK  status: ('A' for Active; 'I' for Inactive)
REMARK    1  A    between atoms: C_1  and  C_2
REMARK    2  A    between atoms: C_2  and  C_3
REMARK    3  A    between atoms: N_6  and  C_7
REMARK    4  A    between atoms: C_11  and  C_12
REMARK                            x       y       z     vdW  Elec       q    Type
REMARK                         _______ _______ _______ _____ _____    ______ ____
ROOT
ATOM      1  C   UNL     1       6.950   4.509  15.590  0.00  0.00    +0.000 C 
ATOM      2  S   UNL     1       5.406   3.546  15.647  0.00  0.00    +0.000 S 
ATOM      3  C   UNL     1       4.700   4.711  16.745  0.00  0.00    +0.000 C 
ATOM      4  N   UNL     1       3.455   4.379  17.196  0.00  0.00    +0.000 N 
ATOM      5  N   UNL     1       5.413   5.745  17.018  0.00  0.00    +0.000 NA
ATOM      6  C   UNL     1       6.646   5.747  16.418  0.00  0.00    +0.000 C 
ATOM      7  O   UNL     1       7.455   6.660  16.552  0.00  0.00    +0.000 OA
ATOM      8  H   UNL     1       3.064   3.536  16.792  0.00  0.00    +0.000 HD
ENDROOT
BRANCH   4   9
ATOM      9  C   UNL     1       2.903   4.715  18.447  0.00  0.00    +0.000 A 
ATOM     10  C   UNL     1       2.625   6.033  18.831  0.00  0.00    +0.000 A 
ATOM     11  C   UNL     1       2.081   6.325  20.082  0.00  0.00    +0.000 A 
ATOM     12  C   UNL     1       1.781   5.296  20.970  0.00  0.00    +0.000 A 
ATOM     13  C   UNL     1       2.009   3.968  20.603  0.00  0.00    +0.000 A 
ATOM     14  C   UNL     1       1.682   2.854  21.551  0.00  0.00    +0.000 C 
ATOM     15  C   UNL     1       2.556   3.686  19.338  0.00  0.00    +0.000 A 
ENDBRANCH   4   9
BRANCH   1  17
ATOM     16  C   UNL     1       6.605   4.133  13.091  0.00  0.00    +0.000 C 
ATOM     17  C   UNL     1       7.357   4.897  14.171  0.00  0.00    +0.000 C 
ENDBRANCH   1  17
TORSDOF 2
ENDMDL
MODEL 9
REMARK VINA RESULT:      -6.4      0.923      1.800
REMARK  Name = 
REMARK  4 active torsions:
REMARK  status: ('A' for Active; 'I' for Inactive)
REMARK    1  A    between atoms: C_1  and  C_2
REMARK    2  A    between atoms: C_2  and  C_3
REMARK    3  A    between atoms: N_6  and  C_7
REMARK    4  A    between atoms: C_11  and  C_12
REMARK                            x       y       z     vdW  Elec       q    Type
REMARK                         _______ _______ _______ _____ _____    ______ ____
ROOT
ATOM      1  C   UNL     1       7.157   6.228  17.665  0.00  0.00    +0.000 C 
ATOM      2  S   UNL     1       5.441   6.673  17.247  0.00  0.00    +0.000 S 
ATOM      3  C   UNL     1       4.867   5.904  18.708  0.00  0.00    +0.000 C 
ATOM      4  N   UNL     1       3.508   5.893  18.844  0.00  0.00    +0.000 N 
ATOM      5  N   UNL     1       5.765   5.430  19.497  0.00  0.00    +0.000 NA
ATOM      6  C   UNL     1       7.047   5.579  19.035  0.00  0.00    +0.000 C 
ATOM      7  O   UNL     1       8.032   5.200  19.660  0.00  0.00    +0.000 OA
ATOM      8  H   UNL     1       3.001   6.386  18.118  0.00  0.00    +0.000 HD
ENDROOT
BRANCH   4   9
ATOM      9  C   UNL     1       2.742   4.909  19.499  0.00  0.00    +0.000 A 
ATOM     10  C   UNL     1       2.604   4.849  20.891  0.00  0.00    +0.000 A 
ATOM     11  C   UNL     1       1.840   3.856  21.503  0.00  0.00    +0.000 A 
ATOM     12  C   UNL     1       1.174   2.910  20.728  0.00  0.00    +0.000 A 
ATOM     13  C   UNL     1       1.259   2.966  19.335  0.00  0.00    +0.000 A 
ATOM     14  C   UNL     1       0.540   1.955  18.492  0.00  0.00    +0.000 C 
ATOM     15  C   UNL     1       2.032   3.973  18.730  0.00  0.00    +0.000 A 
ENDBRANCH   4   9
BRANCH   1  17
ATOM     16  C   UNL     1       7.364   8.769  17.639  0.00  0.00    +0.000 C 
ATOM     17  C   UNL     1       8.089   7.435  17.713  0.00  0.00    +0.000 C 
ENDBRANCH   1  17
TORSDOF 2
ENDMDL
