MODEL 1
REMARK VINA RESULT:      -6.6      0.000      0.000
REMARK  Name = 
REMARK  5 active torsions:
REMARK  status: ('A' for Active; 'I' for Inactive)
REMARK    1  A    between atoms: C_1  and  C_2
REMARK    2  A    between atoms: C_2  and  C_3
REMARK    3  A    between atoms: N_8  and  C_9
REMARK    4  A    between atoms: C_12  and  N_13
REMARK    5  A    between atoms: C_14  and  C_16
REMARK                            x       y       z     vdW  Elec       q    Type
REMARK                         _______ _______ _______ _____ _____    ______ ____
ROOT
ATOM      1  C   UNL     1       1.950   8.081  19.125  0.00  0.00    +0.000 A 
ATOM      2  C   UNL     1       1.233   8.742  20.131  0.00  0.00    +0.000 A 
ATOM      3  C   UNL     1       0.882  10.093  20.031  0.00  0.00    +0.000 A 
ATOM      4  C   UNL     1       1.239  10.834  18.911  0.00  0.00    +0.000 A 
ATOM      5  C   UNL     1       1.908  10.187  17.872  0.00  0.00    +0.000 A 
ATOM      6  C   UNL     1       2.262   8.833  17.983  0.00  0.00    +0.000 A 
ENDROOT
BRANCH   1  12
ATOM      7  C   UNL     1       1.784   2.661  19.427  0.00  0.00    +0.000 C 
ATOM      8  O   UNL     1       1.585   2.120  20.515  0.00  0.00    +0.000 OA
ATOM      9  N   UNL     1       1.539   4.007  19.224  0.00  0.00    +0.000 N 
ATOM     10  C   UNL     1       1.157   4.854  20.361  0.00  0.00    +0.000 C 
ATOM     11  C   UNL     1       2.153   6.016  20.530  0.00  0.00    +0.000 C 
ATOM     12  N   UNL     1       2.307   6.757  19.267  0.00  0.00    +0.000 N 
ATOM     13  C   UNL     1       2.646   5.938  18.087  0.00  0.00    +0.000 C 
ATOM     14  C   UNL     1       1.680   4.740  17.957  0.00  0.00    +0.000 C 
BRANCH   7  16
ATOM     15  C   UNL     1       3.853   1.724  18.317  0.00  0.00    +0.000 C 
ATOM     16  C   UNL     1       2.342   1.880  18.248  0.00  0.00    +0.000 C 
ENDBRANCH   7  16
ENDBRANCH   1  12
BRANCH   4  17
ATOM     17  N   UNL     1       0.964  12.210  18.768  0.00  0.00    +0.000 N 
ATOM     18  C   UNL     1       1.632  13.263  19.377  0.00  0.00    +0.000 C 
ATOM     19  O   UNL     1       2.590  13.128  20.133  0.00  0.00    +0.000 OA
ATOM     20  H   UNL     1       0.264  12.469  18.085  0.00  0.00    +0.000 HD
BRANCH  18  21
ATOM     21  C   UNL     1       1.147  14.596  19.024  0.00  0.00    +0.000 A 
ATOM     22  C   UNL     1      -0.181  14.960  18.870  0.00  0.00    +0.000 A 
ATOM     23  C   UNL     1      -0.339  16.334  18.533  0.00  0.00    +0.000 A 
ATOM     24  C   UNL     1       0.872  16.977  18.433  0.00  0.00    +0.000 A 
ATOM     25  S   UNL     1       2.187  15.928  18.746  0.00  0.00    +0.000 S 
ENDBRANCH  18  21
ENDBRANCH   4  17
TORSDOF 4
ENDMDL
MODEL 2
REMARK VINA RESULT:      -6.4      3.829      9.161
REMARK  Name = 
REMARK  5 active torsions:
REMARK  status: ('A' for Active; 'I' for Inactive)
REMARK    1  A    between atoms: C_1  and  C_2
REMARK    2  A    between atoms: C_2  and  C_3
REMARK    3  A    between atoms: N_8  and  C_9
REMARK    4  A    between atoms: C_12  and  N_13
REMARK    5  A    between atoms: C_14  and  C_16
REMARK                            x       y       z     vdW  Elec       q    Type
REMARK                         _______ _______ _______ _____ _____    ______ ____
ROOT
ATOM      1  C   UNL     1       0.578   9.419  19.643  0.00  0.00    +0.000 A 
ATOM      2  C   UNL     1       0.972   9.607  18.312  0.00  0.00    +0.000 A 
ATOM      3  C   UNL     1       1.982   8.840  17.719  0.00  0.00    +0.000 A 
ATOM      4  C   UNL     1       2.635   7.851  18.445  0.00  0.00    +0.000 A 
ATOM      5  C   UNL     1       2.226   7.609  19.756  0.00  0.00    +0.000 A 
ATOM      6  C   UNL     1       1.217   8.387  20.345  0.00  0.00    +0.000 A 
ENDROOT
BRANCH   1  12
ATOM      7  C   UNL     1      -2.115  13.648  21.732  0.00  0.00    +0.000 C 
ATOM      8  O   UNL     1      -2.059  13.865  22.943  0.00  0.00    +0.000 OA
ATOM      9  N   UNL     1      -1.229  12.794  21.100  0.00  0.00    +0.000 N 
ATOM     10  C   UNL     1      -0.276  12.015  21.902  0.00  0.00    +0.000 C 
ATOM     11  C   UNL     1      -0.459  10.508  21.649  0.00  0.00    +0.000 C 
ATOM     12  N   UNL     1      -0.400  10.212  20.208  0.00  0.00    +0.000 N 
ATOM     13  C   UNL     1      -1.309  11.005  19.357  0.00  0.00    +0.000 C 
ATOM     14  C   UNL     1      -1.163  12.512  19.659  0.00  0.00    +0.000 C 
BRANCH   7  16
ATOM     15  C   UNL     1      -4.511  13.548  20.934  0.00  0.00    +0.000 C 
ATOM     16  C   UNL     1      -3.186  14.290  20.865  0.00  0.00    +0.000 C 
ENDBRANCH   7  16
ENDBRANCH   1  12
BRANCH   4  17
ATOM     17  N   UNL     1       3.695   7.078  17.927  0.00  0.00    +0.000 N 
ATOM     18  C   UNL     1       3.662   5.732  17.590  0.00  0.00    +0.000 C 
ATOM     19  O   UNL     1       2.666   5.020  17.690  0.00  0.00    +0.000 OA
ATOM     20  H   UNL     1       4.549   7.569  17.692  0.00  0.00    +0.000 HD
BRANCH  18  21
ATOM     21  C   UNL     1       4.907   5.194  17.047  0.00  0.00    +0.000 A 
ATOM     22  C   UNL     1       5.092   4.721  15.758  0.00  0.00    +0.000 A 
ATOM     23  C   UNL     1       6.421   4.270  15.523  0.00  0.00    +0.000 A 
ATOM     24  C   UNL     1       7.211   4.406  16.639  0.00  0.00    +0.000 A 
ATOM     25  S   UNL     1       6.352   5.074  17.960  0.00  0.00    +0.000 S 
ENDBRANCH  18  21
ENDBRANCH   4  17
TORSDOF 4
ENDMDL
MODEL 3
REMARK VINA RESULT:      -6.4      0.990      1.060
REMARK  Name = 
REMARK  5 active torsions:
REMARK  status: ('A' for Active; 'I' for Inactive)
REMARK    1  A    between atoms: C_1  and  C_2
REMARK    2  A    between atoms: C_2  and  C_3
REMARK    3  A    between atoms: N_8  and  C_9
REMARK    4  A    between atoms: C_12  and  N_13
REMARK    5  A    between atoms: C_14  and  C_16
REMARK                            x       y       z     vdW  Elec       q    Type
REMARK                         _______ _______ _______ _____ _____    ______ ____
ROOT
ATOM      1  C   UNL     1       1.802   8.026  19.497  0.00  0.00    +0.000 A 
ATOM      2  C   UNL     1       1.193   8.600  20.620  0.00  0.00    +0.000 A 
ATOM      3  C   UNL     1       0.768   9.934  20.636  0.00  0.00    +0.000 A 
ATOM      4  C   UNL     1       0.941  10.744  19.519  0.00  0.00    +0.000 A 
ATOM      5  C   UNL     1       1.499  10.182  18.371  0.00  0.00    +0.000 A 
ATOM      6  C   UNL     1       1.928   8.845  18.366  0.00  0.00    +0.000 A 
ENDROOT
BRANCH   1  12
ATOM      7  C   UNL     1       1.996   2.610  19.141  0.00  0.00    +0.000 C 
ATOM      8  O   UNL     1       1.721   1.927  20.128  0.00  0.00    +0.000 OA
ATOM      9  N   UNL     1       1.678   3.954  19.070  0.00  0.00    +0.000 N 
ATOM     10  C   UNL     1       1.117   4.630  20.247  0.00  0.00    +0.000 C 
ATOM     11  C   UNL     1       2.002   5.817  20.665  0.00  0.00    +0.000 C 
ATOM     12  N   UNL     1       2.237   6.717  19.523  0.00  0.00    +0.000 N 
ATOM     13  C   UNL     1       2.758   6.073  18.302  0.00  0.00    +0.000 C 
ATOM     14  C   UNL     1       1.900   4.846  17.923  0.00  0.00    +0.000 C 
BRANCH   7  16
ATOM     15  C   UNL     1       3.943   1.196  18.366  0.00  0.00    +0.000 C 
ATOM     16  C   UNL     1       2.732   2.015  17.950  0.00  0.00    +0.000 C 
ENDBRANCH   7  16
ENDBRANCH   1  12
BRANCH   4  17
ATOM     17  N   UNL     1       0.586  12.108  19.485  0.00  0.00    +0.000 N 
ATOM     18  C   UNL     1       1.158  13.139  20.216  0.00  0.00    +0.000 C 
ATOM     19  O   UNL     1       2.090  12.994  21.004  0.00  0.00    +0.000 OA
ATOM     20  H   UNL     1      -0.099  12.387  18.794  0.00  0.00    +0.000 HD
BRANCH  18  21
ATOM     21  C   UNL     1       0.605  14.468  19.959  0.00  0.00    +0.000 A 
ATOM     22  C   UNL     1       0.965  15.307  18.917  0.00  0.00    +0.000 A 
ATOM     23  C   UNL     1       0.243  16.534  18.924  0.00  0.00    +0.000 A 
ATOM     24  C   UNL     1      -0.642  16.598  19.973  0.00  0.00    +0.000 A 
ATOM     25  S   UNL     1      -0.601  15.187  20.940  0.00  0.00    +0.000 S 
ENDBRANCH  18  21
ENDBRANCH   4  17
TORSDOF 4
ENDMDL
MODEL 4
REMARK VINA RESULT:      -6.4      5.975      6.970
REMARK  Name = 
REMARK  5 active torsions:
REMARK  status: ('A' for Active; 'I' for Inactive)
REMARK    1  A    between atoms: C_1  and  C_2
REMARK    2  A    between atoms: C_2  and  C_3
REMARK    3  A    between atoms: N_8  and  C_9
REMARK    4  A    between atoms: C_12  and  N_13
REMARK    5  A    between atoms: C_14  and  C_16
REMARK                            x       y       z     vdW  Elec       q    Type
REMARK                         _______ _______ _______ _____ _____    ______ ____
ROOT
ATOM      1  C   UNL     1       6.401   6.662  17.753  0.00  0.00    +0.000 A 
ATOM      2  C   UNL     1       7.560   6.498  18.523  0.00  0.00    +0.000 A 
ATOM      3  C   UNL     1       8.490   7.530  18.698  0.00  0.00    +0.000 A 
ATOM      4  C   UNL     1       8.289   8.770  18.103  0.00  0.00    +0.000 A 
ATOM      5  C   UNL     1       7.117   8.975  17.374  0.00  0.00    +0.000 A 
ATOM      6  C   UNL     1       6.193   7.933  17.199  0.00  0.00    +0.000 A 
ENDROOT
BRANCH   1  12
ATOM      7  C   UNL     1       2.868   2.636  18.655  0.00  0.00    +0.000 C 
ATOM      8  O   UNL     1       3.285   1.490  18.826  0.00  0.00    +0.000 OA
ATOM      9  N   UNL     1       3.704   3.737  18.725  0.00  0.00    +0.000 N 
ATOM     10  C   UNL     1       5.152   3.539  18.874  0.00  0.00    +0.000 C 
ATOM     11  C   UNL     1       5.912   4.204  17.713  0.00  0.00    +0.000 C 
ATOM     12  N   UNL     1       5.519   5.616  17.575  0.00  0.00    +0.000 N 
ATOM     13  C   UNL     1       4.069   5.866  17.468  0.00  0.00    +0.000 C 
ATOM     14  C   UNL     1       3.306   5.146  18.602  0.00  0.00    +0.000 C 
BRANCH   7  16
ATOM     15  C   UNL     1       0.523   2.890  19.563  0.00  0.00    +0.000 C 
ATOM     16  C   UNL     1       1.408   2.904  18.327  0.00  0.00    +0.000 C 
ENDBRANCH   7  16
ENDBRANCH   1  12
BRANCH   4  17
ATOM     17  N   UNL     1       9.209   9.835  18.194  0.00  0.00    +0.000 N 
ATOM     18  C   UNL     1       9.540  10.558  19.331  0.00  0.00    +0.000 C 
ATOM     19  O   UNL     1       9.069  10.348  20.446  0.00  0.00    +0.000 OA
ATOM     20  H   UNL     1       9.753  10.043  17.367  0.00  0.00    +0.000 HD
BRANCH  18  21
ATOM     21  C   UNL     1      10.551  11.596  19.137  0.00  0.00    +0.000 A 
ATOM     22  C   UNL     1      11.383  12.110  20.119  0.00  0.00    +0.000 A 
ATOM     23  C   UNL     1      12.272  13.104  19.622  0.00  0.00    +0.000 A 
ATOM     24  C   UNL     1      12.089  13.325  18.277  0.00  0.00    +0.000 A 
ATOM     25  S   UNL     1      10.855  12.337  17.623  0.00  0.00    +0.000 S 
ENDBRANCH  18  21
ENDBRANCH   4  17
TORSDOF 4
ENDMDL
MODEL 5
REMARK VINA RESULT:      -6.4      3.831      9.052
REMARK  Name = 
REMARK  5 active torsions:
REMARK  status: ('A' for Active; 'I' for Inactive)
REMARK    1  A    between atoms: C_1  and  C_2
REMARK    2  A    between atoms: C_2  and  C_3
REMARK    3  A    between atoms: N_8  and  C_9
REMARK    4  A    between atoms: C_12  and  N_13
REMARK    5  A    between atoms: C_14  and  C_16
REMARK                            x       y       z     vdW  Elec       q    Type
REMARK                         _______ _______ _______ _____ _____    ______ ____
ROOT
ATOM      1  C   UNL     1       0.644   9.387  19.589  0.00  0.00    +0.000 A 
ATOM      2  C   UNL     1       1.285   8.354  20.285  0.00  0.00    +0.000 A 
ATOM      3  C   UNL     1       2.308   7.591  19.710  0.00  0.00    +0.000 A 
ATOM      4  C   UNL     1       2.727   7.838  18.408  0.00  0.00    +0.000 A 
ATOM      5  C   UNL     1       2.141   8.895  17.711  0.00  0.00    +0.000 A 
ATOM      6  C   UNL     1       1.111   9.651  18.293  0.00  0.00    +0.000 A 
ENDROOT
BRANCH   1  12
ATOM      7  C   UNL     1      -2.333  13.393  21.731  0.00  0.00    +0.000 C 
ATOM      8  O   UNL     1      -2.269  13.616  22.941  0.00  0.00    +0.000 OA
ATOM      9  N   UNL     1      -1.395  12.610  21.081  0.00  0.00    +0.000 N 
ATOM     10  C   UNL     1      -0.367  11.911  21.863  0.00  0.00    +0.000 C 
ATOM     11  C   UNL     1      -0.435  10.394  21.615  0.00  0.00    +0.000 C 
ATOM     12  N   UNL     1      -0.382  10.101  20.173  0.00  0.00    +0.000 N 
ATOM     13  C   UNL     1      -1.368  10.817  19.341  0.00  0.00    +0.000 C 
ATOM     14  C   UNL     1      -1.337  12.332  19.639  0.00  0.00    +0.000 C 
BRANCH   7  16
ATOM     15  C   UNL     1      -4.695  13.047  20.902  0.00  0.00    +0.000 C 
ATOM     16  C   UNL     1      -3.469  13.946  20.886  0.00  0.00    +0.000 C 
ENDBRANCH   7  16
ENDBRANCH   1  12
BRANCH   4  17
ATOM     17  N   UNL     1       3.714   7.075  17.750  0.00  0.00    +0.000 N 
ATOM     18  C   UNL     1       3.699   5.706  17.526  0.00  0.00    +0.000 C 
ATOM     19  O   UNL     1       2.788   4.959  17.872  0.00  0.00    +0.000 OA
ATOM     20  H   UNL     1       4.473   7.584  17.316  0.00  0.00    +0.000 HD
BRANCH  18  21
ATOM     21  C   UNL     1       4.849   5.183  16.790  0.00  0.00    +0.000 A 
ATOM     22  C   UNL     1       4.817   4.153  15.863  0.00  0.00    +0.000 A 
ATOM     23  C   UNL     1       6.096   3.875  15.305  0.00  0.00    +0.000 A 
ATOM     24  C   UNL     1       7.068   4.695  15.826  0.00  0.00    +0.000 A 
ATOM     25  S   UNL     1       6.438   5.793  16.978  0.00  0.00    +0.000 S 
ENDBRANCH  18  21
ENDBRANCH   4  17
TORSDOF 4
ENDMDL
MODEL 6
REMARK VINA RESULT:      -6.3      1.504      1.592
REMARK  Name = 
REMARK  5 active torsions:
REMARK  status: ('A' for Active; 'I' for Inactive)
REMARK    1  A    between atoms: C_1  and  C_2
REMARK    2  A    between atoms: C_2  and  C_3
REMARK    3  A    between atoms: N_8  and  C_9
REMARK    4  A    between atoms: C_12  and  N_13
REMARK    5  A    between atoms: C_14  and  C_16
REMARK                            x       y       z     vdW  Elec       q    Type
REMARK                         _______ _______ _______ _____ _____    ______ ____
ROOT
ATOM      1  C   UNL     1       1.774   7.952  19.483  0.00  0.00    +0.000 A 
ATOM      2  C   UNL     1       1.252   8.536  20.644  0.00  0.00    +0.000 A 
ATOM      3  C   UNL     1       0.844   9.874  20.687  0.00  0.00    +0.000 A 
ATOM      4  C   UNL     1       0.945  10.680  19.558  0.00  0.00    +0.000 A 
ATOM      5  C   UNL     1       1.413  10.108  18.375  0.00  0.00    +0.000 A 
ATOM      6  C   UNL     1       1.826   8.767  18.343  0.00  0.00    +0.000 A 
ENDROOT
BRANCH   1  12
ATOM      7  C   UNL     1       1.883   2.533  19.136  0.00  0.00    +0.000 C 
ATOM      8  O   UNL     1       1.676   1.856  20.144  0.00  0.00    +0.000 OA
ATOM      9  N   UNL     1       1.575   3.881  19.084  0.00  0.00    +0.000 N 
ATOM     10  C   UNL     1       1.111   4.566  20.297  0.00  0.00    +0.000 C 
ATOM     11  C   UNL     1       2.038   5.745  20.641  0.00  0.00    +0.000 C 
ATOM     12  N   UNL     1       2.195   6.639  19.482  0.00  0.00    +0.000 N 
ATOM     13  C   UNL     1       2.616   5.985  18.227  0.00  0.00    +0.000 C 
ATOM     14  C   UNL     1       1.719   4.766  17.919  0.00  0.00    +0.000 C 
BRANCH   7  16
ATOM     15  C   UNL     1       4.004   1.646  18.084  0.00  0.00    +0.000 C 
ATOM     16  C   UNL     1       2.521   1.927  17.896  0.00  0.00    +0.000 C 
ENDBRANCH   7  16
ENDBRANCH   1  12
BRANCH   4  17
ATOM     17  N   UNL     1       0.603  12.047  19.545  0.00  0.00    +0.000 N 
ATOM     18  C   UNL     1      -0.671  12.591  19.634  0.00  0.00    +0.000 C 
ATOM     19  O   UNL     1      -1.698  11.928  19.754  0.00  0.00    +0.000 OA
ATOM     20  H   UNL     1       1.366  12.712  19.560  0.00  0.00    +0.000 HD
BRANCH  18  21
ATOM     21  C   UNL     1      -0.728  14.051  19.622  0.00  0.00    +0.000 A 
ATOM     22  C   UNL     1      -0.063  14.881  18.733  0.00  0.00    +0.000 A 
ATOM     23  C   UNL     1      -0.324  16.260  18.968  0.00  0.00    +0.000 A 
ATOM     24  C   UNL     1      -1.175  16.444  20.032  0.00  0.00    +0.000 A 
ATOM     25  S   UNL     1      -1.654  14.961  20.739  0.00  0.00    +0.000 S 
ENDBRANCH  18  21
ENDBRANCH   4  17
TORSDOF 4
ENDMDL
MODEL 7
REMARK VINA RESULT:      -6.3      3.635      4.241
REMARK  Name = 
REMARK  5 active torsions:
REMARK  status: ('A' for Active; 'I' for Inactive)
REMARK    1  A    between atoms: C_1  and  C_2
REMARK    2  A    between atoms: C_2  and  C_3
REMARK    3  A    between atoms: N_8  and  C_9
REMARK    4  A    between atoms: C_12  and  N_13
REMARK    5  A    between atoms: C_14  and  C_16
REMARK                            x       y       z     vdW  Elec       q    Type
REMARK                         _______ _______ _______ _____ _____    ______ ____
ROOT
ATOM      1  C   UNL     1       2.918   7.445  18.593  0.00  0.00    +0.000 A 
ATOM      2  C   UNL     1       2.359   7.213  19.856  0.00  0.00    +0.000 A 
ATOM      3  C   UNL     1       1.338   8.016  20.378  0.00  0.00    +0.000 A 
ATOM      4  C   UNL     1       0.839   9.087  19.647  0.00  0.00    +0.000 A 
ATOM      5  C   UNL     1       1.342   9.309  18.365  0.00  0.00    +0.000 A 
ATOM      6  C   UNL     1       2.371   8.502  17.852  0.00  0.00    +0.000 A 
ENDROOT
BRANCH   1  12
ATOM      7  C   UNL     1       5.914   4.110  15.527  0.00  0.00    +0.000 C 
ATOM      8  O   UNL     1       5.836   2.894  15.699  0.00  0.00    +0.000 OA
ATOM      9  N   UNL     1       4.976   4.985  16.047  0.00  0.00    +0.000 N 
ATOM     10  C   UNL     1       3.928   4.476  16.940  0.00  0.00    +0.000 C 
ATOM     11  C   UNL     1       3.980   5.194  18.300  0.00  0.00    +0.000 C 
ATOM     12  N   UNL     1       3.944   6.655  18.119  0.00  0.00    +0.000 N 
ATOM     13  C   UNL     1       4.952   7.206  17.193  0.00  0.00    +0.000 C 
ATOM     14  C   UNL     1       4.936   6.441  15.851  0.00  0.00    +0.000 C 
BRANCH   7  16
ATOM     15  C   UNL     1       6.973   4.464  13.259  0.00  0.00    +0.000 C 
ATOM     16  C   UNL     1       7.070   4.725  14.754  0.00  0.00    +0.000 C 
ENDBRANCH   7  16
ENDBRANCH   1  12
BRANCH   4  17
ATOM     17  N   UNL     1      -0.150   9.967  20.133  0.00  0.00    +0.000 N 
ATOM     18  C   UNL     1       0.042  11.071  20.951  0.00  0.00    +0.000 C 
ATOM     19  O   UNL     1       1.138  11.445  21.361  0.00  0.00    +0.000 OA
ATOM     20  H   UNL     1      -1.091   9.838  19.783  0.00  0.00    +0.000 HD
BRANCH  18  21
ATOM     21  C   UNL     1      -1.168  11.822  21.279  0.00  0.00    +0.000 A 
ATOM     22  C   UNL     1      -1.988  12.473  20.372  0.00  0.00    +0.000 A 
ATOM     23  C   UNL     1      -3.099  13.111  20.993  0.00  0.00    +0.000 A 
ATOM     24  C   UNL     1      -3.090  12.934  22.356  0.00  0.00    +0.000 A 
ATOM     25  S   UNL     1      -1.753  12.004  22.879  0.00  0.00    +0.000 S 
ENDBRANCH  18  21
ENDBRANCH   4  17
TORSDOF 4
ENDMDL
MODEL 8
REMARK VINA RESULT:      -6.3      1.221      1.631
REMARK  Name = 
REMARK  5 active torsions:
REMARK  status: ('A' for Active; 'I' for Inactive)
REMARK    1  A    between atoms: C_1  and  C_2
REMARK    2  A    between atoms: C_2  and  C_3
REMARK    3  A    between atoms: N_8  and  C_9
REMARK    4  A    between atoms: C_12  and  N_13
REMARK    5  A    between atoms: C_14  and  C_16
REMARK                            x       y       z     vdW  Elec       q    Type
REMARK                         _______ _______ _______ _____ _____    ______ ____
ROOT
ATOM      1  C   UNL     1       1.777   7.973  19.675  0.00  0.00    +0.000 A 
ATOM      2  C   UNL     1       1.890   8.782  18.537  0.00  0.00    +0.000 A 
ATOM      3  C   UNL     1       1.433  10.105  18.515  0.00  0.00    +0.000 A 
ATOM      4  C   UNL     1       0.844  10.667  19.642  0.00  0.00    +0.000 A 
ATOM      5  C   UNL     1       0.767   9.900  20.804  0.00  0.00    +0.000 A 
ATOM      6  C   UNL     1       1.222   8.571  20.815  0.00  0.00    +0.000 A 
ENDROOT
BRANCH   1  12
ATOM      7  C   UNL     1       1.998   2.586  19.017  0.00  0.00    +0.000 C 
ATOM      8  O   UNL     1       1.656   1.848  19.941  0.00  0.00    +0.000 OA
ATOM      9  N   UNL     1       1.685   3.934  19.004  0.00  0.00    +0.000 N 
ATOM     10  C   UNL     1       1.043   4.541  20.177  0.00  0.00    +0.000 C 
ATOM     11  C   UNL     1       1.897   5.699  20.723  0.00  0.00    +0.000 C 
ATOM     12  N   UNL     1       2.209   6.664  19.655  0.00  0.00    +0.000 N 
ATOM     13  C   UNL     1       2.814   6.090  18.436  0.00  0.00    +0.000 C 
ATOM     14  C   UNL     1       1.985   4.890  17.928  0.00  0.00    +0.000 C 
BRANCH   7  16
ATOM     15  C   UNL     1       3.948   1.151  18.294  0.00  0.00    +0.000 C 
ATOM     16  C   UNL     1       2.814   2.060  17.848  0.00  0.00    +0.000 C 
ENDBRANCH   7  16
ENDBRANCH   1  12
BRANCH   4  17
ATOM     17  N   UNL     1       0.316  11.974  19.673  0.00  0.00    +0.000 N 
ATOM     18  C   UNL     1       0.837  13.070  20.346  0.00  0.00    +0.000 C 
ATOM     19  O   UNL     1       1.869  13.046  21.012  0.00  0.00    +0.000 OA
ATOM     20  H   UNL     1      -0.479  12.163  19.075  0.00  0.00    +0.000 HD
BRANCH  18  21
ATOM     21  C   UNL     1       0.091  14.316  20.179  0.00  0.00    +0.000 A 
ATOM     22  C   UNL     1       0.257  15.228  19.149  0.00  0.00    +0.000 A 
ATOM     23  C   UNL     1      -0.623  16.342  19.254  0.00  0.00    +0.000 A 
ATOM     24  C   UNL     1      -1.430  16.252  20.363  0.00  0.00    +0.000 A 
ATOM     25  S   UNL     1      -1.126  14.832  21.269  0.00  0.00    +0.000 S 
ENDBRANCH  18  21
ENDBRANCH   4  17
TORSDOF 4
ENDMDL
MODEL 9
REMARK VINA RESULT:      -6.2      1.614      1.963
REMARK  Name = 
REMARK  5 active torsions:
REMARK  status: ('A' for Active; 'I' for Inactive)
REMARK    1  A    between atoms: C_1  and  C_2
REMARK    2  A    between atoms: C_2  and  C_3
REMARK    3  A    between atoms: N_8  and  C_9
REMARK    4  A    between atoms: C_12  and  N_13
REMARK    5  A    between atoms: C_14  and  C_16
REMARK                            x       y       z     vdW  Elec       q    Type
REMARK                         _______ _______ _______ _____ _____    ______ ____
ROOT
ATOM      1  C   UNL     1       1.792   7.979  19.690  0.00  0.00    +0.000 A 
ATOM      2  C   UNL     1       1.850   8.794  18.552  0.00  0.00    +0.000 A 
ATOM      3  C   UNL     1       1.423  10.128  18.569  0.00  0.00    +0.000 A 
ATOM      4  C   UNL     1       0.919  10.694  19.734  0.00  0.00    +0.000 A 
ATOM      5  C   UNL     1       0.899   9.919  20.893  0.00  0.00    +0.000 A 
ATOM      6  C   UNL     1       1.323   8.581  20.867  0.00  0.00    +0.000 A 
ENDROOT
BRANCH   1  12
ATOM      7  C   UNL     1       1.849   2.595  18.982  0.00  0.00    +0.000 C 
ATOM      8  O   UNL     1       1.547   1.856  19.919  0.00  0.00    +0.000 OA
ATOM      9  N   UNL     1       1.567   3.949  18.997  0.00  0.00    +0.000 N 
ATOM     10  C   UNL     1       1.012   4.561  20.211  0.00  0.00    +0.000 C 
ATOM     11  C   UNL     1       1.923   5.694  20.712  0.00  0.00    +0.000 C 
ATOM     12  N   UNL     1       2.192   6.661  19.634  0.00  0.00    +0.000 N 
ATOM     13  C   UNL     1       2.708   6.084  18.377  0.00  0.00    +0.000 C 
ATOM     14  C   UNL     1       1.822   4.908  17.912  0.00  0.00    +0.000 C 
BRANCH   7  16
ATOM     15  C   UNL     1       3.864   1.332  18.125  0.00  0.00    +0.000 C 
ATOM     16  C   UNL     1       2.580   2.060  17.761  0.00  0.00    +0.000 C 
ENDBRANCH   7  16
ENDBRANCH   1  12
BRANCH   4  17
ATOM     17  N   UNL     1       0.424  12.012  19.807  0.00  0.00    +0.000 N 
ATOM     18  C   UNL     1      -0.906  12.406  19.793  0.00  0.00    +0.000 C 
ATOM     19  O   UNL     1      -1.857  11.631  19.728  0.00  0.00    +0.000 OA
ATOM     20  H   UNL     1       1.099  12.747  19.974  0.00  0.00    +0.000 HD
BRANCH  18  21
ATOM     21  C   UNL     1      -1.131  13.846  19.910  0.00  0.00    +0.000 A 
ATOM     22  C   UNL     1      -2.116  14.453  20.672  0.00  0.00    +0.000 A 
ATOM     23  C   UNL     1      -2.077  15.874  20.592  0.00  0.00    +0.000 A 
ATOM     24  C   UNL     1      -1.068  16.309  19.767  0.00  0.00    +0.000 A 
ATOM     25  S   UNL     1      -0.175  15.012  19.098  0.00  0.00    +0.000 S 
ENDBRANCH  18  21
ENDBRANCH   4  17
TORSDOF 4
ENDMDL
