MODEL 1
REMARK VINA RESULT:      -8.8      0.000      0.000
REMARK  Name = 
REMARK  5 active torsions:
REMARK  status: ('A' for Active; 'I' for Inactive)
REMARK    1  A    between atoms: C_4  and  C_6
REMARK    2  A    between atoms: N_14  and  C_15
REMARK    3  A    between atoms: C_18  and  C_19
REMARK    4  A    between atoms: C_19  and  C_21
REMARK    5  A    between atoms: C_19  and  C_25
REMARK                            x       y       z     vdW  Elec       q    Type
REMARK                         _______ _______ _______ _____ _____    ______ ____
ROOT
ATOM      1  C   UNL     1       1.935   8.263  19.214  0.00  0.00    +0.000 A 
ATOM      2  C   UNL     1       2.554   8.497  17.991  0.00  0.00    +0.000 A 
ATOM      3  C   UNL     1       3.416   7.538  17.440  0.00  0.00    +0.000 A 
ATOM      4  C   UNL     1       3.672   6.318  18.095  0.00  0.00    +0.000 A 
ATOM      5  C   UNL     1       3.007   6.068  19.305  0.00  0.00    +0.000 A 
ATOM      6  C   UNL     1       2.165   7.039  19.851  0.00  0.00    +0.000 A 
ATOM      7  F   UNL     1       1.570   6.779  21.026  0.00  0.00    +0.000 F 
ENDROOT
BRANCH   1  13
ATOM      8  O   UNL     1      -0.271   9.989  18.202  0.00  0.00    +0.000 OA
ATOM      9  C   UNL     1       0.157  10.023  19.353  0.00  0.00    +0.000 C 
ATOM     10  N   UNL     1      -0.366  10.955  20.219  0.00  0.00    +0.000 N 
ATOM     11  C   UNL     1       0.051  11.259  21.512  0.00  0.00    +0.000 C 
ATOM     12  O   UNL     1       0.906  10.611  22.098  0.00  0.00    +0.000 OA
ATOM     13  N   UNL     1       1.130   9.208  19.877  0.00  0.00    +0.000 N 
ATOM     14  H   UNL     1      -1.086  11.513  19.791  0.00  0.00    +0.000 HD
ATOM     15  H   UNL     1       1.278   9.291  20.888  0.00  0.00    +0.000 HD
BRANCH  11  16
ATOM     16  C   UNL     1      -0.615  12.393  22.191  0.00  0.00    +0.000 A 
ATOM     17  C   UNL     1      -0.254  13.717  21.948  0.00  0.00    +0.000 A 
ATOM     18  F   UNL     1       0.779  14.008  21.142  0.00  0.00    +0.000 F 
ATOM     19  C   UNL     1      -0.958  14.776  22.523  0.00  0.00    +0.000 A 
ATOM     20  C   UNL     1      -2.038  14.516  23.366  0.00  0.00    +0.000 A 
ATOM     21  C   UNL     1      -2.395  13.197  23.639  0.00  0.00    +0.000 A 
ATOM     22  C   UNL     1      -1.686  12.147  23.052  0.00  0.00    +0.000 A 
ATOM     23  F   UNL     1      -2.054  10.897  23.367  0.00  0.00    +0.000 F 
ENDBRANCH  11  16
ENDBRANCH   1  13
BRANCH   4  24
ATOM     24  C   UNL     1       4.709   5.349  17.508  0.00  0.00    +0.000 C 
ATOM     25  F   UNL     1       4.990   5.758  16.206  0.00  0.00    +0.000 F 
BRANCH  24  26
ATOM     26  C   UNL     1       6.045   5.419  18.262  0.00  0.00    +0.000 C 
ATOM     27  F   UNL     1       6.696   6.593  18.047  0.00  0.00    +0.000 F 
ATOM     28  F   UNL     1       5.967   5.289  19.601  0.00  0.00    +0.000 F 
ATOM     29  F   UNL     1       6.897   4.453  17.828  0.00  0.00    +0.000 F 
ENDBRANCH  24  26
BRANCH  24  30
ATOM     30  C   UNL     1       4.208   3.903  17.409  0.00  0.00    +0.000 C 
ATOM     31  F   UNL     1       2.903   3.835  17.034  0.00  0.00    +0.000 F 
ATOM     32  F   UNL     1       4.893   3.220  16.451  0.00  0.00    +0.000 F 
ATOM     33  F   UNL     1       4.312   3.166  18.531  0.00  0.00    +0.000 F 
ENDBRANCH  24  30
ENDBRANCH   4  24
TORSDOF 5
ENDMDL
MODEL 2
REMARK VINA RESULT:      -8.8      0.905      2.133
REMARK  Name = 
REMARK  5 active torsions:
REMARK  status: ('A' for Active; 'I' for Inactive)
REMARK    1  A    between atoms: C_4  and  C_6
REMARK    2  A    between atoms: N_14  and  C_15
REMARK    3  A    between atoms: C_18  and  C_19
REMARK    4  A    between atoms: C_19  and  C_21
REMARK    5  A    between atoms: C_19  and  C_25
REMARK                            x       y       z     vdW  Elec       q    Type
REMARK                         _______ _______ _______ _____ _____    ______ ____
ROOT
ATOM      1  C   UNL     1       2.449   7.710  19.080  0.00  0.00    +0.000 A 
ATOM      2  C   UNL     1       3.178   7.957  17.922  0.00  0.00    +0.000 A 
ATOM      3  C   UNL     1       4.075   6.997  17.433  0.00  0.00    +0.000 A 
ATOM      4  C   UNL     1       4.257   5.763  18.086  0.00  0.00    +0.000 A 
ATOM      5  C   UNL     1       3.484   5.500  19.227  0.00  0.00    +0.000 A 
ATOM      6  C   UNL     1       2.607   6.472  19.712  0.00  0.00    +0.000 A 
ATOM      7  F   UNL     1       1.905   6.200  20.824  0.00  0.00    +0.000 F 
ENDROOT
BRANCH   1  13
ATOM      8  O   UNL     1       0.439   9.559  17.892  0.00  0.00    +0.000 OA
ATOM      9  C   UNL     1       0.723   9.526  19.087  0.00  0.00    +0.000 C 
ATOM     10  N   UNL     1       0.127  10.438  19.927  0.00  0.00    +0.000 N 
ATOM     11  C   UNL     1       0.391  10.668  21.275  0.00  0.00    +0.000 C 
ATOM     12  O   UNL     1       1.147   9.964  21.928  0.00  0.00    +0.000 OA
ATOM     13  N   UNL     1       1.598   8.654  19.685  0.00  0.00    +0.000 N 
ATOM     14  H   UNL     1      -0.518  11.041  19.442  0.00  0.00    +0.000 HD
ATOM     15  H   UNL     1       1.624   8.687  20.709  0.00  0.00    +0.000 HD
BRANCH  11  16
ATOM     16  C   UNL     1      -0.319  11.796  21.921  0.00  0.00    +0.000 A 
ATOM     17  C   UNL     1      -0.087  13.121  21.559  0.00  0.00    +0.000 A 
ATOM     18  F   UNL     1       0.857  13.430  20.658  0.00  0.00    +0.000 F 
ATOM     19  C   UNL     1      -0.835  14.162  22.112  0.00  0.00    +0.000 A 
ATOM     20  C   UNL     1      -1.827  13.883  23.051  0.00  0.00    +0.000 A 
ATOM     21  C   UNL     1      -2.052  12.565  23.442  0.00  0.00    +0.000 A 
ATOM     22  C   UNL     1      -1.301  11.533  22.878  0.00  0.00    +0.000 A 
ATOM     23  F   UNL     1      -1.539  10.285  23.306  0.00  0.00    +0.000 F 
ENDBRANCH  11  16
ENDBRANCH   1  13
BRANCH   4  24
ATOM     24  C   UNL     1       5.333   4.791  17.576  0.00  0.00    +0.000 C 
ATOM     25  F   UNL     1       5.332   3.674  18.409  0.00  0.00    +0.000 F 
BRANCH  24  26
ATOM     26  C   UNL     1       5.003   4.262  16.173  0.00  0.00    +0.000 C 
ATOM     27  F   UNL     1       3.749   3.741  16.100  0.00  0.00    +0.000 F 
ATOM     28  F   UNL     1       5.077   5.166  15.176  0.00  0.00    +0.000 F 
ATOM     29  F   UNL     1       5.834   3.242  15.832  0.00  0.00    +0.000 F 
ENDBRANCH  24  26
BRANCH  24  30
ATOM     30  C   UNL     1       6.752   5.368  17.627  0.00  0.00    +0.000 C 
ATOM     31  F   UNL     1       6.969   6.102  18.751  0.00  0.00    +0.000 F 
ATOM     32  F   UNL     1       7.678   4.371  17.666  0.00  0.00    +0.000 F 
ATOM     33  F   UNL     1       7.104   6.157  16.594  0.00  0.00    +0.000 F 
ENDBRANCH  24  30
ENDBRANCH   4  24
TORSDOF 5
ENDMDL
MODEL 3
REMARK VINA RESULT:      -8.7      0.145      1.491
REMARK  Name = 
REMARK  5 active torsions:
REMARK  status: ('A' for Active; 'I' for Inactive)
REMARK    1  A    between atoms: C_4  and  C_6
REMARK    2  A    between atoms: N_14  and  C_15
REMARK    3  A    between atoms: C_18  and  C_19
REMARK    4  A    between atoms: C_19  and  C_21
REMARK    5  A    between atoms: C_19  and  C_25
REMARK                            x       y       z     vdW  Elec       q    Type
REMARK                         _______ _______ _______ _____ _____    ______ ____
ROOT
ATOM      1  C   UNL     1       1.949   8.269  19.190  0.00  0.00    +0.000 A 
ATOM      2  C   UNL     1       2.574   8.485  17.966  0.00  0.00    +0.000 A 
ATOM      3  C   UNL     1       3.425   7.511  17.426  0.00  0.00    +0.000 A 
ATOM      4  C   UNL     1       3.664   6.293  18.093  0.00  0.00    +0.000 A 
ATOM      5  C   UNL     1       2.994   6.062  19.303  0.00  0.00    +0.000 A 
ATOM      6  C   UNL     1       2.163   7.048  19.838  0.00  0.00    +0.000 A 
ATOM      7  F   UNL     1       1.561   6.805  21.013  0.00  0.00    +0.000 F 
ENDROOT
BRANCH   1  13
ATOM      8  O   UNL     1      -0.246  10.000  18.162  0.00  0.00    +0.000 OA
ATOM      9  C   UNL     1       0.187  10.045  19.311  0.00  0.00    +0.000 C 
ATOM     10  N   UNL     1      -0.326  10.994  20.165  0.00  0.00    +0.000 N 
ATOM     11  C   UNL     1       0.098  11.311  21.453  0.00  0.00    +0.000 C 
ATOM     12  O   UNL     1       0.950  10.664  22.045  0.00  0.00    +0.000 OA
ATOM     13  N   UNL     1       1.154   9.229  19.842  0.00  0.00    +0.000 N 
ATOM     14  H   UNL     1      -1.043  11.552  19.732  0.00  0.00    +0.000 HD
ATOM     15  H   UNL     1       1.307   9.326  20.851  0.00  0.00    +0.000 HD
BRANCH  11  16
ATOM     16  C   UNL     1      -0.557  12.460  22.118  0.00  0.00    +0.000 A 
ATOM     17  C   UNL     1      -1.598  12.293  23.029  0.00  0.00    +0.000 A 
ATOM     18  F   UNL     1      -2.103  11.075  23.276  0.00  0.00    +0.000 F 
ATOM     19  C   UNL     1      -2.137  13.381  23.719  0.00  0.00    +0.000 A 
ATOM     20  C   UNL     1      -1.639  14.664  23.492  0.00  0.00    +0.000 A 
ATOM     21  C   UNL     1      -0.616  14.850  22.565  0.00  0.00    +0.000 A 
ATOM     22  C   UNL     1      -0.082  13.753  21.887  0.00  0.00    +0.000 A 
ATOM     23  F   UNL     1       0.884  13.988  20.987  0.00  0.00    +0.000 F 
ENDBRANCH  11  16
ENDBRANCH   1  13
BRANCH   4  24
ATOM     24  C   UNL     1       4.692   5.307  17.516  0.00  0.00    +0.000 C 
ATOM     25  F   UNL     1       4.982   5.702  16.212  0.00  0.00    +0.000 F 
BRANCH  24  26
ATOM     26  C   UNL     1       6.026   5.366  18.274  0.00  0.00    +0.000 C 
ATOM     27  F   UNL     1       6.681   6.540  18.073  0.00  0.00    +0.000 F 
ATOM     28  F   UNL     1       5.944   5.222  19.611  0.00  0.00    +0.000 F 
ATOM     29  F   UNL     1       6.876   4.402  17.832  0.00  0.00    +0.000 F 
ENDBRANCH  24  26
BRANCH  24  30
ATOM     30  C   UNL     1       4.173   3.867  17.426  0.00  0.00    +0.000 C 
ATOM     31  F   UNL     1       2.869   3.812  17.046  0.00  0.00    +0.000 F 
ATOM     32  F   UNL     1       4.853   3.167  16.478  0.00  0.00    +0.000 F 
ATOM     33  F   UNL     1       4.261   3.138  18.555  0.00  0.00    +0.000 F 
ENDBRANCH  24  30
ENDBRANCH   4  24
TORSDOF 5
ENDMDL
MODEL 4
REMARK VINA RESULT:      -8.6      0.896      2.568
REMARK  Name = 
REMARK  5 active torsions:
REMARK  status: ('A' for Active; 'I' for Inactive)
REMARK    1  A    between atoms: C_4  and  C_6
REMARK    2  A    between atoms: N_14  and  C_15
REMARK    3  A    between atoms: C_18  and  C_19
REMARK    4  A    between atoms: C_19  and  C_21
REMARK    5  A    between atoms: C_19  and  C_25
REMARK                            x       y       z     vdW  Elec       q    Type
REMARK                         _______ _______ _______ _____ _____    ______ ____
ROOT
ATOM      1  C   UNL     1       2.461   7.697  19.080  0.00  0.00    +0.000 A 
ATOM      2  C   UNL     1       3.203   7.913  17.923  0.00  0.00    +0.000 A 
ATOM      3  C   UNL     1       4.083   6.928  17.454  0.00  0.00    +0.000 A 
ATOM      4  C   UNL     1       4.236   5.700  18.125  0.00  0.00    +0.000 A 
ATOM      5  C   UNL     1       3.451   5.469  19.264  0.00  0.00    +0.000 A 
ATOM      6  C   UNL     1       2.590   6.465  19.730  0.00  0.00    +0.000 A 
ATOM      7  F   UNL     1       1.876   6.222  20.840  0.00  0.00    +0.000 F 
ENDROOT
BRANCH   1  13
ATOM      8  O   UNL     1       0.468   9.543  17.857  0.00  0.00    +0.000 OA
ATOM      9  C   UNL     1       0.759   9.534  19.051  0.00  0.00    +0.000 C 
ATOM     10  N   UNL     1       0.178  10.474  19.871  0.00  0.00    +0.000 N 
ATOM     11  C   UNL     1       0.451  10.733  21.211  0.00  0.00    +0.000 C 
ATOM     12  O   UNL     1       1.201  10.035  21.878  0.00  0.00    +0.000 OA
ATOM     13  N   UNL     1       1.625   8.665  19.665  0.00  0.00    +0.000 N 
ATOM     14  H   UNL     1      -0.462  11.073  19.375  0.00  0.00    +0.000 HD
ATOM     15  H   UNL     1       1.656   8.723  20.688  0.00  0.00    +0.000 HD
BRANCH  11  16
ATOM     16  C   UNL     1      -0.241  11.885  21.834  0.00  0.00    +0.000 A 
ATOM     17  C   UNL     1      -1.204  11.720  22.827  0.00  0.00    +0.000 A 
ATOM     18  F   UNL     1      -1.601  10.494  23.200  0.00  0.00    +0.000 F 
ATOM     19  C   UNL     1      -1.774  12.821  23.470  0.00  0.00    +0.000 A 
ATOM     20  C   UNL     1      -1.388  14.112  23.112  0.00  0.00    +0.000 A 
ATOM     21  C   UNL     1      -0.445  14.292  22.103  0.00  0.00    +0.000 A 
ATOM     22  C   UNL     1       0.122  13.184  21.473  0.00  0.00    +0.000 A 
ATOM     23  F   UNL     1       1.006  13.411  20.490  0.00  0.00    +0.000 F 
ENDBRANCH  11  16
ENDBRANCH   1  13
BRANCH   4  24
ATOM     24  C   UNL     1       5.296   4.700  17.636  0.00  0.00    +0.000 C 
ATOM     25  F   UNL     1       5.238   3.577  18.458  0.00  0.00    +0.000 F 
BRANCH  24  26
ATOM     26  C   UNL     1       4.989   4.193  16.219  0.00  0.00    +0.000 C 
ATOM     27  F   UNL     1       5.044   5.188  15.294  0.00  0.00    +0.000 F 
ATOM     28  F   UNL     1       5.803   3.224  15.757  0.00  0.00    +0.000 F 
ATOM     29  F   UNL     1       3.723   3.704  16.143  0.00  0.00    +0.000 F 
ENDBRANCH  24  26
BRANCH  24  30
ATOM     30  C   UNL     1       6.730   5.233  17.732  0.00  0.00    +0.000 C 
ATOM     31  F   UNL     1       7.024   6.102  16.729  0.00  0.00    +0.000 F 
ATOM     32  F   UNL     1       6.906   5.940  18.882  0.00  0.00    +0.000 F 
ATOM     33  F   UNL     1       7.705   4.304  17.719  0.00  0.00    +0.000 F 
ENDBRANCH  24  30
ENDBRANCH   4  24
TORSDOF 5
ENDMDL
MODEL 5
REMARK VINA RESULT:      -8.4      1.541      2.466
REMARK  Name = 
REMARK  5 active torsions:
REMARK  status: ('A' for Active; 'I' for Inactive)
REMARK    1  A    between atoms: C_4  and  C_6
REMARK    2  A    between atoms: N_14  and  C_15
REMARK    3  A    between atoms: C_18  and  C_19
REMARK    4  A    between atoms: C_19  and  C_21
REMARK    5  A    between atoms: C_19  and  C_25
REMARK                            x       y       z     vdW  Elec       q    Type
REMARK                         _______ _______ _______ _____ _____    ______ ____
ROOT
ATOM      1  C   UNL     1       2.410   7.797  18.693  0.00  0.00    +0.000 A 
ATOM      2  C   UNL     1       3.203   7.942  17.560  0.00  0.00    +0.000 A 
ATOM      3  C   UNL     1       4.181   6.984  17.255  0.00  0.00    +0.000 A 
ATOM      4  C   UNL     1       4.383   5.855  18.072  0.00  0.00    +0.000 A 
ATOM      5  C   UNL     1       3.547   5.690  19.186  0.00  0.00    +0.000 A 
ATOM      6  C   UNL     1       2.588   6.659  19.488  0.00  0.00    +0.000 A 
ATOM      7  F   UNL     1       1.827   6.484  20.579  0.00  0.00    +0.000 F 
ENDROOT
BRANCH   1  13
ATOM      8  O   UNL     1       2.157  10.694  18.049  0.00  0.00    +0.000 OA
ATOM      9  C   UNL     1       1.427  10.097  18.836  0.00  0.00    +0.000 C 
ATOM     10  N   UNL     1       0.469  10.816  19.513  0.00  0.00    +0.000 N 
ATOM     11  C   UNL     1      -0.372  10.380  20.534  0.00  0.00    +0.000 C 
ATOM     12  O   UNL     1      -0.435   9.211  20.882  0.00  0.00    +0.000 OA
ATOM     13  N   UNL     1       1.470   8.754  19.118  0.00  0.00    +0.000 N 
ATOM     14  H   UNL     1       0.468  11.789  19.257  0.00  0.00    +0.000 HD
ATOM     15  H   UNL     1       0.708   8.402  19.706  0.00  0.00    +0.000 HD
BRANCH  11  16
ATOM     16  C   UNL     1      -1.240  11.394  21.176  0.00  0.00    +0.000 A 
ATOM     17  C   UNL     1      -2.082  12.222  20.437  0.00  0.00    +0.000 A 
ATOM     18  F   UNL     1      -2.076  12.184  19.096  0.00  0.00    +0.000 F 
ATOM     19  C   UNL     1      -2.963  13.104  21.066  0.00  0.00    +0.000 A 
ATOM     20  C   UNL     1      -3.001  13.173  22.458  0.00  0.00    +0.000 A 
ATOM     21  C   UNL     1      -2.146  12.370  23.210  0.00  0.00    +0.000 A 
ATOM     22  C   UNL     1      -1.275  11.488  22.569  0.00  0.00    +0.000 A 
ATOM     23  F   UNL     1      -0.455  10.756  23.336  0.00  0.00    +0.000 F 
ENDBRANCH  11  16
ENDBRANCH   1  13
BRANCH   4  24
ATOM     24  C   UNL     1       5.541   4.894  17.759  0.00  0.00    +0.000 C 
ATOM     25  F   UNL     1       5.375   3.753  18.539  0.00  0.00    +0.000 F 
BRANCH  24  26
ATOM     26  C   UNL     1       5.501   4.411  16.301  0.00  0.00    +0.000 C 
ATOM     27  F   UNL     1       5.801   5.404  15.422  0.00  0.00    +0.000 F 
ATOM     28  F   UNL     1       6.335   3.397  16.000  0.00  0.00    +0.000 F 
ATOM     29  F   UNL     1       4.251   3.998  15.963  0.00  0.00    +0.000 F 
ENDBRANCH  24  26
BRANCH  24  30
ATOM     30  C   UNL     1       6.920   5.464  18.112  0.00  0.00    +0.000 C 
ATOM     31  F   UNL     1       6.978   5.912  19.395  0.00  0.00    +0.000 F 
ATOM     32  F   UNL     1       7.877   4.500  18.025  0.00  0.00    +0.000 F 
ATOM     33  F   UNL     1       7.351   6.481  17.343  0.00  0.00    +0.000 F 
ENDBRANCH  24  30
ENDBRANCH   4  24
TORSDOF 5
ENDMDL
MODEL 6
REMARK VINA RESULT:      -8.4      2.616      4.088
REMARK  Name = 
REMARK  5 active torsions:
REMARK  status: ('A' for Active; 'I' for Inactive)
REMARK    1  A    between atoms: C_4  and  C_6
REMARK    2  A    between atoms: N_14  and  C_15
REMARK    3  A    between atoms: C_18  and  C_19
REMARK    4  A    between atoms: C_19  and  C_21
REMARK    5  A    between atoms: C_19  and  C_25
REMARK                            x       y       z     vdW  Elec       q    Type
REMARK                         _______ _______ _______ _____ _____    ______ ____
ROOT
ATOM      1  C   UNL     1       1.638   8.504  19.625  0.00  0.00    +0.000 A 
ATOM      2  C   UNL     1       1.353   7.734  20.748  0.00  0.00    +0.000 A 
ATOM      3  C   UNL     1       1.704   6.377  20.783  0.00  0.00    +0.000 A 
ATOM      4  C   UNL     1       2.357   5.760  19.698  0.00  0.00    +0.000 A 
ATOM      5  C   UNL     1       2.684   6.553  18.588  0.00  0.00    +0.000 A 
ATOM      6  C   UNL     1       2.314   7.899  18.560  0.00  0.00    +0.000 A 
ATOM      7  F   UNL     1       2.616   8.620  17.469  0.00  0.00    +0.000 F 
ENDROOT
BRANCH   1  13
ATOM      8  O   UNL     1      -0.283   9.764  17.729  0.00  0.00    +0.000 OA
ATOM      9  C   UNL     1       0.390  10.389  18.546  0.00  0.00    +0.000 C 
ATOM     10  N   UNL     1       0.304  11.762  18.550  0.00  0.00    +0.000 N 
ATOM     11  C   UNL     1       1.060  12.670  19.287  0.00  0.00    +0.000 C 
ATOM     12  O   UNL     1       1.852  12.320  20.150  0.00  0.00    +0.000 OA
ATOM     13  N   UNL     1       1.242   9.846  19.475  0.00  0.00    +0.000 N 
ATOM     14  H   UNL     1      -0.347  12.107  17.863  0.00  0.00    +0.000 HD
ATOM     15  H   UNL     1       1.629  10.505  20.157  0.00  0.00    +0.000 HD
BRANCH  11  16
ATOM     16  C   UNL     1       0.842  14.109  19.018  0.00  0.00    +0.000 A 
ATOM     17  C   UNL     1      -0.375  14.735  19.282  0.00  0.00    +0.000 A 
ATOM     18  F   UNL     1      -1.428  14.029  19.719  0.00  0.00    +0.000 F 
ATOM     19  C   UNL     1      -0.530  16.113  19.113  0.00  0.00    +0.000 A 
ATOM     20  C   UNL     1       0.542  16.883  18.663  0.00  0.00    +0.000 A 
ATOM     21  C   UNL     1       1.756  16.267  18.370  0.00  0.00    +0.000 A 
ATOM     22  C   UNL     1       1.900  14.890  18.549  0.00  0.00    +0.000 A 
ATOM     23  F   UNL     1       3.081  14.341  18.229  0.00  0.00    +0.000 F 
ENDBRANCH  11  16
ENDBRANCH   1  13
BRANCH   4  24
ATOM     24  C   UNL     1       2.618   4.246  19.738  0.00  0.00    +0.000 C 
ATOM     25  F   UNL     1       2.593   3.841  21.070  0.00  0.00    +0.000 F 
BRANCH  24  26
ATOM     26  C   UNL     1       1.500   3.457  19.042  0.00  0.00    +0.000 C 
ATOM     27  F   UNL     1       0.354   3.434  19.774  0.00  0.00    +0.000 F 
ATOM     28  F   UNL     1       1.141   3.905  17.823  0.00  0.00    +0.000 F 
ATOM     29  F   UNL     1       1.852   2.153  18.887  0.00  0.00    +0.000 F 
ENDBRANCH  24  26
BRANCH  24  30
ATOM     30  C   UNL     1       3.995   3.849  19.191  0.00  0.00    +0.000 C 
ATOM     31  F   UNL     1       4.956   4.755  19.511  0.00  0.00    +0.000 F 
ATOM     32  F   UNL     1       4.411   2.675  19.738  0.00  0.00    +0.000 F 
ATOM     33  F   UNL     1       4.071   3.681  17.857  0.00  0.00    +0.000 F 
ENDBRANCH  24  30
ENDBRANCH   4  24
TORSDOF 5
ENDMDL
MODEL 7
REMARK VINA RESULT:      -8.4      1.710      2.351
REMARK  Name = 
REMARK  5 active torsions:
REMARK  status: ('A' for Active; 'I' for Inactive)
REMARK    1  A    between atoms: C_4  and  C_6
REMARK    2  A    between atoms: N_14  and  C_15
REMARK    3  A    between atoms: C_18  and  C_19
REMARK    4  A    between atoms: C_19  and  C_21
REMARK    5  A    between atoms: C_19  and  C_25
REMARK                            x       y       z     vdW  Elec       q    Type
REMARK                         _______ _______ _______ _____ _____    ______ ____
ROOT
ATOM      1  C   UNL     1       1.427   8.473  19.979  0.00  0.00    +0.000 A 
ATOM      2  C   UNL     1       1.530   7.267  20.664  0.00  0.00    +0.000 A 
ATOM      3  C   UNL     1       2.154   6.164  20.063  0.00  0.00    +0.000 A 
ATOM      4  C   UNL     1       2.698   6.245  18.767  0.00  0.00    +0.000 A 
ATOM      5  C   UNL     1       2.633   7.477  18.100  0.00  0.00    +0.000 A 
ATOM      6  C   UNL     1       1.994   8.562  18.703  0.00  0.00    +0.000 A 
ATOM      7  F   UNL     1       1.924   9.718  18.024  0.00  0.00    +0.000 F 
ENDROOT
BRANCH   1  13
ATOM      8  O   UNL     1       1.556   9.820  22.633  0.00  0.00    +0.000 OA
ATOM      9  C   UNL     1       0.792  10.150  21.728  0.00  0.00    +0.000 C 
ATOM     10  N   UNL     1      -0.106  11.164  21.969  0.00  0.00    +0.000 N 
ATOM     11  C   UNL     1      -1.139  11.612  21.149  0.00  0.00    +0.000 C 
ATOM     12  O   UNL     1      -1.298  11.205  20.007  0.00  0.00    +0.000 OA
ATOM     13  N   UNL     1       0.740   9.597  20.473  0.00  0.00    +0.000 N 
ATOM     14  H   UNL     1      -0.013  11.547  22.895  0.00  0.00    +0.000 HD
ATOM     15  H   UNL     1       0.127  10.075  19.805  0.00  0.00    +0.000 HD
BRANCH  11  16
ATOM     16  C   UNL     1      -2.039  12.650  21.698  0.00  0.00    +0.000 A 
ATOM     17  C   UNL     1      -2.254  13.863  21.047  0.00  0.00    +0.000 A 
ATOM     18  F   UNL     1      -1.580  14.168  19.927  0.00  0.00    +0.000 F 
ATOM     19  C   UNL     1      -3.180  14.789  21.531  0.00  0.00    +0.000 A 
ATOM     20  C   UNL     1      -3.901  14.510  22.692  0.00  0.00    +0.000 A 
ATOM     21  C   UNL     1      -3.678  13.313  23.368  0.00  0.00    +0.000 A 
ATOM     22  C   UNL     1      -2.754  12.393  22.870  0.00  0.00    +0.000 A 
ATOM     23  F   UNL     1      -2.558  11.267  23.571  0.00  0.00    +0.000 F 
ENDBRANCH  11  16
ENDBRANCH   1  13
BRANCH   4  24
ATOM     24  C   UNL     1       3.270   4.979  18.109  0.00  0.00    +0.000 C 
ATOM     25  F   UNL     1       3.795   5.339  16.870  0.00  0.00    +0.000 F 
BRANCH  24  26
ATOM     26  C   UNL     1       4.448   4.405  18.909  0.00  0.00    +0.000 C 
ATOM     27  F   UNL     1       5.305   3.696  18.126  0.00  0.00    +0.000 F 
ATOM     28  F   UNL     1       5.212   5.308  19.553  0.00  0.00    +0.000 F 
ATOM     29  F   UNL     1       4.012   3.525  19.849  0.00  0.00    +0.000 F 
ENDBRANCH  24  26
BRANCH  24  30
ATOM     30  C   UNL     1       2.214   3.902  17.834  0.00  0.00    +0.000 C 
ATOM     31  F   UNL     1       1.103   4.411  17.238  0.00  0.00    +0.000 F 
ATOM     32  F   UNL     1       2.690   2.969  16.967  0.00  0.00    +0.000 F 
ATOM     33  F   UNL     1       1.779   3.217  18.909  0.00  0.00    +0.000 F 
ENDBRANCH  24  30
ENDBRANCH   4  24
TORSDOF 5
ENDMDL
MODEL 8
REMARK VINA RESULT:      -8.4      1.527      2.663
REMARK  Name = 
REMARK  5 active torsions:
REMARK  status: ('A' for Active; 'I' for Inactive)
REMARK    1  A    between atoms: C_4  and  C_6
REMARK    2  A    between atoms: N_14  and  C_15
REMARK    3  A    between atoms: C_18  and  C_19
REMARK    4  A    between atoms: C_19  and  C_21
REMARK    5  A    between atoms: C_19  and  C_25
REMARK                            x       y       z     vdW  Elec       q    Type
REMARK                         _______ _______ _______ _____ _____    ______ ____
ROOT
ATOM      1  C   UNL     1       2.433   7.815  18.624  0.00  0.00    +0.000 A 
ATOM      2  C   UNL     1       3.237   7.986  17.502  0.00  0.00    +0.000 A 
ATOM      3  C   UNL     1       4.207   7.027  17.175  0.00  0.00    +0.000 A 
ATOM      4  C   UNL     1       4.389   5.870  17.957  0.00  0.00    +0.000 A 
ATOM      5  C   UNL     1       3.542   5.680  19.060  0.00  0.00    +0.000 A 
ATOM      6  C   UNL     1       2.592   6.651  19.384  0.00  0.00    +0.000 A 
ATOM      7  F   UNL     1       1.820   6.451  20.463  0.00  0.00    +0.000 F 
ENDROOT
BRANCH   1  13
ATOM      8  O   UNL     1       2.206  10.729  18.051  0.00  0.00    +0.000 OA
ATOM      9  C   UNL     1       1.469  10.118  18.822  0.00  0.00    +0.000 C 
ATOM     10  N   UNL     1       0.517  10.829  19.516  0.00  0.00    +0.000 N 
ATOM     11  C   UNL     1      -0.329  10.376  20.525  0.00  0.00    +0.000 C 
ATOM     12  O   UNL     1      -0.403   9.198  20.844  0.00  0.00    +0.000 OA
ATOM     13  N   UNL     1       1.501   8.769  19.071  0.00  0.00    +0.000 N 
ATOM     14  H   UNL     1       0.524  11.808  19.283  0.00  0.00    +0.000 HD
ATOM     15  H   UNL     1       0.735   8.409  19.650  0.00  0.00    +0.000 HD
BRANCH  11  16
ATOM     16  C   UNL     1      -1.189  11.380  21.191  0.00  0.00    +0.000 A 
ATOM     17  C   UNL     1      -1.173  11.569  22.571  0.00  0.00    +0.000 A 
ATOM     18  F   UNL     1      -0.429  10.781  23.362  0.00  0.00    +0.000 F 
ATOM     19  C   UNL     1      -1.919  12.587  23.170  0.00  0.00    +0.000 A 
ATOM     20  C   UNL     1      -2.704  13.428  22.383  0.00  0.00    +0.000 A 
ATOM     21  C   UNL     1      -2.750  13.235  21.004  0.00  0.00    +0.000 A 
ATOM     22  C   UNL     1      -1.995  12.218  20.417  0.00  0.00    +0.000 A 
ATOM     23  F   UNL     1      -2.094  12.057  19.090  0.00  0.00    +0.000 F 
ENDBRANCH  11  16
ENDBRANCH   1  13
BRANCH   4  24
ATOM     24  C   UNL     1       5.538   4.907  17.623  0.00  0.00    +0.000 C 
ATOM     25  F   UNL     1       5.543   3.895  18.580  0.00  0.00    +0.000 F 
BRANCH  24  26
ATOM     26  C   UNL     1       5.318   4.203  16.276  0.00  0.00    +0.000 C 
ATOM     27  F   UNL     1       5.159   5.086  15.254  0.00  0.00    +0.000 F 
ATOM     28  F   UNL     1       6.302   3.371  15.884  0.00  0.00    +0.000 F 
ATOM     29  F   UNL     1       4.174   3.468  16.295  0.00  0.00    +0.000 F 
ENDBRANCH  24  26
BRANCH  24  30
ATOM     30  C   UNL     1       6.923   5.564  17.681  0.00  0.00    +0.000 C 
ATOM     31  F   UNL     1       7.032   6.442  18.713  0.00  0.00    +0.000 F 
ATOM     32  F   UNL     1       7.890   4.632  17.898  0.00  0.00    +0.000 F 
ATOM     33  F   UNL     1       7.301   6.236  16.578  0.00  0.00    +0.000 F 
ENDBRANCH  24  30
ENDBRANCH   4  24
TORSDOF 5
ENDMDL
MODEL 9
REMARK VINA RESULT:      -8.3      2.560      3.818
REMARK  Name = 
REMARK  5 active torsions:
REMARK  status: ('A' for Active; 'I' for Inactive)
REMARK    1  A    between atoms: C_4  and  C_6
REMARK    2  A    between atoms: N_14  and  C_15
REMARK    3  A    between atoms: C_18  and  C_19
REMARK    4  A    between atoms: C_19  and  C_21
REMARK    5  A    between atoms: C_19  and  C_25
REMARK                            x       y       z     vdW  Elec       q    Type
REMARK                         _______ _______ _______ _____ _____    ______ ____
ROOT
ATOM      1  C   UNL     1       1.608   8.480  19.660  0.00  0.00    +0.000 A 
ATOM      2  C   UNL     1       1.362   7.693  20.780  0.00  0.00    +0.000 A 
ATOM      3  C   UNL     1       1.712   6.335  20.781  0.00  0.00    +0.000 A 
ATOM      4  C   UNL     1       2.325   5.735  19.664  0.00  0.00    +0.000 A 
ATOM      5  C   UNL     1       2.613   6.545  18.556  0.00  0.00    +0.000 A 
ATOM      6  C   UNL     1       2.244   7.891  18.562  0.00  0.00    +0.000 A 
ATOM      7  F   UNL     1       2.508   8.630  17.473  0.00  0.00    +0.000 F 
ENDROOT
BRANCH   1  13
ATOM      8  O   UNL     1      -0.347   9.778  17.825  0.00  0.00    +0.000 OA
ATOM      9  C   UNL     1       0.340  10.386  18.643  0.00  0.00    +0.000 C 
ATOM     10  N   UNL     1       0.253  11.759  18.678  0.00  0.00    +0.000 N 
ATOM     11  C   UNL     1       1.021  12.651  19.421  0.00  0.00    +0.000 C 
ATOM     12  O   UNL     1       1.829  12.285  20.261  0.00  0.00    +0.000 OA
ATOM     13  N   UNL     1       1.208   9.824  19.545  0.00  0.00    +0.000 N 
ATOM     14  H   UNL     1      -0.410  12.118  18.010  0.00  0.00    +0.000 HD
ATOM     15  H   UNL     1       1.607  10.469  20.235  0.00  0.00    +0.000 HD
BRANCH  11  16
ATOM     16  C   UNL     1       0.798  14.096  19.186  0.00  0.00    +0.000 A 
ATOM     17  C   UNL     1       1.756  14.903  18.577  0.00  0.00    +0.000 A 
ATOM     18  F   UNL     1       2.960  14.410  18.251  0.00  0.00    +0.000 F 
ATOM     19  C   UNL     1       1.489  16.241  18.277  0.00  0.00    +0.000 A 
ATOM     20  C   UNL     1       0.249  16.791  18.598  0.00  0.00    +0.000 A 
ATOM     21  C   UNL     1      -0.710  16.003  19.231  0.00  0.00    +0.000 A 
ATOM     22  C   UNL     1      -0.433  14.666  19.520  0.00  0.00    +0.000 A 
ATOM     23  F   UNL     1      -1.379  13.958  20.153  0.00  0.00    +0.000 F 
ENDBRANCH  11  16
ENDBRANCH   1  13
BRANCH   4  24
ATOM     24  C   UNL     1       2.586   4.220  19.670  0.00  0.00    +0.000 C 
ATOM     25  F   UNL     1       2.586   3.790  20.995  0.00  0.00    +0.000 F 
BRANCH  24  26
ATOM     26  C   UNL     1       1.453   3.445  18.982  0.00  0.00    +0.000 C 
ATOM     27  F   UNL     1       1.082   4.013  17.803  0.00  0.00    +0.000 F 
ATOM     28  F   UNL     1       1.719   2.156  18.694  0.00  0.00    +0.000 F 
ATOM     29  F   UNL     1       0.330   3.446  19.749  0.00  0.00    +0.000 F 
ENDBRANCH  24  26
BRANCH  24  30
ATOM     30  C   UNL     1       3.951   3.833  19.088  0.00  0.00    +0.000 C 
ATOM     31  F   UNL     1       4.926   4.714  19.434  0.00  0.00    +0.000 F 
ATOM     32  F   UNL     1       4.361   2.632  19.580  0.00  0.00    +0.000 F 
ATOM     33  F   UNL     1       4.008   3.720  17.748  0.00  0.00    +0.000 F 
ENDBRANCH  24  30
ENDBRANCH   4  24
TORSDOF 5
ENDMDL
