MODEL 1
REMARK VINA RESULT:      -8.7      0.000      0.000
REMARK  Name = 
REMARK  3 active torsions:
REMARK  status: ('A' for Active; 'I' for Inactive)
REMARK    1  A    between atoms: C_5  and  C_6
REMARK    2  A    between atoms: C_8  and  C_9
REMARK    3  A    between atoms: N_20  and  C_21
REMARK                            x       y       z     vdW  Elec       q    Type
REMARK                         _______ _______ _______ _____ _____    ______ ____
ROOT
ATOM      1  C   UNL     1       0.636  10.163  18.473  0.00  0.00    +0.000 C 
ATOM      2  C   UNL     1       1.564   9.358  17.558  0.00  0.00    +0.000 C 
ATOM      3  C   UNL     1       2.025   8.285  18.509  0.00  0.00    +0.000 C 
ATOM      4  N   UNL     1       1.612   8.415  19.732  0.00  0.00    +0.000 NA
ATOM      5  N   UNL     1       0.805   9.508  19.769  0.00  0.00    +0.000 N 
ENDROOT
BRANCH   3   6
ATOM      6  C   UNL     1       2.899   7.173  18.073  0.00  0.00    +0.000 A 
ATOM      7  C   UNL     1       2.578   5.866  18.466  0.00  0.00    +0.000 A 
ATOM      8  C   UNL     1       3.392   4.796  18.087  0.00  0.00    +0.000 A 
ATOM      9  C   UNL     1       4.533   5.033  17.323  0.00  0.00    +0.000 A 
ATOM     10  C   UNL     1       4.839   6.331  16.907  0.00  0.00    +0.000 A 
ATOM     11  C   UNL     1       4.030   7.403  17.282  0.00  0.00    +0.000 A 
ATOM     12  O   UNL     1       5.935   6.635  16.139  0.00  0.00    +0.000 OA
ATOM     13  C   UNL     1       6.527   5.462  15.569  0.00  0.00    +0.000 C 
ATOM     14  C   UNL     1       6.610   4.338  16.590  0.00  0.00    +0.000 C 
ATOM     15  O   UNL     1       5.302   3.945  17.016  0.00  0.00    +0.000 OA
ENDBRANCH   3   6
BRANCH   1  20
ATOM     16 BR   UNL     1       2.202  16.176  18.664  0.00  0.00    +0.000 Br
ATOM     17  C   UNL     1       1.724  14.348  18.603  0.00  0.00    +0.000 A 
ATOM     18  C   UNL     1       2.719  13.372  18.578  0.00  0.00    +0.000 A 
ATOM     19  C   UNL     1       2.366  12.020  18.546  0.00  0.00    +0.000 A 
ATOM     20  C   UNL     1       1.016  11.636  18.535  0.00  0.00    +0.000 A 
ATOM     21  C   UNL     1       0.030  12.638  18.542  0.00  0.00    +0.000 A 
ATOM     22  C   UNL     1       0.380  13.988  18.581  0.00  0.00    +0.000 A 
ENDBRANCH   1  20
BRANCH   5  23
ATOM     23  C   UNL     1       0.174   9.880  20.951  0.00  0.00    +0.000 A 
ATOM     24  C   UNL     1       0.405   9.157  22.133  0.00  0.00    +0.000 A 
ATOM     25  C   UNL     1      -0.181   9.529  23.344  0.00  0.00    +0.000 A 
ATOM     26  C   UNL     1      -1.036  10.624  23.393  0.00  0.00    +0.000 A 
ATOM     27  C   UNL     1      -1.297  11.348  22.235  0.00  0.00    +0.000 A 
ATOM     28  C   UNL     1      -0.690  10.981  21.030  0.00  0.00    +0.000 A 
ENDBRANCH   5  23
TORSDOF 3
ENDMDL
MODEL 2
REMARK VINA RESULT:      -8.3      1.071      1.301
REMARK  Name = 
REMARK  3 active torsions:
REMARK  status: ('A' for Active; 'I' for Inactive)
REMARK    1  A    between atoms: C_5  and  C_6
REMARK    2  A    between atoms: C_8  and  C_9
REMARK    3  A    between atoms: N_20  and  C_21
REMARK                            x       y       z     vdW  Elec       q    Type
REMARK                         _______ _______ _______ _____ _____    ______ ____
ROOT
ATOM      1  C   UNL     1       0.379  11.042  18.642  0.00  0.00    +0.000 C 
ATOM      2  C   UNL     1       1.395  10.102  17.986  0.00  0.00    +0.000 C 
ATOM      3  C   UNL     1       1.505   9.036  19.044  0.00  0.00    +0.000 C 
ATOM      4  N   UNL     1       0.843   9.267  20.134  0.00  0.00    +0.000 NA
ATOM      5  N   UNL     1       0.175  10.439  19.957  0.00  0.00    +0.000 N 
ENDROOT
BRANCH   3   6
ATOM      6  C   UNL     1       2.326   7.819  18.849  0.00  0.00    +0.000 A 
ATOM      7  C   UNL     1       2.260   6.797  19.808  0.00  0.00    +0.000 A 
ATOM      8  C   UNL     1       3.034   5.645  19.664  0.00  0.00    +0.000 A 
ATOM      9  C   UNL     1       3.884   5.516  18.567  0.00  0.00    +0.000 A 
ATOM     10  C   UNL     1       3.930   6.520  17.596  0.00  0.00    +0.000 A 
ATOM     11  C   UNL     1       3.159   7.673  17.735  0.00  0.00    +0.000 A 
ATOM     12  O   UNL     1       4.729   6.452  16.483  0.00  0.00    +0.000 OA
ATOM     13  C   UNL     1       5.248   5.132  16.280  0.00  0.00    +0.000 C 
ATOM     14  C   UNL     1       5.727   4.525  17.590  0.00  0.00    +0.000 C 
ATOM     15  O   UNL     1       4.638   4.377  18.506  0.00  0.00    +0.000 OA
ENDBRANCH   3   6
BRANCH   1  20
ATOM     16 BR   UNL     1       2.524  16.864  19.044  0.00  0.00    +0.000 Br
ATOM     17  C   UNL     1       1.871  15.094  18.918  0.00  0.00    +0.000 A 
ATOM     18  C   UNL     1       2.727  14.021  19.158  0.00  0.00    +0.000 A 
ATOM     19  C   UNL     1       2.242  12.713  19.078  0.00  0.00    +0.000 A 
ATOM     20  C   UNL     1       0.898  12.469  18.754  0.00  0.00    +0.000 A 
ATOM     21  C   UNL     1       0.057  13.567  18.498  0.00  0.00    +0.000 A 
ATOM     22  C   UNL     1       0.538  14.873  18.584  0.00  0.00    +0.000 A 
ENDBRANCH   1  20
BRANCH   5  23
ATOM     23  C   UNL     1      -0.662  10.932  20.952  0.00  0.00    +0.000 A 
ATOM     24  C   UNL     1      -0.520  10.490  22.278  0.00  0.00    +0.000 A 
ATOM     25  C   UNL     1      -1.318  10.995  23.306  0.00  0.00    +0.000 A 
ATOM     26  C   UNL     1      -2.298  11.940  23.023  0.00  0.00    +0.000 A 
ATOM     27  C   UNL     1      -2.473  12.382  21.716  0.00  0.00    +0.000 A 
ATOM     28  C   UNL     1      -1.656  11.886  20.695  0.00  0.00    +0.000 A 
ENDBRANCH   5  23
TORSDOF 3
ENDMDL
MODEL 3
REMARK VINA RESULT:      -8.3      1.318      2.236
REMARK  Name = 
REMARK  3 active torsions:
REMARK  status: ('A' for Active; 'I' for Inactive)
REMARK    1  A    between atoms: C_5  and  C_6
REMARK    2  A    between atoms: C_8  and  C_9
REMARK    3  A    between atoms: N_20  and  C_21
REMARK                            x       y       z     vdW  Elec       q    Type
REMARK                         _______ _______ _______ _____ _____    ______ ____
ROOT
ATOM      1  C   UNL     1       0.380  10.863  18.611  0.00  0.00    +0.000 C 
ATOM      2  C   UNL     1       1.368   9.939  17.891  0.00  0.00    +0.000 C 
ATOM      3  C   UNL     1       1.567   8.878  18.941  0.00  0.00    +0.000 C 
ATOM      4  N   UNL     1       0.974   9.101  20.073  0.00  0.00    +0.000 NA
ATOM      5  N   UNL     1       0.275  10.259  19.938  0.00  0.00    +0.000 N 
ENDROOT
BRANCH   3   6
ATOM      6  C   UNL     1       2.396   7.676  18.695  0.00  0.00    +0.000 A 
ATOM      7  C   UNL     1       3.318   7.695  17.639  0.00  0.00    +0.000 A 
ATOM      8  C   UNL     1       4.102   6.572  17.368  0.00  0.00    +0.000 A 
ATOM      9  C   UNL     1       3.959   5.426  18.146  0.00  0.00    +0.000 A 
ATOM     10  C   UNL     1       3.061   5.414  19.217  0.00  0.00    +0.000 A 
ATOM     11  C   UNL     1       2.275   6.533  19.492  0.00  0.00    +0.000 A 
ATOM     12  O   UNL     1       2.881   4.327  20.035  0.00  0.00    +0.000 OA
ATOM     13  C   UNL     1       3.919   3.355  19.863  0.00  0.00    +0.000 C 
ATOM     14  C   UNL     1       4.236   3.146  18.391  0.00  0.00    +0.000 C 
ATOM     15  O   UNL     1       4.734   4.352  17.804  0.00  0.00    +0.000 OA
ENDBRANCH   3   6
BRANCH   1  20
ATOM     16 BR   UNL     1       2.395  16.733  18.975  0.00  0.00    +0.000 Br
ATOM     17  C   UNL     1       1.783  14.947  18.867  0.00  0.00    +0.000 A 
ATOM     18  C   UNL     1       0.437  14.690  18.616  0.00  0.00    +0.000 A 
ATOM     19  C   UNL     1      -0.014  13.370  18.524  0.00  0.00    +0.000 A 
ATOM     20  C   UNL     1       0.879  12.299  18.686  0.00  0.00    +0.000 A 
ATOM     21  C   UNL     1       2.230  12.583  18.958  0.00  0.00    +0.000 A 
ATOM     22  C   UNL     1       2.682  13.899  19.043  0.00  0.00    +0.000 A 
ENDBRANCH   1  20
BRANCH   5  23
ATOM     23  C   UNL     1      -0.504  10.740  20.985  0.00  0.00    +0.000 A 
ATOM     24  C   UNL     1      -0.388  10.179  22.268  0.00  0.00    +0.000 A 
ATOM     25  C   UNL     1      -1.125  10.665  23.348  0.00  0.00    +0.000 A 
ATOM     26  C   UNL     1      -2.020  11.713  23.161  0.00  0.00    +0.000 A 
ATOM     27  C   UNL     1      -2.168  12.276  21.898  0.00  0.00    +0.000 A 
ATOM     28  C   UNL     1      -1.411  11.797  20.826  0.00  0.00    +0.000 A 
ENDBRANCH   5  23
TORSDOF 3
ENDMDL
MODEL 4
REMARK VINA RESULT:      -8.3      1.265      2.187
REMARK  Name = 
REMARK  3 active torsions:
REMARK  status: ('A' for Active; 'I' for Inactive)
REMARK    1  A    between atoms: C_5  and  C_6
REMARK    2  A    between atoms: C_8  and  C_9
REMARK    3  A    between atoms: N_20  and  C_21
REMARK                            x       y       z     vdW  Elec       q    Type
REMARK                         _______ _______ _______ _____ _____    ______ ____
ROOT
ATOM      1  C   UNL     1       0.459  10.779  18.595  0.00  0.00    +0.000 C 
ATOM      2  C   UNL     1       1.428   9.847  17.860  0.00  0.00    +0.000 C 
ATOM      3  C   UNL     1       1.651   8.795  18.915  0.00  0.00    +0.000 C 
ATOM      4  N   UNL     1       1.085   9.028  20.058  0.00  0.00    +0.000 NA
ATOM      5  N   UNL     1       0.384  10.186  19.929  0.00  0.00    +0.000 N 
ENDROOT
BRANCH   3   6
ATOM      6  C   UNL     1       2.472   7.590  18.659  0.00  0.00    +0.000 A 
ATOM      7  C   UNL     1       3.388   7.608  17.597  0.00  0.00    +0.000 A 
ATOM      8  C   UNL     1       4.165   6.482  17.318  0.00  0.00    +0.000 A 
ATOM      9  C   UNL     1       4.020   5.333  18.093  0.00  0.00    +0.000 A 
ATOM     10  C   UNL     1       3.129   5.323  19.170  0.00  0.00    +0.000 A 
ATOM     11  C   UNL     1       2.351   6.445  19.453  0.00  0.00    +0.000 A 
ATOM     12  O   UNL     1       2.950   4.234  19.985  0.00  0.00    +0.000 OA
ATOM     13  C   UNL     1       3.981   3.258  19.804  0.00  0.00    +0.000 C 
ATOM     14  C   UNL     1       4.288   3.051  18.329  0.00  0.00    +0.000 C 
ATOM     15  O   UNL     1       4.788   4.257  17.743  0.00  0.00    +0.000 OA
ENDBRANCH   3   6
BRANCH   1  20
ATOM     16 BR   UNL     1       2.523  16.641  18.743  0.00  0.00    +0.000 Br
ATOM     17  C   UNL     1       1.894  14.859  18.695  0.00  0.00    +0.000 A 
ATOM     18  C   UNL     1       2.803  13.803  18.704  0.00  0.00    +0.000 A 
ATOM     19  C   UNL     1       2.338  12.484  18.681  0.00  0.00    +0.000 A 
ATOM     20  C   UNL     1       0.961  12.215  18.646  0.00  0.00    +0.000 A 
ATOM     21  C   UNL     1       0.063  13.297  18.619  0.00  0.00    +0.000 A 
ATOM     22  C   UNL     1       0.525  14.612  18.648  0.00  0.00    +0.000 A 
ENDBRANCH   1  20
BRANCH   5  23
ATOM     23  C   UNL     1      -0.369  10.677  20.990  0.00  0.00    +0.000 A 
ATOM     24  C   UNL     1      -1.277  11.729  20.786  0.00  0.00    +0.000 A 
ATOM     25  C   UNL     1      -2.077  12.217  21.821  0.00  0.00    +0.000 A 
ATOM     26  C   UNL     1      -1.965  11.676  23.097  0.00  0.00    +0.000 A 
ATOM     27  C   UNL     1      -1.061  10.646  23.332  0.00  0.00    +0.000 A 
ATOM     28  C   UNL     1      -0.279  10.149  22.286  0.00  0.00    +0.000 A 
ENDBRANCH   5  23
TORSDOF 3
ENDMDL
MODEL 5
REMARK VINA RESULT:      -8.2      1.539      2.372
REMARK  Name = 
REMARK  3 active torsions:
REMARK  status: ('A' for Active; 'I' for Inactive)
REMARK    1  A    between atoms: C_5  and  C_6
REMARK    2  A    between atoms: C_8  and  C_9
REMARK    3  A    between atoms: N_20  and  C_21
REMARK                            x       y       z     vdW  Elec       q    Type
REMARK                         _______ _______ _______ _____ _____    ______ ____
ROOT
ATOM      1  C   UNL     1       1.032  10.946  18.707  0.00  0.00    +0.000 C 
ATOM      2  C   UNL     1       1.986   9.930  18.073  0.00  0.00    +0.000 C 
ATOM      3  C   UNL     1       1.813   8.766  19.012  0.00  0.00    +0.000 C 
ATOM      4  N   UNL     1       1.053   8.991  20.038  0.00  0.00    +0.000 NA
ATOM      5  N   UNL     1       0.580  10.260  19.916  0.00  0.00    +0.000 N 
ENDROOT
BRANCH   3   6
ATOM      6  C   UNL     1       2.479   7.464  18.780  0.00  0.00    +0.000 A 
ATOM      7  C   UNL     1       3.347   7.334  17.686  0.00  0.00    +0.000 A 
ATOM      8  C   UNL     1       3.977   6.115  17.429  0.00  0.00    +0.000 A 
ATOM      9  C   UNL     1       3.733   5.022  18.258  0.00  0.00    +0.000 A 
ATOM     10  C   UNL     1       2.891   5.158  19.365  0.00  0.00    +0.000 A 
ATOM     11  C   UNL     1       2.259   6.373  19.627  0.00  0.00    +0.000 A 
ATOM     12  O   UNL     1       2.621   4.130  20.233  0.00  0.00    +0.000 OA
ATOM     13  C   UNL     1       3.525   3.034  20.058  0.00  0.00    +0.000 C 
ATOM     14  C   UNL     1       3.745   2.736  18.583  0.00  0.00    +0.000 C 
ATOM     15  O   UNL     1       4.357   3.851  17.928  0.00  0.00    +0.000 OA
ENDBRANCH   3   6
BRANCH   1  20
ATOM     16 BR   UNL     1       3.901  16.296  20.048  0.00  0.00    +0.000 Br
ATOM     17  C   UNL     1       3.031  14.668  19.638  0.00  0.00    +0.000 A 
ATOM     18  C   UNL     1       2.680  13.793  20.664  0.00  0.00    +0.000 A 
ATOM     19  C   UNL     1       2.025  12.595  20.363  0.00  0.00    +0.000 A 
ATOM     20  C   UNL     1       1.721  12.264  19.034  0.00  0.00    +0.000 A 
ATOM     21  C   UNL     1       2.103  13.153  18.013  0.00  0.00    +0.000 A 
ATOM     22  C   UNL     1       2.750  14.352  18.313  0.00  0.00    +0.000 A 
ENDBRANCH   1  20
BRANCH   5  23
ATOM     23  C   UNL     1      -0.304  10.778  20.857  0.00  0.00    +0.000 A 
ATOM     24  C   UNL     1      -0.247  10.347  22.192  0.00  0.00    +0.000 A 
ATOM     25  C   UNL     1      -1.093  10.877  23.168  0.00  0.00    +0.000 A 
ATOM     26  C   UNL     1      -2.037  11.837  22.821  0.00  0.00    +0.000 A 
ATOM     27  C   UNL     1      -2.128  12.269  21.502  0.00  0.00    +0.000 A 
ATOM     28  C   UNL     1      -1.264  11.748  20.535  0.00  0.00    +0.000 A 
ENDBRANCH   5  23
TORSDOF 3
ENDMDL
MODEL 6
REMARK VINA RESULT:      -8.1      1.673      2.744
REMARK  Name = 
REMARK  3 active torsions:
REMARK  status: ('A' for Active; 'I' for Inactive)
REMARK    1  A    between atoms: C_5  and  C_6
REMARK    2  A    between atoms: C_8  and  C_9
REMARK    3  A    between atoms: N_20  and  C_21
REMARK                            x       y       z     vdW  Elec       q    Type
REMARK                         _______ _______ _______ _____ _____    ______ ____
ROOT
ATOM      1  C   UNL     1       0.926  11.176  18.785  0.00  0.00    +0.000 C 
ATOM      2  C   UNL     1       1.879  10.125  18.207  0.00  0.00    +0.000 C 
ATOM      3  C   UNL     1       1.633   8.981  19.154  0.00  0.00    +0.000 C 
ATOM      4  N   UNL     1       0.836   9.241  20.143  0.00  0.00    +0.000 NA
ATOM      5  N   UNL     1       0.404  10.520  19.982  0.00  0.00    +0.000 N 
ENDROOT
BRANCH   3   6
ATOM      6  C   UNL     1       2.274   7.658  18.969  0.00  0.00    +0.000 A 
ATOM      7  C   UNL     1       3.146   7.474  17.887  0.00  0.00    +0.000 A 
ATOM      8  C   UNL     1       3.752   6.235  17.673  0.00  0.00    +0.000 A 
ATOM      9  C   UNL     1       3.480   5.175  18.535  0.00  0.00    +0.000 A 
ATOM     10  C   UNL     1       2.634   5.364  19.632  0.00  0.00    +0.000 A 
ATOM     11  C   UNL     1       2.025   6.600  19.850  0.00  0.00    +0.000 A 
ATOM     12  O   UNL     1       2.336   4.371  20.530  0.00  0.00    +0.000 OA
ATOM     13  C   UNL     1       3.218   3.251  20.397  0.00  0.00    +0.000 C 
ATOM     14  C   UNL     1       3.442   2.900  18.934  0.00  0.00    +0.000 C 
ATOM     15  O   UNL     1       4.081   3.981  18.248  0.00  0.00    +0.000 OA
ENDBRANCH   3   6
BRANCH   1  20
ATOM     16 BR   UNL     1       3.770  16.527  20.172  0.00  0.00    +0.000 Br
ATOM     17  C   UNL     1       2.903  14.900  19.753  0.00  0.00    +0.000 A 
ATOM     18  C   UNL     1       2.431  14.680  18.460  0.00  0.00    +0.000 A 
ATOM     19  C   UNL     1       1.801  13.472  18.146  0.00  0.00    +0.000 A 
ATOM     20  C   UNL     1       1.636  12.479  19.124  0.00  0.00    +0.000 A 
ATOM     21  C   UNL     1       2.103  12.732  20.427  0.00  0.00    +0.000 A 
ATOM     22  C   UNL     1       2.738  13.933  20.739  0.00  0.00    +0.000 A 
ENDBRANCH   1  20
BRANCH   5  23
ATOM     23  C   UNL     1      -0.506  11.075  20.877  0.00  0.00    +0.000 A 
ATOM     24  C   UNL     1      -1.521  11.929  20.414  0.00  0.00    +0.000 A 
ATOM     25  C   UNL     1      -2.473  12.470  21.280  0.00  0.00    +0.000 A 
ATOM     26  C   UNL     1      -2.413  12.187  22.640  0.00  0.00    +0.000 A 
ATOM     27  C   UNL     1      -1.408  11.359  23.129  0.00  0.00    +0.000 A 
ATOM     28  C   UNL     1      -0.471  10.805  22.252  0.00  0.00    +0.000 A 
ENDBRANCH   5  23
TORSDOF 3
ENDMDL
MODEL 7
REMARK VINA RESULT:      -8.1      1.450      2.124
REMARK  Name = 
REMARK  3 active torsions:
REMARK  status: ('A' for Active; 'I' for Inactive)
REMARK    1  A    between atoms: C_5  and  C_6
REMARK    2  A    between atoms: C_8  and  C_9
REMARK    3  A    between atoms: N_20  and  C_21
REMARK                            x       y       z     vdW  Elec       q    Type
REMARK                         _______ _______ _______ _____ _____    ______ ____
ROOT
ATOM      1  C   UNL     1       0.491  11.591  18.856  0.00  0.00    +0.000 C 
ATOM      2  C   UNL     1       1.517  10.590  18.315  0.00  0.00    +0.000 C 
ATOM      3  C   UNL     1       1.317   9.446  19.273  0.00  0.00    +0.000 C 
ATOM      4  N   UNL     1       0.484   9.673  20.240  0.00  0.00    +0.000 NA
ATOM      5  N   UNL     1      -0.020  10.922  20.051  0.00  0.00    +0.000 N 
ENDROOT
BRANCH   3   6
ATOM      6  C   UNL     1       2.037   8.162  19.122  0.00  0.00    +0.000 A 
ATOM      7  C   UNL     1       1.873   7.174  20.105  0.00  0.00    +0.000 A 
ATOM      8  C   UNL     1       2.552   5.959  20.002  0.00  0.00    +0.000 A 
ATOM      9  C   UNL     1       3.404   5.732  18.923  0.00  0.00    +0.000 A 
ATOM     10  C   UNL     1       3.546   6.703  17.928  0.00  0.00    +0.000 A 
ATOM     11  C   UNL     1       2.870   7.919  18.025  0.00  0.00    +0.000 A 
ATOM     12  O   UNL     1       4.352   6.540  16.830  0.00  0.00    +0.000 OA
ATOM     13  C   UNL     1       4.763   5.177  16.669  0.00  0.00    +0.000 C 
ATOM     14  C   UNL     1       5.172   4.567  18.001  0.00  0.00    +0.000 C 
ATOM     15  O   UNL     1       4.062   4.533  18.903  0.00  0.00    +0.000 OA
ENDBRANCH   3   6
BRANCH   1  20
ATOM     16 BR   UNL     1       2.997  17.103  20.266  0.00  0.00    +0.000 Br
ATOM     17  C   UNL     1       2.235  15.426  19.841  0.00  0.00    +0.000 A 
ATOM     18  C   UNL     1       1.097  15.366  19.038  0.00  0.00    +0.000 A 
ATOM     19  C   UNL     1       0.540  14.126  18.712  0.00  0.00    +0.000 A 
ATOM     20  C   UNL     1       1.115  12.939  19.191  0.00  0.00    +0.000 A 
ATOM     21  C   UNL     1       2.252  13.024  20.015  0.00  0.00    +0.000 A 
ATOM     22  C   UNL     1       2.812  14.261  20.335  0.00  0.00    +0.000 A 
ENDBRANCH   1  20
BRANCH   5  23
ATOM     23  C   UNL     1      -0.980  11.435  20.917  0.00  0.00    +0.000 A 
ATOM     24  C   UNL     1      -0.860  11.238  22.303  0.00  0.00    +0.000 A 
ATOM     25  C   UNL     1      -1.785  11.774  23.200  0.00  0.00    +0.000 A 
ATOM     26  C   UNL     1      -2.871  12.500  22.725  0.00  0.00    +0.000 A 
ATOM     27  C   UNL     1      -3.025  12.696  21.357  0.00  0.00    +0.000 A 
ATOM     28  C   UNL     1      -2.083  12.173  20.466  0.00  0.00    +0.000 A 
ENDBRANCH   5  23
TORSDOF 3
ENDMDL
MODEL 8
REMARK VINA RESULT:      -8.1      1.876      2.960
REMARK  Name = 
REMARK  3 active torsions:
REMARK  status: ('A' for Active; 'I' for Inactive)
REMARK    1  A    between atoms: C_5  and  C_6
REMARK    2  A    between atoms: C_8  and  C_9
REMARK    3  A    between atoms: N_20  and  C_21
REMARK                            x       y       z     vdW  Elec       q    Type
REMARK                         _______ _______ _______ _____ _____    ______ ____
ROOT
ATOM      1  C   UNL     1       0.929  10.977  18.815  0.00  0.00    +0.000 C 
ATOM      2  C   UNL     1       1.846   9.847  18.334  0.00  0.00    +0.000 C 
ATOM      3  C   UNL     1       1.532   8.786  19.355  0.00  0.00    +0.000 C 
ATOM      4  N   UNL     1       0.729   9.151  20.305  0.00  0.00    +0.000 NA
ATOM      5  N   UNL     1       0.356  10.432  20.044  0.00  0.00    +0.000 N 
ENDROOT
BRANCH   3   6
ATOM      6  C   UNL     1       2.117   7.427  19.279  0.00  0.00    +0.000 A 
ATOM      7  C   UNL     1       2.980   7.121  18.217  0.00  0.00    +0.000 A 
ATOM      8  C   UNL     1       3.534   5.844  18.106  0.00  0.00    +0.000 A 
ATOM      9  C   UNL     1       3.218   4.869  19.050  0.00  0.00    +0.000 A 
ATOM     10  C   UNL     1       2.382   5.181  20.125  0.00  0.00    +0.000 A 
ATOM     11  C   UNL     1       1.825   6.455  20.241  0.00  0.00    +0.000 A 
ATOM     12  O   UNL     1       2.044   4.277  21.100  0.00  0.00    +0.000 OA
ATOM     13  C   UNL     1       2.878   3.114  21.060  0.00  0.00    +0.000 C 
ATOM     14  C   UNL     1       3.086   2.638  19.631  0.00  0.00    +0.000 C 
ATOM     15  O   UNL     1       3.770   3.632  18.861  0.00  0.00    +0.000 OA
ENDBRANCH   3   6
BRANCH   1  20
ATOM     16 BR   UNL     1       4.086  16.225  19.886  0.00  0.00    +0.000 Br
ATOM     17  C   UNL     1       3.128  14.627  19.559  0.00  0.00    +0.000 A 
ATOM     18  C   UNL     1       2.731  13.826  20.627  0.00  0.00    +0.000 A 
ATOM     19  C   UNL     1       2.012  12.652  20.387  0.00  0.00    +0.000 A 
ATOM     20  C   UNL     1       1.689  12.270  19.075  0.00  0.00    +0.000 A 
ATOM     21  C   UNL     1       2.118  13.084  18.011  0.00  0.00    +0.000 A 
ATOM     22  C   UNL     1       2.829  14.260  18.251  0.00  0.00    +0.000 A 
ENDBRANCH   1  20
BRANCH   5  23
ATOM     23  C   UNL     1      -0.545  11.088  20.876  0.00  0.00    +0.000 A 
ATOM     24  C   UNL     1      -1.531  11.926  20.329  0.00  0.00    +0.000 A 
ATOM     25  C   UNL     1      -2.475  12.567  21.134  0.00  0.00    +0.000 A 
ATOM     26  C   UNL     1      -2.435  12.403  22.514  0.00  0.00    +0.000 A 
ATOM     27  C   UNL     1      -1.458  11.593  23.084  0.00  0.00    +0.000 A 
ATOM     28  C   UNL     1      -0.529  10.939  22.270  0.00  0.00    +0.000 A 
ENDBRANCH   5  23
TORSDOF 3
ENDMDL
MODEL 9
REMARK VINA RESULT:      -8.1      1.483      2.192
REMARK  Name = 
REMARK  3 active torsions:
REMARK  status: ('A' for Active; 'I' for Inactive)
REMARK    1  A    between atoms: C_5  and  C_6
REMARK    2  A    between atoms: C_8  and  C_9
REMARK    3  A    between atoms: N_20  and  C_21
REMARK                            x       y       z     vdW  Elec       q    Type
REMARK                         _______ _______ _______ _____ _____    ______ ____
ROOT
ATOM      1  C   UNL     1       0.419  11.609  18.875  0.00  0.00    +0.000 C 
ATOM      2  C   UNL     1       1.444  10.605  18.340  0.00  0.00    +0.000 C 
ATOM      3  C   UNL     1       1.251   9.471  19.310  0.00  0.00    +0.000 C 
ATOM      4  N   UNL     1       0.421   9.705  20.278  0.00  0.00    +0.000 NA
ATOM      5  N   UNL     1      -0.085  10.952  20.079  0.00  0.00    +0.000 N 
ENDROOT
BRANCH   3   6
ATOM      6  C   UNL     1       1.973   8.186  19.169  0.00  0.00    +0.000 A 
ATOM      7  C   UNL     1       1.811   7.206  20.160  0.00  0.00    +0.000 A 
ATOM      8  C   UNL     1       2.491   5.991  20.067  0.00  0.00    +0.000 A 
ATOM      9  C   UNL     1       3.342   5.756  18.989  0.00  0.00    +0.000 A 
ATOM     10  C   UNL     1       3.483   6.719  17.986  0.00  0.00    +0.000 A 
ATOM     11  C   UNL     1       2.805   7.935  18.074  0.00  0.00    +0.000 A 
ATOM     12  O   UNL     1       4.288   6.548  16.888  0.00  0.00    +0.000 OA
ATOM     13  C   UNL     1       4.701   5.185  16.739  0.00  0.00    +0.000 C 
ATOM     14  C   UNL     1       5.111   4.586  18.075  0.00  0.00    +0.000 C 
ATOM     15  O   UNL     1       4.002   4.558  18.978  0.00  0.00    +0.000 OA
ENDBRANCH   3   6
BRANCH   1  20
ATOM     16 BR   UNL     1       3.008  17.120  20.133  0.00  0.00    +0.000 Br
ATOM     17  C   UNL     1       2.221  15.444  19.747  0.00  0.00    +0.000 A 
ATOM     18  C   UNL     1       2.786  14.279  20.261  0.00  0.00    +0.000 A 
ATOM     19  C   UNL     1       2.197  13.041  19.987  0.00  0.00    +0.000 A 
ATOM     20  C   UNL     1       1.042  12.961  19.194  0.00  0.00    +0.000 A 
ATOM     21  C   UNL     1       0.501  14.149  18.669  0.00  0.00    +0.000 A 
ATOM     22  C   UNL     1       1.084  15.385  18.948  0.00  0.00    +0.000 A 
ENDBRANCH   1  20
BRANCH   5  23
ATOM     23  C   UNL     1      -1.043  11.471  20.943  0.00  0.00    +0.000 A 
ATOM     24  C   UNL     1      -2.132  12.199  20.436  0.00  0.00    +0.000 A 
ATOM     25  C   UNL     1      -3.131  12.699  21.273  0.00  0.00    +0.000 A 
ATOM     26  C   UNL     1      -3.047  12.503  22.647  0.00  0.00    +0.000 A 
ATOM     27  C   UNL     1      -1.970  11.801  23.179  0.00  0.00    +0.000 A 
ATOM     28  C   UNL     1      -0.985  11.286  22.332  0.00  0.00    +0.000 A 
ENDBRANCH   5  23
TORSDOF 3
ENDMDL
