MODEL 1
REMARK VINA RESULT:      -9.4      0.000      0.000
REMARK  Name = 
REMARK  3 active torsions:
REMARK  status: ('A' for Active; 'I' for Inactive)
REMARK    1  A    between atoms: C_1  and  C_2
REMARK    2  A    between atoms: C_6  and  C_7
REMARK    3  A    between atoms: C_14  and  C_15
REMARK                            x       y       z     vdW  Elec       q    Type
REMARK                         _______ _______ _______ _____ _____    ______ ____
ROOT
ATOM      1  C   UNL     1       1.763   6.448  20.416  0.00  0.00    +0.000 A 
ATOM      2  C   UNL     1       0.960   5.405  20.694  0.00  0.00    +0.000 A 
ATOM      3  C   UNL     1       1.474   4.023  20.497  0.00  0.00    +0.000 A 
ATOM      4  O   UNL     1       0.810   3.021  20.721  0.00  0.00    +0.000 OA
ATOM      5  N   UNL     1       2.797   3.961  20.022  0.00  0.00    +0.000 N 
ATOM      6  N   UNL     1       3.441   2.791  19.773  0.00  0.00    +0.000 NA
ATOM      7  C   UNL     1       4.636   3.184  19.328  0.00  0.00    +0.000 A 
ATOM      8  C   UNL     1       4.800   4.592  19.289  0.00  0.00    +0.000 A 
ATOM      9  C   UNL     1       3.587   5.065  19.747  0.00  0.00    +0.000 A 
ATOM     10  N   UNL     1       3.053   6.294  19.950  0.00  0.00    +0.000 N 
ATOM     11  H   UNL     1       3.593   7.136  19.730  0.00  0.00    +0.000 HD
ENDROOT
BRANCH   1  17
ATOM     12  C   UNL     1      -1.463  12.603  23.143  0.00  0.00    +0.000 C 
ATOM     13  C   UNL     1      -0.810  11.411  22.567  0.00  0.00    +0.000 A 
ATOM     14  C   UNL     1      -0.611  10.124  23.021  0.00  0.00    +0.000 A 
ATOM     15  C   UNL     1       0.092   9.436  21.997  0.00  0.00    +0.000 A 
ATOM     16  C   UNL     1       0.592   8.132  21.822  0.00  0.00    +0.000 A 
ATOM     17  C   UNL     1       1.257   7.814  20.623  0.00  0.00    +0.000 A 
ATOM     18  C   UNL     1       1.413   8.781  19.618  0.00  0.00    +0.000 A 
ATOM     19  C   UNL     1       0.921  10.083  19.776  0.00  0.00    +0.000 A 
ATOM     20  C   UNL     1       0.271  10.361  20.976  0.00  0.00    +0.000 A 
ATOM     21  O   UNL     1      -0.275  11.559  21.322  0.00  0.00    +0.000 OA
ENDBRANCH   1  17
BRANCH   8  22
ATOM     22  C   UNL     1       5.928   5.386  18.827  0.00  0.00    +0.000 A 
ATOM     23  C   UNL     1       5.821   6.161  17.672  0.00  0.00    +0.000 A 
ATOM     24  C   UNL     1       6.866   7.012  17.325  0.00  0.00    +0.000 A 
ATOM     25  C   UNL     1       8.002   7.048  18.120  0.00  0.00    +0.000 A 
ATOM     26  C   UNL     1       8.052   6.213  19.225  0.00  0.00    +0.000 A 
ATOM     27  N   UNL     1       7.045   5.388  19.599  0.00  0.00    +0.000 NA
ENDBRANCH   8  22
TORSDOF 2
ENDMDL
MODEL 2
REMARK VINA RESULT:      -9.3      1.703      2.016
REMARK  Name = 
REMARK  3 active torsions:
REMARK  status: ('A' for Active; 'I' for Inactive)
REMARK    1  A    between atoms: C_1  and  C_2
REMARK    2  A    between atoms: C_6  and  C_7
REMARK    3  A    between atoms: C_14  and  C_15
REMARK                            x       y       z     vdW  Elec       q    Type
REMARK                         _______ _______ _______ _____ _____    ______ ____
ROOT
ATOM      1  C   UNL     1       2.329   6.300  19.830  0.00  0.00    +0.000 A 
ATOM      2  C   UNL     1       1.778   5.602  20.839  0.00  0.00    +0.000 A 
ATOM      3  C   UNL     1       2.220   4.201  21.077  0.00  0.00    +0.000 A 
ATOM      4  O   UNL     1       1.768   3.496  21.967  0.00  0.00    +0.000 OA
ATOM      5  N   UNL     1       3.206   3.748  20.182  0.00  0.00    +0.000 N 
ATOM      6  N   UNL     1       3.733   2.496  20.232  0.00  0.00    +0.000 NA
ATOM      7  C   UNL     1       4.595   2.481  19.214  0.00  0.00    +0.000 A 
ATOM      8  C   UNL     1       4.658   3.705  18.498  0.00  0.00    +0.000 A 
ATOM      9  C   UNL     1       3.744   4.503  19.154  0.00  0.00    +0.000 A 
ATOM     10  N   UNL     1       3.293   5.772  18.996  0.00  0.00    +0.000 N 
ATOM     11  H   UNL     1       3.644   6.354  18.230  0.00  0.00    +0.000 HD
ENDROOT
BRANCH   1  17
ATOM     12  C   UNL     1      -0.553  13.154  20.505  0.00  0.00    +0.000 C 
ATOM     13  C   UNL     1       0.033  11.810  20.329  0.00  0.00    +0.000 A 
ATOM     14  C   UNL     1       0.162  10.714  21.157  0.00  0.00    +0.000 A 
ATOM     15  C   UNL     1       0.825   9.711  20.402  0.00  0.00    +0.000 A 
ATOM     16  C   UNL     1       1.253   8.391  20.639  0.00  0.00    +0.000 A 
ATOM     17  C   UNL     1       1.899   7.689  19.604  0.00  0.00    +0.000 A 
ATOM     18  C   UNL     1       2.107   8.295  18.356  0.00  0.00    +0.000 A 
ATOM     19  C   UNL     1       1.688   9.607  18.102  0.00  0.00    +0.000 A 
ATOM     20  C   UNL     1       1.055  10.271  19.151  0.00  0.00    +0.000 A 
ATOM     21  O   UNL     1       0.575  11.544  19.107  0.00  0.00    +0.000 OA
ENDBRANCH   1  17
BRANCH   8  22
ATOM     22  C   UNL     1       5.434   4.054  17.318  0.00  0.00    +0.000 A 
ATOM     23  C   UNL     1       4.838   4.058  16.056  0.00  0.00    +0.000 A 
ATOM     24  C   UNL     1       5.564   4.522  14.963  0.00  0.00    +0.000 A 
ATOM     25  C   UNL     1       6.873   4.943  15.150  0.00  0.00    +0.000 A 
ATOM     26  C   UNL     1       7.409   4.863  16.425  0.00  0.00    +0.000 A 
ATOM     27  N   UNL     1       6.723   4.433  17.511  0.00  0.00    +0.000 NA
ENDBRANCH   8  22
TORSDOF 2
ENDMDL
MODEL 3
REMARK VINA RESULT:      -8.8      0.911      1.661
REMARK  Name = 
REMARK  3 active torsions:
REMARK  status: ('A' for Active; 'I' for Inactive)
REMARK    1  A    between atoms: C_1  and  C_2
REMARK    2  A    between atoms: C_6  and  C_7
REMARK    3  A    between atoms: C_14  and  C_15
REMARK                            x       y       z     vdW  Elec       q    Type
REMARK                         _______ _______ _______ _____ _____    ______ ____
ROOT
ATOM      1  C   UNL     1       1.788   6.524  20.399  0.00  0.00    +0.000 A 
ATOM      2  C   UNL     1       0.972   5.497  20.697  0.00  0.00    +0.000 A 
ATOM      3  C   UNL     1       1.466   4.105  20.524  0.00  0.00    +0.000 A 
ATOM      4  O   UNL     1       0.788   3.117  20.766  0.00  0.00    +0.000 OA
ATOM      5  N   UNL     1       2.787   4.016  20.049  0.00  0.00    +0.000 N 
ATOM      6  N   UNL     1       3.414   2.833  19.820  0.00  0.00    +0.000 NA
ATOM      7  C   UNL     1       4.614   3.201  19.367  0.00  0.00    +0.000 A 
ATOM      8  C   UNL     1       4.797   4.606  19.302  0.00  0.00    +0.000 A 
ATOM      9  C   UNL     1       3.592   5.103  19.753  0.00  0.00    +0.000 A 
ATOM     10  N   UNL     1       3.075   6.344  19.934  0.00  0.00    +0.000 N 
ATOM     11  H   UNL     1       3.627   7.173  19.699  0.00  0.00    +0.000 HD
ENDROOT
BRANCH   1  17
ATOM     12  C   UNL     1      -0.012  13.712  19.493  0.00  0.00    +0.000 C 
ATOM     13  C   UNL     1       0.324  12.291  19.715  0.00  0.00    +0.000 A 
ATOM     14  C   UNL     1       0.875  11.310  18.918  0.00  0.00    +0.000 A 
ATOM     15  C   UNL     1       0.947  10.135  19.712  0.00  0.00    +0.000 A 
ATOM     16  C   UNL     1       1.394   8.815  19.516  0.00  0.00    +0.000 A 
ATOM     17  C   UNL     1       1.301   7.900  20.582  0.00  0.00    +0.000 A 
ATOM     18  C   UNL     1       0.775   8.301  21.819  0.00  0.00    +0.000 A 
ATOM     19  C   UNL     1       0.326   9.611  22.031  0.00  0.00    +0.000 A 
ATOM     20  C   UNL     1       0.431  10.487  20.953  0.00  0.00    +0.000 A 
ATOM     21  O   UNL     1       0.053  11.794  20.955  0.00  0.00    +0.000 OA
ENDBRANCH   1  17
BRANCH   8  22
ATOM     22  C   UNL     1       5.936   5.376  18.825  0.00  0.00    +0.000 A 
ATOM     23  C   UNL     1       5.842   6.122  17.650  0.00  0.00    +0.000 A 
ATOM     24  C   UNL     1       6.897   6.952  17.286  0.00  0.00    +0.000 A 
ATOM     25  C   UNL     1       8.031   6.996  18.085  0.00  0.00    +0.000 A 
ATOM     26  C   UNL     1       8.067   6.189  19.210  0.00  0.00    +0.000 A 
ATOM     27  N   UNL     1       7.050   5.385  19.601  0.00  0.00    +0.000 NA
ENDBRANCH   8  22
TORSDOF 2
ENDMDL
MODEL 4
REMARK VINA RESULT:      -8.8      2.085      2.777
REMARK  Name = 
REMARK  3 active torsions:
REMARK  status: ('A' for Active; 'I' for Inactive)
REMARK    1  A    between atoms: C_1  and  C_2
REMARK    2  A    between atoms: C_6  and  C_7
REMARK    3  A    between atoms: C_14  and  C_15
REMARK                            x       y       z     vdW  Elec       q    Type
REMARK                         _______ _______ _______ _____ _____    ______ ____
ROOT
ATOM      1  C   UNL     1       2.045   6.102  20.013  0.00  0.00    +0.000 A 
ATOM      2  C   UNL     1       1.526   5.244  20.909  0.00  0.00    +0.000 A 
ATOM      3  C   UNL     1       1.912   3.809  20.847  0.00  0.00    +0.000 A 
ATOM      4  O   UNL     1       1.483   2.964  21.619  0.00  0.00    +0.000 OA
ATOM      5  N   UNL     1       2.816   3.499  19.815  0.00  0.00    +0.000 N 
ATOM      6  N   UNL     1       3.283   2.243  19.591  0.00  0.00    +0.000 NA
ATOM      7  C   UNL     1       4.077   2.391  18.529  0.00  0.00    +0.000 A 
ATOM      8  C   UNL     1       4.155   3.726  18.053  0.00  0.00    +0.000 A 
ATOM      9  C   UNL     1       3.325   4.417  18.911  0.00  0.00    +0.000 A 
ATOM     10  N   UNL     1       2.928   5.708  19.027  0.00  0.00    +0.000 N 
ATOM     11  H   UNL     1       3.257   6.413  18.361  0.00  0.00    +0.000 HD
ENDROOT
BRANCH   1  17
ATOM     12  C   UNL     1       0.897  13.333  18.558  0.00  0.00    +0.000 C 
ATOM     13  C   UNL     1       1.103  11.909  18.887  0.00  0.00    +0.000 A 
ATOM     14  C   UNL     1       1.599  10.833  18.181  0.00  0.00    +0.000 A 
ATOM     15  C   UNL     1       1.541   9.713  19.053  0.00  0.00    +0.000 A 
ATOM     16  C   UNL     1       1.881   8.351  18.964  0.00  0.00    +0.000 A 
ATOM     17  C   UNL     1       1.671   7.523  20.083  0.00  0.00    +0.000 A 
ATOM     18  C   UNL     1       1.133   8.051  21.267  0.00  0.00    +0.000 A 
ATOM     19  C   UNL     1       0.789   9.404  21.373  0.00  0.00    +0.000 A 
ATOM     20  C   UNL     1       1.010  10.192  20.245  0.00  0.00    +0.000 A 
ATOM     21  O   UNL     1       0.744  11.522  20.144  0.00  0.00    +0.000 OA
ENDBRANCH   1  17
BRANCH   8  22
ATOM     22  C   UNL     1       4.871   4.265  16.907  0.00  0.00    +0.000 A 
ATOM     23  C   UNL     1       5.598   3.421  16.067  0.00  0.00    +0.000 A 
ATOM     24  C   UNL     1       6.163   3.940  14.906  0.00  0.00    +0.000 A 
ATOM     25  C   UNL     1       6.013   5.291  14.626  0.00  0.00    +0.000 A 
ATOM     26  C   UNL     1       5.317   6.072  15.534  0.00  0.00    +0.000 A 
ATOM     27  N   UNL     1       4.741   5.594  16.662  0.00  0.00    +0.000 NA
ENDBRANCH   8  22
TORSDOF 2
ENDMDL
MODEL 5
REMARK VINA RESULT:      -8.3      1.020      1.780
REMARK  Name = 
REMARK  3 active torsions:
REMARK  status: ('A' for Active; 'I' for Inactive)
REMARK    1  A    between atoms: C_1  and  C_2
REMARK    2  A    between atoms: C_6  and  C_7
REMARK    3  A    between atoms: C_14  and  C_15
REMARK                            x       y       z     vdW  Elec       q    Type
REMARK                         _______ _______ _______ _____ _____    ______ ____
ROOT
ATOM      1  C   UNL     1       1.659   6.416  20.495  0.00  0.00    +0.000 A 
ATOM      2  C   UNL     1       0.947   5.315  20.795  0.00  0.00    +0.000 A 
ATOM      3  C   UNL     1       1.550   3.975  20.558  0.00  0.00    +0.000 A 
ATOM      4  O   UNL     1       0.971   2.926  20.798  0.00  0.00    +0.000 OA
ATOM      5  N   UNL     1       2.852   4.015  20.027  0.00  0.00    +0.000 N 
ATOM      6  N   UNL     1       3.568   2.897  19.736  0.00  0.00    +0.000 NA
ATOM      7  C   UNL     1       4.711   3.379  19.245  0.00  0.00    +0.000 A 
ATOM      8  C   UNL     1       4.770   4.796  19.216  0.00  0.00    +0.000 A 
ATOM      9  C   UNL     1       3.548   5.175  19.731  0.00  0.00    +0.000 A 
ATOM     10  N   UNL     1       2.935   6.361  19.972  0.00  0.00    +0.000 N 
ATOM     11  H   UNL     1       3.403   7.241  19.740  0.00  0.00    +0.000 HD
ENDROOT
BRANCH   1  17
ATOM     12  C   UNL     1      -0.270  13.620  20.178  0.00  0.00    +0.000 C 
ATOM     13  C   UNL     1       0.082  12.190  20.277  0.00  0.00    +0.000 A 
ATOM     14  C   UNL     1       0.867  11.350  19.515  0.00  0.00    +0.000 A 
ATOM     15  C   UNL     1       0.809  10.071  20.129  0.00  0.00    +0.000 A 
ATOM     16  C   UNL     1       1.365   8.805  19.870  0.00  0.00    +0.000 A 
ATOM     17  C   UNL     1       1.065   7.739  20.740  0.00  0.00    +0.000 A 
ATOM     18  C   UNL     1       0.229   7.940  21.849  0.00  0.00    +0.000 A 
ATOM     19  C   UNL     1      -0.332   9.194  22.122  0.00  0.00    +0.000 A 
ATOM     20  C   UNL     1      -0.015  10.223  21.238  0.00  0.00    +0.000 A 
ATOM     21  O   UNL     1      -0.456  11.507  21.327  0.00  0.00    +0.000 OA
ENDBRANCH   1  17
BRANCH   8  22
ATOM     22  C   UNL     1       5.817   5.674  18.715  0.00  0.00    +0.000 A 
ATOM     23  C   UNL     1       7.090   5.652  19.285  0.00  0.00    +0.000 A 
ATOM     24  C   UNL     1       8.108   6.403  18.704  0.00  0.00    +0.000 A 
ATOM     25  C   UNL     1       7.824   7.179  17.589  0.00  0.00    +0.000 A 
ATOM     26  C   UNL     1       6.523   7.185  17.112  0.00  0.00    +0.000 A 
ATOM     27  N   UNL     1       5.516   6.451  17.644  0.00  0.00    +0.000 NA
ENDBRANCH   8  22
TORSDOF 2
ENDMDL
MODEL 6
REMARK VINA RESULT:      -8.0      2.545      4.245
REMARK  Name = 
REMARK  3 active torsions:
REMARK  status: ('A' for Active; 'I' for Inactive)
REMARK    1  A    between atoms: C_1  and  C_2
REMARK    2  A    between atoms: C_6  and  C_7
REMARK    3  A    between atoms: C_14  and  C_15
REMARK                            x       y       z     vdW  Elec       q    Type
REMARK                         _______ _______ _______ _____ _____    ______ ____
ROOT
ATOM      1  C   UNL     1       2.850   7.683  18.135  0.00  0.00    +0.000 A 
ATOM      2  C   UNL     1       3.659   7.936  17.091  0.00  0.00    +0.000 A 
ATOM      3  C   UNL     1       4.439   6.819  16.492  0.00  0.00    +0.000 A 
ATOM      4  O   UNL     1       5.200   6.963  15.546  0.00  0.00    +0.000 OA
ATOM      5  N   UNL     1       4.232   5.574  17.112  0.00  0.00    +0.000 N 
ATOM      6  N   UNL     1       4.858   4.435  16.714  0.00  0.00    +0.000 NA
ATOM      7  C   UNL     1       4.401   3.516  17.567  0.00  0.00    +0.000 A 
ATOM      8  C   UNL     1       3.474   4.022  18.514  0.00  0.00    +0.000 A 
ATOM      9  C   UNL     1       3.389   5.360  18.190  0.00  0.00    +0.000 A 
ATOM     10  N   UNL     1       2.709   6.424  18.684  0.00  0.00    +0.000 N 
ATOM     11  H   UNL     1       2.098   6.315  19.498  0.00  0.00    +0.000 HD
ENDROOT
BRANCH   1  17
ATOM     12  C   UNL     1      -1.354  11.990  22.552  0.00  0.00    +0.000 C 
ATOM     13  C   UNL     1      -0.519  11.174  21.648  0.00  0.00    +0.000 A 
ATOM     14  C   UNL     1       0.026   9.911  21.741  0.00  0.00    +0.000 A 
ATOM     15  C   UNL     1       0.739   9.686  20.533  0.00  0.00    +0.000 A 
ATOM     16  C   UNL     1       1.502   8.632  19.997  0.00  0.00    +0.000 A 
ATOM     17  C   UNL     1       2.071   8.786  18.719  0.00  0.00    +0.000 A 
ATOM     18  C   UNL     1       1.876   9.971  17.992  0.00  0.00    +0.000 A 
ATOM     19  C   UNL     1       1.120  11.029  18.511  0.00  0.00    +0.000 A 
ATOM     20  C   UNL     1       0.574  10.841  19.779  0.00  0.00    +0.000 A 
ATOM     21  O   UNL     1      -0.188  11.744  20.455  0.00  0.00    +0.000 OA
ENDBRANCH   1  17
BRANCH   8  22
ATOM     22  C   UNL     1       2.805   3.346  19.615  0.00  0.00    +0.000 A 
ATOM     23  C   UNL     1       3.536   2.580  20.523  0.00  0.00    +0.000 A 
ATOM     24  C   UNL     1       2.894   2.054  21.640  0.00  0.00    +0.000 A 
ATOM     25  C   UNL     1       1.535   2.279  21.809  0.00  0.00    +0.000 A 
ATOM     26  C   UNL     1       0.870   3.010  20.837  0.00  0.00    +0.000 A 
ATOM     27  N   UNL     1       1.470   3.550  19.749  0.00  0.00    +0.000 NA
ENDBRANCH   8  22
TORSDOF 2
ENDMDL
MODEL 7
REMARK VINA RESULT:      -8.0      3.354      8.047
REMARK  Name = 
REMARK  3 active torsions:
REMARK  status: ('A' for Active; 'I' for Inactive)
REMARK    1  A    between atoms: C_1  and  C_2
REMARK    2  A    between atoms: C_6  and  C_7
REMARK    3  A    between atoms: C_14  and  C_15
REMARK                            x       y       z     vdW  Elec       q    Type
REMARK                         _______ _______ _______ _____ _____    ______ ____
ROOT
ATOM      1  C   UNL     1       4.464   4.645  17.995  0.00  0.00    +0.000 A 
ATOM      2  C   UNL     1       4.490   3.530  18.747  0.00  0.00    +0.000 A 
ATOM      3  C   UNL     1       3.631   3.454  19.960  0.00  0.00    +0.000 A 
ATOM      4  O   UNL     1       3.599   2.481  20.700  0.00  0.00    +0.000 OA
ATOM      5  N   UNL     1       2.857   4.605  20.191  0.00  0.00    +0.000 N 
ATOM      6  N   UNL     1       2.014   4.730  21.251  0.00  0.00    +0.000 NA
ATOM      7  C   UNL     1       1.509   5.956  21.101  0.00  0.00    +0.000 A 
ATOM      8  C   UNL     1       1.991   6.640  19.956  0.00  0.00    +0.000 A 
ATOM      9  C   UNL     1       2.863   5.733  19.389  0.00  0.00    +0.000 A 
ATOM     10  N   UNL     1       3.671   5.733  18.300  0.00  0.00    +0.000 N 
ATOM     11  H   UNL     1       3.727   6.559  17.698  0.00  0.00    +0.000 HD
ENDROOT
BRANCH   1  17
ATOM     12  C   UNL     1       7.327   3.840  11.148  0.00  0.00    +0.000 C 
ATOM     13  C   UNL     1       6.796   4.028  12.513  0.00  0.00    +0.000 A 
ATOM     14  C   UNL     1       5.643   3.617  13.149  0.00  0.00    +0.000 A 
ATOM     15  C   UNL     1       5.709   4.121  14.475  0.00  0.00    +0.000 A 
ATOM     16  C   UNL     1       4.883   4.068  15.613  0.00  0.00    +0.000 A 
ATOM     17  C   UNL     1       5.305   4.714  16.791  0.00  0.00    +0.000 A 
ATOM     18  C   UNL     1       6.530   5.397  16.827  0.00  0.00    +0.000 A 
ATOM     19  C   UNL     1       7.364   5.460  15.703  0.00  0.00    +0.000 A 
ATOM     20  C   UNL     1       6.913   4.811  14.556  0.00  0.00    +0.000 A 
ATOM     21  O   UNL     1       7.572   4.754  13.367  0.00  0.00    +0.000 OA
ENDBRANCH   1  17
BRANCH   8  22
ATOM     22  C   UNL     1       1.711   7.990  19.491  0.00  0.00    +0.000 A 
ATOM     23  C   UNL     1       1.061   8.902  20.322  0.00  0.00    +0.000 A 
ATOM     24  C   UNL     1       0.923  10.223  19.905  0.00  0.00    +0.000 A 
ATOM     25  C   UNL     1       1.411  10.594  18.660  0.00  0.00    +0.000 A 
ATOM     26  C   UNL     1       2.001   9.618  17.874  0.00  0.00    +0.000 A 
ATOM     27  N   UNL     1       2.166   8.330  18.258  0.00  0.00    +0.000 NA
ENDBRANCH   8  22
TORSDOF 2
ENDMDL
MODEL 8
REMARK VINA RESULT:      -7.9      4.414      6.909
REMARK  Name = 
REMARK  3 active torsions:
REMARK  status: ('A' for Active; 'I' for Inactive)
REMARK    1  A    between atoms: C_1  and  C_2
REMARK    2  A    between atoms: C_6  and  C_7
REMARK    3  A    between atoms: C_14  and  C_15
REMARK                            x       y       z     vdW  Elec       q    Type
REMARK                         _______ _______ _______ _____ _____    ______ ____
ROOT
ATOM      1  C   UNL     1      -1.512  10.622  19.394  0.00  0.00    +0.000 A 
ATOM      2  C   UNL     1      -1.741  11.512  20.376  0.00  0.00    +0.000 A 
ATOM      3  C   UNL     1      -0.928  11.442  21.621  0.00  0.00    +0.000 A 
ATOM      4  O   UNL     1      -1.075  12.208  22.562  0.00  0.00    +0.000 OA
ATOM      5  N   UNL     1       0.027  10.410  21.628  0.00  0.00    +0.000 N 
ATOM      6  N   UNL     1       0.861  10.180  22.677  0.00  0.00    +0.000 NA
ATOM      7  C   UNL     1       1.570   9.121  22.282  0.00  0.00    +0.000 A 
ATOM      8  C   UNL     1       1.231   8.653  20.987  0.00  0.00    +0.000 A 
ATOM      9  C   UNL     1       0.227   9.513  20.592  0.00  0.00    +0.000 A 
ATOM     10  N   UNL     1      -0.550   9.636  19.488  0.00  0.00    +0.000 N 
ATOM     11  H   UNL     1      -0.455   8.976  18.712  0.00  0.00    +0.000 HD
ENDROOT
BRANCH   1  17
ATOM     12  C   UNL     1      -4.129   9.855  12.445  0.00  0.00    +0.000 C 
ATOM     13  C   UNL     1      -3.649  10.033  13.830  0.00  0.00    +0.000 A 
ATOM     14  C   UNL     1      -2.580   9.524  14.537  0.00  0.00    +0.000 A 
ATOM     15  C   UNL     1      -2.658  10.075  15.843  0.00  0.00    +0.000 A 
ATOM     16  C   UNL     1      -1.901   9.973  17.025  0.00  0.00    +0.000 A 
ATOM     17  C   UNL     1      -2.308  10.700  18.159  0.00  0.00    +0.000 A 
ATOM     18  C   UNL     1      -3.449  11.515  18.109  0.00  0.00    +0.000 A 
ATOM     19  C   UNL     1      -4.214  11.629  16.941  0.00  0.00    +0.000 A 
ATOM     20  C   UNL     1      -3.782  10.893  15.840  0.00  0.00    +0.000 A 
ATOM     21  O   UNL     1      -4.383  10.867  14.620  0.00  0.00    +0.000 OA
ENDBRANCH   1  17
BRANCH   8  22
ATOM     22  C   UNL     1       1.745   7.512  20.244  0.00  0.00    +0.000 A 
ATOM     23  C   UNL     1       1.645   6.224  20.771  0.00  0.00    +0.000 A 
ATOM     24  C   UNL     1       2.023   5.138  19.986  0.00  0.00    +0.000 A 
ATOM     25  C   UNL     1       2.517   5.365  18.709  0.00  0.00    +0.000 A 
ATOM     26  C   UNL     1       2.630   6.677  18.277  0.00  0.00    +0.000 A 
ATOM     27  N   UNL     1       2.255   7.753  19.009  0.00  0.00    +0.000 NA
ENDBRANCH   8  22
TORSDOF 2
ENDMDL
MODEL 9
REMARK VINA RESULT:      -7.9      3.972      8.015
REMARK  Name = 
REMARK  3 active torsions:
REMARK  status: ('A' for Active; 'I' for Inactive)
REMARK    1  A    between atoms: C_1  and  C_2
REMARK    2  A    between atoms: C_6  and  C_7
REMARK    3  A    between atoms: C_14  and  C_15
REMARK                            x       y       z     vdW  Elec       q    Type
REMARK                         _______ _______ _______ _____ _____    ______ ____
ROOT
ATOM      1  C   UNL     1       0.843   9.799  20.601  0.00  0.00    +0.000 A 
ATOM      2  C   UNL     1       0.062   9.519  21.659  0.00  0.00    +0.000 A 
ATOM      3  C   UNL     1      -0.563  10.639  22.415  0.00  0.00    +0.000 A 
ATOM      4  O   UNL     1      -1.281  10.473  23.389  0.00  0.00    +0.000 OA
ATOM      5  N   UNL     1      -0.252  11.916  21.915  0.00  0.00    +0.000 N 
ATOM      6  N   UNL     1      -0.720  13.064  22.471  0.00  0.00    +0.000 NA
ATOM      7  C   UNL     1      -0.176  14.020  21.716  0.00  0.00    +0.000 A 
ATOM      8  C   UNL     1       0.634  13.526  20.661  0.00  0.00    +0.000 A 
ATOM      9  C   UNL     1       0.562  12.158  20.820  0.00  0.00    +0.000 A 
ATOM     10  N   UNL     1       1.097  11.089  20.180  0.00  0.00    +0.000 N 
ATOM     11  H   UNL     1       1.727  11.225  19.385  0.00  0.00    +0.000 HD
ENDROOT
BRANCH   1  17
ATOM     12  C   UNL     1       3.868   3.294  18.535  0.00  0.00    +0.000 C 
ATOM     13  C   UNL     1       3.272   4.595  18.899  0.00  0.00    +0.000 A 
ATOM     14  C   UNL     1       2.744   5.105  20.067  0.00  0.00    +0.000 A 
ATOM     15  C   UNL     1       2.325   6.430  19.779  0.00  0.00    +0.000 A 
ATOM     16  C   UNL     1       1.721   7.474  20.504  0.00  0.00    +0.000 A 
ATOM     17  C   UNL     1       1.450   8.690  19.848  0.00  0.00    +0.000 A 
ATOM     18  C   UNL     1       1.780   8.857  18.495  0.00  0.00    +0.000 A 
ATOM     19  C   UNL     1       2.381   7.828  17.758  0.00  0.00    +0.000 A 
ATOM     20  C   UNL     1       2.632   6.640  18.440  0.00  0.00    +0.000 A 
ATOM     21  O   UNL     1       3.206   5.527  17.906  0.00  0.00    +0.000 OA
ENDBRANCH   1  17
BRANCH   8  22
ATOM     22  C   UNL     1       1.417  14.250  19.671  0.00  0.00    +0.000 A 
ATOM     23  C   UNL     1       1.088  15.562  19.331  0.00  0.00    +0.000 A 
ATOM     24  C   UNL     1       1.929  16.276  18.483  0.00  0.00    +0.000 A 
ATOM     25  C   UNL     1       3.061  15.656  17.974  0.00  0.00    +0.000 A 
ATOM     26  C   UNL     1       3.293  14.335  18.321  0.00  0.00    +0.000 A 
ATOM     27  N   UNL     1       2.504  13.620  19.157  0.00  0.00    +0.000 NA
ENDBRANCH   8  22
TORSDOF 2
ENDMDL
