MODEL 1
REMARK VINA RESULT:      -8.6      0.000      0.000
REMARK  Name = 
REMARK  8 active torsions:
REMARK  status: ('A' for Active; 'I' for Inactive)
REMARK    1  A    between atoms: C_1  and  O_2
REMARK    2  A    between atoms: O_2  and  C_3
REMARK    3  A    between atoms: C_6  and  C_7
REMARK    4  A    between atoms: C_7  and  C_9
REMARK    5  A    between atoms: N_12  and  C_13
REMARK    6  A    between atoms: N_16  and  C_17
REMARK    7  A    between atoms: C_17  and  C_18
REMARK    8  A    between atoms: N_20  and  C_21
REMARK                            x       y       z     vdW  Elec       q    Type
REMARK                         _______ _______ _______ _____ _____    ______ ____
ROOT
ATOM      1  C   UNL     1       2.172   6.574  19.778  0.00  0.00    +0.000 C 
ATOM      2  C   UNL     1       2.281   7.040  18.320  0.00  0.00    +0.000 C 
ATOM      3  C   UNL     1       2.400   8.568  18.455  0.00  0.00    +0.000 C 
ATOM      4  N   UNL     1       1.764   8.876  19.721  0.00  0.00    +0.000 N 
ATOM      5  C   UNL     1       1.299   7.719  20.319  0.00  0.00    +0.000 C 
ATOM      6  O   UNL     1       0.376   7.672  21.112  0.00  0.00    +0.000 OA
ENDROOT
BRANCH   1  10
ATOM      7  C   UNL     1       2.749   2.405  20.137  0.00  0.00    +0.000 C 
ATOM      8  C   UNL     1       1.821   2.860  19.019  0.00  0.00    +0.000 C 
ATOM      9  C   UNL     1       1.703   4.375  18.880  0.00  0.00    +0.000 C 
ATOM     10  N   UNL     1       1.711   5.201  20.101  0.00  0.00    +0.000 NA
ATOM     11  C   UNL     1       2.316   4.635  21.300  0.00  0.00    +0.000 C 
ATOM     12  C   UNL     1       2.291   3.111  21.414  0.00  0.00    +0.000 C 
BRANCH   7  13
ATOM     13  C   UNL     1       4.260   2.510  19.815  0.00  0.00    +0.000 C 
ATOM     14  O   UNL     1       5.101   1.800  20.342  0.00  0.00    +0.000 OA
BRANCH  13  18
ATOM     15  C   UNL     1       5.710   5.636  17.218  0.00  0.00    +0.000 A 
ATOM     16  C   UNL     1       5.810   5.781  18.604  0.00  0.00    +0.000 A 
ATOM     17  C   UNL     1       5.320   4.778  19.462  0.00  0.00    +0.000 A 
ATOM     18  C   UNL     1       4.719   3.635  18.928  0.00  0.00    +0.000 A 
ATOM     19  C   UNL     1       4.521   3.561  17.548  0.00  0.00    +0.000 A 
ATOM     20  C   UNL     1       5.019   4.546  16.690  0.00  0.00    +0.000 A 
BRANCH  15  22
ATOM     21  C   UNL     1       7.199   7.467  17.156  0.00  0.00    +0.000 C 
ATOM     22  O   UNL     1       6.298   6.610  16.452  0.00  0.00    +0.000 OA
ENDBRANCH  15  22
ENDBRANCH  13  18
ENDBRANCH   7  13
ENDBRANCH   1  10
BRANCH   4  23
ATOM     23  C   UNL     1       1.286  10.197  20.119  0.00  0.00    +0.000 C 
BRANCH  23  24
ATOM     24  C   UNL     1       0.248  10.836  19.186  0.00  0.00    +0.000 C 
ATOM     25  O   UNL     1       0.509  11.848  18.536  0.00  0.00    +0.000 OA
ATOM     26  N   UNL     1      -0.958  10.160  19.112  0.00  0.00    +0.000 N 
ATOM     27  H   UNL     1      -1.301   9.776  19.989  0.00  0.00    +0.000 HD
BRANCH  26  28
ATOM     28  C   UNL     1      -2.004  10.581  18.267  0.00  0.00    +0.000 A 
ATOM     29  N   UNL     1      -1.889  10.199  16.976  0.00  0.00    +0.000 NA
ATOM     30  N   UNL     1      -2.883  10.476  16.078  0.00  0.00    +0.000 NA
ATOM     31  C   UNL     1      -3.964  11.165  16.490  0.00  0.00    +0.000 A 
ATOM     32  C   UNL     1      -4.086  11.642  17.780  0.00  0.00    +0.000 A 
ATOM     33  C   UNL     1      -3.063  11.383  18.699  0.00  0.00    +0.000 A 
ATOM     34  C   UNL     1      -3.111  12.016  20.059  0.00  0.00    +0.000 C 
ATOM     35  C   UNL     1      -4.093  13.178  20.084  0.00  0.00    +0.000 C 
ATOM     36  C   UNL     1      -5.386  12.711  19.440  0.00  0.00    +0.000 C 
ATOM     37  O   UNL     1      -5.198  12.394  18.058  0.00  0.00    +0.000 OA
ENDBRANCH  26  28
ENDBRANCH  23  24
ENDBRANCH   4  23
TORSDOF 7
ENDMDL
MODEL 2
REMARK VINA RESULT:      -8.5      1.619      2.054
REMARK  Name = 
REMARK  8 active torsions:
REMARK  status: ('A' for Active; 'I' for Inactive)
REMARK    1  A    between atoms: C_1  and  O_2
REMARK    2  A    between atoms: O_2  and  C_3
REMARK    3  A    between atoms: C_6  and  C_7
REMARK    4  A    between atoms: C_7  and  C_9
REMARK    5  A    between atoms: N_12  and  C_13
REMARK    6  A    between atoms: N_16  and  C_17
REMARK    7  A    between atoms: C_17  and  C_18
REMARK    8  A    between atoms: N_20  and  C_21
REMARK                            x       y       z     vdW  Elec       q    Type
REMARK                         _______ _______ _______ _____ _____    ______ ____
ROOT
ATOM      1  C   UNL     1       2.653   7.431  19.483  0.00  0.00    +0.000 C 
ATOM      2  C   UNL     1       2.179   7.718  18.051  0.00  0.00    +0.000 C 
ATOM      3  C   UNL     1       1.651   9.160  18.146  0.00  0.00    +0.000 C 
ATOM      4  N   UNL     1       1.284   9.327  19.538  0.00  0.00    +0.000 N 
ATOM      5  C   UNL     1       1.536   8.164  20.244  0.00  0.00    +0.000 C 
ATOM      6  O   UNL     1       0.956   7.834  21.264  0.00  0.00    +0.000 OA
ENDROOT
BRANCH   1  10
ATOM      7  C   UNL     1       3.273   3.316  18.763  0.00  0.00    +0.000 C 
ATOM      8  C   UNL     1       1.981   3.684  19.480  0.00  0.00    +0.000 C 
ATOM      9  C   UNL     1       1.765   5.185  19.650  0.00  0.00    +0.000 C 
ATOM     10  N   UNL     1       2.933   6.042  19.923  0.00  0.00    +0.000 NA
ATOM     11  C   UNL     1       4.245   5.545  19.532  0.00  0.00    +0.000 C 
ATOM     12  C   UNL     1       4.410   4.026  19.497  0.00  0.00    +0.000 C 
BRANCH   7  13
ATOM     13  C   UNL     1       3.243   3.502  17.226  0.00  0.00    +0.000 C 
ATOM     14  O   UNL     1       2.326   3.102  16.528  0.00  0.00    +0.000 OA
BRANCH  13  18
ATOM     15  C   UNL     1       6.658   5.142  15.161  0.00  0.00    +0.000 A 
ATOM     16  C   UNL     1       6.624   3.781  15.477  0.00  0.00    +0.000 A 
ATOM     17  C   UNL     1       5.525   3.239  16.170  0.00  0.00    +0.000 A 
ATOM     18  C   UNL     1       4.466   4.066  16.557  0.00  0.00    +0.000 A 
ATOM     19  C   UNL     1       4.572   5.441  16.338  0.00  0.00    +0.000 A 
ATOM     20  C   UNL     1       5.653   5.982  15.637  0.00  0.00    +0.000 A 
BRANCH  15  22
ATOM     21  C   UNL     1       7.704   5.119  13.044  0.00  0.00    +0.000 C 
ATOM     22  O   UNL     1       7.715   5.572  14.400  0.00  0.00    +0.000 OA
ENDBRANCH  15  22
ENDBRANCH  13  18
ENDBRANCH   7  13
ENDBRANCH   1  10
BRANCH   4  23
ATOM     23  C   UNL     1       0.396  10.366  20.053  0.00  0.00    +0.000 C 
BRANCH  23  24
ATOM     24  C   UNL     1      -0.540  11.009  19.020  0.00  0.00    +0.000 C 
ATOM     25  O   UNL     1      -0.315  12.130  18.565  0.00  0.00    +0.000 OA
ATOM     26  N   UNL     1      -1.604  10.214  18.628  0.00  0.00    +0.000 N 
ATOM     27  H   UNL     1      -2.039   9.667  19.366  0.00  0.00    +0.000 HD
BRANCH  26  28
ATOM     28  C   UNL     1      -2.532  10.630  17.652  0.00  0.00    +0.000 A 
ATOM     29  N   UNL     1      -2.177  10.371  16.374  0.00  0.00    +0.000 NA
ATOM     30  N   UNL     1      -3.034  10.651  15.345  0.00  0.00    +0.000 NA
ATOM     31  C   UNL     1      -4.222  11.222  15.620  0.00  0.00    +0.000 A 
ATOM     32  C   UNL     1      -4.591  11.577  16.902  0.00  0.00    +0.000 A 
ATOM     33  C   UNL     1      -3.711  11.313  17.959  0.00  0.00    +0.000 A 
ATOM     34  C   UNL     1      -4.032  11.821  19.334  0.00  0.00    +0.000 C 
ATOM     35  C   UNL     1      -5.100  12.903  19.279  0.00  0.00    +0.000 C 
ATOM     36  C   UNL     1      -6.228  12.401  18.394  0.00  0.00    +0.000 C 
ATOM     37  O   UNL     1      -5.793  12.220  17.044  0.00  0.00    +0.000 OA
ENDBRANCH  26  28
ENDBRANCH  23  24
ENDBRANCH   4  23
TORSDOF 7
ENDMDL
MODEL 3
REMARK VINA RESULT:      -8.5      3.089      3.984
REMARK  Name = 
REMARK  8 active torsions:
REMARK  status: ('A' for Active; 'I' for Inactive)
REMARK    1  A    between atoms: C_1  and  O_2
REMARK    2  A    between atoms: O_2  and  C_3
REMARK    3  A    between atoms: C_6  and  C_7
REMARK    4  A    between atoms: C_7  and  C_9
REMARK    5  A    between atoms: N_12  and  C_13
REMARK    6  A    between atoms: N_16  and  C_17
REMARK    7  A    between atoms: C_17  and  C_18
REMARK    8  A    between atoms: N_20  and  C_21
REMARK                            x       y       z     vdW  Elec       q    Type
REMARK                         _______ _______ _______ _____ _____    ______ ____
ROOT
ATOM      1  C   UNL     1       2.562   7.320  19.065  0.00  0.00    +0.000 C 
ATOM      2  C   UNL     1       2.137   7.976  17.744  0.00  0.00    +0.000 C 
ATOM      3  C   UNL     1       1.794   9.415  18.169  0.00  0.00    +0.000 C 
ATOM      4  N   UNL     1       1.442   9.310  19.571  0.00  0.00    +0.000 N 
ATOM      5  C   UNL     1       1.541   7.997  19.994  0.00  0.00    +0.000 C 
ATOM      6  O   UNL     1       0.918   7.521  20.927  0.00  0.00    +0.000 OA
ENDROOT
BRANCH   1  10
ATOM      7  C   UNL     1       3.987   3.544  17.819  0.00  0.00    +0.000 C 
ATOM      8  C   UNL     1       2.502   3.805  17.603  0.00  0.00    +0.000 C 
ATOM      9  C   UNL     1       2.049   5.207  17.998  0.00  0.00    +0.000 C 
ATOM     10  N   UNL     1       2.662   5.844  19.179  0.00  0.00    +0.000 NA
ATOM     11  C   UNL     1       3.970   5.365  19.605  0.00  0.00    +0.000 C 
ATOM     12  C   UNL     1       4.300   3.911  19.269  0.00  0.00    +0.000 C 
BRANCH   7  13
ATOM     13  C   UNL     1       4.921   4.165  16.750  0.00  0.00    +0.000 C 
ATOM     14  O   UNL     1       4.949   3.782  15.591  0.00  0.00    +0.000 OA
BRANCH  13  18
ATOM     15  C   UNL     1       7.773   7.057  18.204  0.00  0.00    +0.000 A 
ATOM     16  C   UNL     1       6.732   7.467  17.367  0.00  0.00    +0.000 A 
ATOM     17  C   UNL     1       5.810   6.529  16.868  0.00  0.00    +0.000 A 
ATOM     18  C   UNL     1       5.938   5.177  17.200  0.00  0.00    +0.000 A 
ATOM     19  C   UNL     1       7.050   4.769  17.939  0.00  0.00    +0.000 A 
ATOM     20  C   UNL     1       7.961   5.697  18.450  0.00  0.00    +0.000 A 
BRANCH  15  22
ATOM     21  C   UNL     1       8.395   9.333  18.136  0.00  0.00    +0.000 C 
ATOM     22  O   UNL     1       8.571   8.044  18.726  0.00  0.00    +0.000 OA
ENDBRANCH  15  22
ENDBRANCH  13  18
ENDBRANCH   7  13
ENDBRANCH   1  10
BRANCH   4  23
ATOM     23  C   UNL     1       0.689  10.310  20.323  0.00  0.00    +0.000 C 
BRANCH  23  24
ATOM     24  C   UNL     1       1.234  11.742  20.254  0.00  0.00    +0.000 C 
ATOM     25  O   UNL     1       1.773  12.269  21.226  0.00  0.00    +0.000 OA
ATOM     26  N   UNL     1       1.108  12.351  19.016  0.00  0.00    +0.000 N 
ATOM     27  H   UNL     1       0.240  12.165  18.521  0.00  0.00    +0.000 HD
BRANCH  26  28
ATOM     28  C   UNL     1       1.600  13.648  18.764  0.00  0.00    +0.000 A 
ATOM     29  N   UNL     1       2.917  13.715  18.470  0.00  0.00    +0.000 NA
ATOM     30  N   UNL     1       3.491  14.908  18.125  0.00  0.00    +0.000 NA
ATOM     31  C   UNL     1       2.733  16.021  18.114  0.00  0.00    +0.000 A 
ATOM     32  C   UNL     1       1.403  16.010  18.484  0.00  0.00    +0.000 A 
ATOM     33  C   UNL     1       0.813  14.797  18.860  0.00  0.00    +0.000 A 
ATOM     34  C   UNL     1      -0.586  14.791  19.403  0.00  0.00    +0.000 C 
ATOM     35  C   UNL     1      -1.010  16.189  19.829  0.00  0.00    +0.000 C 
ATOM     36  C   UNL     1      -0.657  17.148  18.707  0.00  0.00    +0.000 C 
ATOM     37  O   UNL     1       0.757  17.219  18.505  0.00  0.00    +0.000 OA
ENDBRANCH  26  28
ENDBRANCH  23  24
ENDBRANCH   4  23
TORSDOF 7
ENDMDL
MODEL 4
REMARK VINA RESULT:      -8.4      1.280      1.981
REMARK  Name = 
REMARK  8 active torsions:
REMARK  status: ('A' for Active; 'I' for Inactive)
REMARK    1  A    between atoms: C_1  and  O_2
REMARK    2  A    between atoms: O_2  and  C_3
REMARK    3  A    between atoms: C_6  and  C_7
REMARK    4  A    between atoms: C_7  and  C_9
REMARK    5  A    between atoms: N_12  and  C_13
REMARK    6  A    between atoms: N_16  and  C_17
REMARK    7  A    between atoms: C_17  and  C_18
REMARK    8  A    between atoms: N_20  and  C_21
REMARK                            x       y       z     vdW  Elec       q    Type
REMARK                         _______ _______ _______ _____ _____    ______ ____
ROOT
ATOM      1  C   UNL     1       2.131   6.932  19.504  0.00  0.00    +0.000 C 
ATOM      2  C   UNL     1       2.016   7.413  18.051  0.00  0.00    +0.000 C 
ATOM      3  C   UNL     1       2.264   8.927  18.169  0.00  0.00    +0.000 C 
ATOM      4  N   UNL     1       1.884   9.258  19.528  0.00  0.00    +0.000 N 
ATOM      5  C   UNL     1       1.450   8.125  20.194  0.00  0.00    +0.000 C 
ATOM      6  O   UNL     1       0.679   8.129  21.138  0.00  0.00    +0.000 OA
ENDROOT
BRANCH   1  10
ATOM      7  C   UNL     1       2.605   2.772  20.061  0.00  0.00    +0.000 C 
ATOM      8  C   UNL     1       1.678   3.196  18.929  0.00  0.00    +0.000 C 
ATOM      9  C   UNL     1       1.598   4.705  18.718  0.00  0.00    +0.000 C 
ATOM     10  N   UNL     1       1.639   5.589  19.897  0.00  0.00    +0.000 NA
ATOM     11  C   UNL     1       2.240   5.066  21.116  0.00  0.00    +0.000 C 
ATOM     12  C   UNL     1       2.177   3.550  21.306  0.00  0.00    +0.000 C 
BRANCH   7  13
ATOM     13  C   UNL     1       4.115   2.821  19.721  0.00  0.00    +0.000 C 
ATOM     14  O   UNL     1       4.972   2.330  20.438  0.00  0.00    +0.000 OA
BRANCH  13  18
ATOM     15  C   UNL     1       5.478   5.047  16.285  0.00  0.00    +0.000 A 
ATOM     16  C   UNL     1       5.736   5.527  17.572  0.00  0.00    +0.000 A 
ATOM     17  C   UNL     1       5.276   4.822  18.700  0.00  0.00    +0.000 A 
ATOM     18  C   UNL     1       4.548   3.640  18.536  0.00  0.00    +0.000 A 
ATOM     19  C   UNL     1       4.199   3.239  17.245  0.00  0.00    +0.000 A 
ATOM     20  C   UNL     1       4.665   3.927  16.121  0.00  0.00    +0.000 A 
BRANCH  15  22
ATOM     21  C   UNL     1       7.145   5.083  14.614  0.00  0.00    +0.000 C 
ATOM     22  O   UNL     1       6.043   5.738  15.244  0.00  0.00    +0.000 OA
ENDBRANCH  15  22
ENDBRANCH  13  18
ENDBRANCH   7  13
ENDBRANCH   1  10
BRANCH   4  23
ATOM     23  C   UNL     1       1.577  10.602  20.010  0.00  0.00    +0.000 C 
BRANCH  23  24
ATOM     24  C   UNL     1       0.346  11.268  19.380  0.00  0.00    +0.000 C 
ATOM     25  O   UNL     1       0.460  12.201  18.587  0.00  0.00    +0.000 OA
ATOM     26  N   UNL     1      -0.866  10.705  19.742  0.00  0.00    +0.000 N 
ATOM     27  H   UNL     1      -0.944  10.418  20.715  0.00  0.00    +0.000 HD
BRANCH  26  28
ATOM     28  C   UNL     1      -2.092  11.161  19.219  0.00  0.00    +0.000 A 
ATOM     29  N   UNL     1      -2.859  11.864  20.082  0.00  0.00    +0.000 NA
ATOM     30  N   UNL     1      -4.032  12.431  19.665  0.00  0.00    +0.000 NA
ATOM     31  C   UNL     1      -4.430  12.251  18.392  0.00  0.00    +0.000 A 
ATOM     32  C   UNL     1      -3.718  11.475  17.499  0.00  0.00    +0.000 A 
ATOM     33  C   UNL     1      -2.527  10.873  17.923  0.00  0.00    +0.000 A 
ATOM     34  C   UNL     1      -1.818   9.912  17.014  0.00  0.00    +0.000 C 
ATOM     35  C   UNL     1      -2.738   9.438  15.899  0.00  0.00    +0.000 C 
ATOM     36  C   UNL     1      -3.415  10.659  15.301  0.00  0.00    +0.000 C 
ATOM     37  O   UNL     1      -4.264  11.306  16.253  0.00  0.00    +0.000 OA
ENDBRANCH  26  28
ENDBRANCH  23  24
ENDBRANCH   4  23
TORSDOF 7
ENDMDL
MODEL 5
REMARK VINA RESULT:      -8.4      3.180      4.515
REMARK  Name = 
REMARK  8 active torsions:
REMARK  status: ('A' for Active; 'I' for Inactive)
REMARK    1  A    between atoms: C_1  and  O_2
REMARK    2  A    between atoms: O_2  and  C_3
REMARK    3  A    between atoms: C_6  and  C_7
REMARK    4  A    between atoms: C_7  and  C_9
REMARK    5  A    between atoms: N_12  and  C_13
REMARK    6  A    between atoms: N_16  and  C_17
REMARK    7  A    between atoms: C_17  and  C_18
REMARK    8  A    between atoms: N_20  and  C_21
REMARK                            x       y       z     vdW  Elec       q    Type
REMARK                         _______ _______ _______ _____ _____    ______ ____
ROOT
ATOM      1  C   UNL     1       2.513   7.444  19.053  0.00  0.00    +0.000 C 
ATOM      2  C   UNL     1       2.058   8.076  17.730  0.00  0.00    +0.000 C 
ATOM      3  C   UNL     1       1.745   9.528  18.132  0.00  0.00    +0.000 C 
ATOM      4  N   UNL     1       1.432   9.459  19.546  0.00  0.00    +0.000 N 
ATOM      5  C   UNL     1       1.527   8.154  19.995  0.00  0.00    +0.000 C 
ATOM      6  O   UNL     1       0.925   7.707  20.956  0.00  0.00    +0.000 OA
ENDROOT
BRANCH   1  10
ATOM      7  C   UNL     1       3.896   3.630  17.880  0.00  0.00    +0.000 C 
ATOM      8  C   UNL     1       2.413   3.901  17.664  0.00  0.00    +0.000 C 
ATOM      9  C   UNL     1       1.976   5.315  18.031  0.00  0.00    +0.000 C 
ATOM     10  N   UNL     1       2.598   5.970  19.197  0.00  0.00    +0.000 NA
ATOM     11  C   UNL     1       3.903   5.487  19.629  0.00  0.00    +0.000 C 
ATOM     12  C   UNL     1       4.217   4.023  19.322  0.00  0.00    +0.000 C 
BRANCH   7  13
ATOM     13  C   UNL     1       4.832   4.218  16.796  0.00  0.00    +0.000 C 
ATOM     14  O   UNL     1       4.838   3.825  15.641  0.00  0.00    +0.000 OA
BRANCH  13  18
ATOM     15  C   UNL     1       7.765   7.058  18.193  0.00  0.00    +0.000 A 
ATOM     16  C   UNL     1       6.754   7.474  17.322  0.00  0.00    +0.000 A 
ATOM     17  C   UNL     1       5.806   6.551  16.842  0.00  0.00    +0.000 A 
ATOM     18  C   UNL     1       5.878   5.210  17.227  0.00  0.00    +0.000 A 
ATOM     19  C   UNL     1       6.963   4.790  18.000  0.00  0.00    +0.000 A 
ATOM     20  C   UNL     1       7.899   5.703  18.492  0.00  0.00    +0.000 A 
BRANCH  15  22
ATOM     21  C   UNL     1       8.388   9.334  18.134  0.00  0.00    +0.000 C 
ATOM     22  O   UNL     1       8.589   8.034  18.692  0.00  0.00    +0.000 OA
ENDBRANCH  15  22
ENDBRANCH  13  18
ENDBRANCH   7  13
ENDBRANCH   1  10
BRANCH   4  23
ATOM     23  C   UNL     1       0.712  10.484  20.297  0.00  0.00    +0.000 C 
BRANCH  23  24
ATOM     24  C   UNL     1       0.494  11.814  19.562  0.00  0.00    +0.000 C 
ATOM     25  O   UNL     1      -0.263  11.893  18.595  0.00  0.00    +0.000 OA
ATOM     26  N   UNL     1       1.172  12.893  20.102  0.00  0.00    +0.000 N 
ATOM     27  H   UNL     1       2.114  12.699  20.433  0.00  0.00    +0.000 HD
BRANCH  26  28
ATOM     28  C   UNL     1       1.046  14.196  19.581  0.00  0.00    +0.000 A 
ATOM     29  N   UNL     1      -0.207  14.702  19.595  0.00  0.00    +0.000 NA
ATOM     30  N   UNL     1      -0.441  15.988  19.193  0.00  0.00    +0.000 NA
ATOM     31  C   UNL     1       0.589  16.734  18.751  0.00  0.00    +0.000 A 
ATOM     32  C   UNL     1       1.871  16.231  18.645  0.00  0.00    +0.000 A 
ATOM     33  C   UNL     1       2.116  14.909  19.034  0.00  0.00    +0.000 A 
ATOM     34  C   UNL     1       3.467  14.303  18.791  0.00  0.00    +0.000 C 
ATOM     35  C   UNL     1       4.257  15.124  17.782  0.00  0.00    +0.000 C 
ATOM     36  C   UNL     1       4.164  16.583  18.191  0.00  0.00    +0.000 C 
ATOM     37  O   UNL     1       2.819  17.064  18.110  0.00  0.00    +0.000 OA
ENDBRANCH  26  28
ENDBRANCH  23  24
ENDBRANCH   4  23
TORSDOF 7
ENDMDL
MODEL 6
REMARK VINA RESULT:      -8.2      2.013      2.940
REMARK  Name = 
REMARK  8 active torsions:
REMARK  status: ('A' for Active; 'I' for Inactive)
REMARK    1  A    between atoms: C_1  and  O_2
REMARK    2  A    between atoms: O_2  and  C_3
REMARK    3  A    between atoms: C_6  and  C_7
REMARK    4  A    between atoms: C_7  and  C_9
REMARK    5  A    between atoms: N_12  and  C_13
REMARK    6  A    between atoms: N_16  and  C_17
REMARK    7  A    between atoms: C_17  and  C_18
REMARK    8  A    between atoms: N_20  and  C_21
REMARK                            x       y       z     vdW  Elec       q    Type
REMARK                         _______ _______ _______ _____ _____    ______ ____
ROOT
ATOM      1  C   UNL     1       2.051   8.417  19.299  0.00  0.00    +0.000 C 
ATOM      2  C   UNL     1       2.083   9.140  17.946  0.00  0.00    +0.000 C 
ATOM      3  C   UNL     1       1.922  10.618  18.341  0.00  0.00    +0.000 C 
ATOM      4  N   UNL     1       1.233  10.586  19.615  0.00  0.00    +0.000 N 
ATOM      5  C   UNL     1       0.982   9.278  19.992  0.00  0.00    +0.000 C 
ATOM      6  O   UNL     1       0.077   8.932  20.731  0.00  0.00    +0.000 OA
ENDROOT
BRANCH   1  10
ATOM      7  C   UNL     1       3.373   4.419  18.973  0.00  0.00    +0.000 C 
ATOM      8  C   UNL     1       2.386   4.888  17.913  0.00  0.00    +0.000 C 
ATOM      9  C   UNL     1       1.996   6.358  18.027  0.00  0.00    +0.000 C 
ATOM     10  N   UNL     1       1.845   6.949  19.368  0.00  0.00    +0.000 NA
ATOM     11  C   UNL     1       2.534   6.302  20.477  0.00  0.00    +0.000 C 
ATOM     12  C   UNL     1       2.785   4.801  20.332  0.00  0.00    +0.000 C 
BRANCH   7  13
ATOM     13  C   UNL     1       4.843   4.845  18.731  0.00  0.00    +0.000 C 
ATOM     14  O   UNL     1       5.539   5.346  19.599  0.00  0.00    +0.000 OA
BRANCH  13  18
ATOM     15  C   UNL     1       6.218   4.665  14.645  0.00  0.00    +0.000 A 
ATOM     16  C   UNL     1       6.165   3.499  15.413  0.00  0.00    +0.000 A 
ATOM     17  C   UNL     1       5.740   3.549  16.754  0.00  0.00    +0.000 A 
ATOM     18  C   UNL     1       5.379   4.771  17.328  0.00  0.00    +0.000 A 
ATOM     19  C   UNL     1       5.551   5.940  16.584  0.00  0.00    +0.000 A 
ATOM     20  C   UNL     1       5.959   5.896  15.248  0.00  0.00    +0.000 A 
BRANCH  15  22
ATOM     21  C   UNL     1       5.832   3.493  12.634  0.00  0.00    +0.000 C 
ATOM     22  O   UNL     1       6.549   4.519  13.323  0.00  0.00    +0.000 OA
ENDBRANCH  15  22
ENDBRANCH  13  18
ENDBRANCH   7  13
ENDBRANCH   1  10
BRANCH   4  23
ATOM     23  C   UNL     1       0.520  11.712  20.212  0.00  0.00    +0.000 C 
BRANCH  23  24
ATOM     24  C   UNL     1      -0.740  12.170  19.466  0.00  0.00    +0.000 C 
ATOM     25  O   UNL     1      -0.819  13.295  18.975  0.00  0.00    +0.000 OA
ATOM     26  N   UNL     1      -1.733  11.210  19.362  0.00  0.00    +0.000 N 
ATOM     27  H   UNL     1      -1.870  10.629  20.185  0.00  0.00    +0.000 HD
BRANCH  26  28
ATOM     28  C   UNL     1      -2.936  11.447  18.667  0.00  0.00    +0.000 A 
ATOM     29  N   UNL     1      -3.900  12.067  19.383  0.00  0.00    +0.000 NA
ATOM     30  N   UNL     1      -5.081  12.425  18.792  0.00  0.00    +0.000 NA
ATOM     31  C   UNL     1      -5.284  12.121  17.496  0.00  0.00    +0.000 A 
ATOM     32  C   UNL     1      -4.358  11.419  16.750  0.00  0.00    +0.000 A 
ATOM     33  C   UNL     1      -3.156  11.029  17.352  0.00  0.00    +0.000 A 
ATOM     34  C   UNL     1      -2.205  10.143  16.602  0.00  0.00    +0.000 C 
ATOM     35  C   UNL     1      -2.898   9.477  15.423  0.00  0.00    +0.000 C 
ATOM     36  C   UNL     1      -3.664  10.548  14.666  0.00  0.00    +0.000 C 
ATOM     37  O   UNL     1      -4.712  11.105  15.463  0.00  0.00    +0.000 OA
ENDBRANCH  26  28
ENDBRANCH  23  24
ENDBRANCH   4  23
TORSDOF 7
ENDMDL
MODEL 7
REMARK VINA RESULT:      -8.1      2.274     10.689
REMARK  Name = 
REMARK  8 active torsions:
REMARK  status: ('A' for Active; 'I' for Inactive)
REMARK    1  A    between atoms: C_1  and  O_2
REMARK    2  A    between atoms: O_2  and  C_3
REMARK    3  A    between atoms: C_6  and  C_7
REMARK    4  A    between atoms: C_7  and  C_9
REMARK    5  A    between atoms: N_12  and  C_13
REMARK    6  A    between atoms: N_16  and  C_17
REMARK    7  A    between atoms: C_17  and  C_18
REMARK    8  A    between atoms: N_20  and  C_21
REMARK                            x       y       z     vdW  Elec       q    Type
REMARK                         _______ _______ _______ _____ _____    ______ ____
ROOT
ATOM      1  C   UNL     1       1.119   9.057  19.498  0.00  0.00    +0.000 C 
ATOM      2  C   UNL     1       2.128   8.830  18.364  0.00  0.00    +0.000 C 
ATOM      3  C   UNL     1       2.266   7.298  18.327  0.00  0.00    +0.000 C 
ATOM      4  N   UNL     1       1.918   6.866  19.666  0.00  0.00    +0.000 N 
ATOM      5  C   UNL     1       1.602   7.956  20.456  0.00  0.00    +0.000 C 
ATOM      6  O   UNL     1       1.704   7.985  21.670  0.00  0.00    +0.000 OA
ENDROOT
BRANCH   1  10
ATOM      7  C   UNL     1      -0.903  12.740  19.928  0.00  0.00    +0.000 C 
ATOM      8  C   UNL     1       0.465  12.800  19.263  0.00  0.00    +0.000 C 
ATOM      9  C   UNL     1       1.123  11.439  19.061  0.00  0.00    +0.000 C 
ATOM     10  N   UNL     1       0.942  10.404  20.095  0.00  0.00    +0.000 NA
ATOM     11  C   UNL     1      -0.212  10.520  20.976  0.00  0.00    +0.000 C 
ATOM     12  C   UNL     1      -0.740  11.934  21.217  0.00  0.00    +0.000 C 
BRANCH   7  13
ATOM     13  C   UNL     1      -2.062  12.300  18.999  0.00  0.00    +0.000 C 
ATOM     14  O   UNL     1      -1.890  11.959  17.840  0.00  0.00    +0.000 OA
BRANCH  13  18
ATOM     15  C   UNL     1      -6.057  12.619  20.599  0.00  0.00    +0.000 A 
ATOM     16  C   UNL     1      -5.819  11.822  19.476  0.00  0.00    +0.000 A 
ATOM     17  C   UNL     1      -4.524  11.728  18.932  0.00  0.00    +0.000 A 
ATOM     18  C   UNL     1      -3.471  12.444  19.507  0.00  0.00    +0.000 A 
ATOM     19  C   UNL     1      -3.750  13.326  20.553  0.00  0.00    +0.000 A 
ATOM     20  C   UNL     1      -5.029  13.413  21.107  0.00  0.00    +0.000 A 
BRANCH  15  22
ATOM     21  C   UNL     1      -7.826  13.841  21.573  0.00  0.00    +0.000 C 
ATOM     22  O   UNL     1      -7.323  12.581  21.126  0.00  0.00    +0.000 OA
ENDBRANCH  15  22
ENDBRANCH  13  18
ENDBRANCH   7  13
ENDBRANCH   1  10
BRANCH   4  23
ATOM     23  C   UNL     1       2.256   5.567  20.242  0.00  0.00    +0.000 C 
BRANCH  23  24
ATOM     24  C   UNL     1       3.574   4.948  19.756  0.00  0.00    +0.000 C 
ATOM     25  O   UNL     1       3.720   3.729  19.685  0.00  0.00    +0.000 OA
ATOM     26  N   UNL     1       4.537   5.866  19.371  0.00  0.00    +0.000 N 
ATOM     27  H   UNL     1       4.605   6.700  19.950  0.00  0.00    +0.000 HD
BRANCH  26  28
ATOM     28  C   UNL     1       5.787   5.470  18.855  0.00  0.00    +0.000 A 
ATOM     29  N   UNL     1       6.795   5.434  19.754  0.00  0.00    +0.000 NA
ATOM     30  N   UNL     1       8.035   4.985  19.390  0.00  0.00    +0.000 NA
ATOM     31  C   UNL     1       8.247   4.610  18.114  0.00  0.00    +0.000 A 
ATOM     32  C   UNL     1       7.267   4.705  17.145  0.00  0.00    +0.000 A 
ATOM     33  C   UNL     1       6.002   5.185  17.504  0.00  0.00    +0.000 A 
ATOM     34  C   UNL     1       4.974   5.431  16.439  0.00  0.00    +0.000 C 
ATOM     35  C   UNL     1       5.619   5.487  15.063  0.00  0.00    +0.000 C 
ATOM     36  C   UNL     1       6.547   4.293  14.932  0.00  0.00    +0.000 C 
ATOM     37  O   UNL     1       7.627   4.364  15.867  0.00  0.00    +0.000 OA
ENDBRANCH  26  28
ENDBRANCH  23  24
ENDBRANCH   4  23
TORSDOF 7
ENDMDL
MODEL 8
REMARK VINA RESULT:      -8.1      1.358      1.567
REMARK  Name = 
REMARK  8 active torsions:
REMARK  status: ('A' for Active; 'I' for Inactive)
REMARK    1  A    between atoms: C_1  and  O_2
REMARK    2  A    between atoms: O_2  and  C_3
REMARK    3  A    between atoms: C_6  and  C_7
REMARK    4  A    between atoms: C_7  and  C_9
REMARK    5  A    between atoms: N_12  and  C_13
REMARK    6  A    between atoms: N_16  and  C_17
REMARK    7  A    between atoms: C_17  and  C_18
REMARK    8  A    between atoms: N_20  and  C_21
REMARK                            x       y       z     vdW  Elec       q    Type
REMARK                         _______ _______ _______ _____ _____    ______ ____
ROOT
ATOM      1  C   UNL     1       2.395   7.435  19.475  0.00  0.00    +0.000 C 
ATOM      2  C   UNL     1       2.062   7.823  18.028  0.00  0.00    +0.000 C 
ATOM      3  C   UNL     1       1.822   9.340  18.125  0.00  0.00    +0.000 C 
ATOM      4  N   UNL     1       1.423   9.563  19.501  0.00  0.00    +0.000 N 
ATOM      5  C   UNL     1       1.405   8.366  20.195  0.00  0.00    +0.000 C 
ATOM      6  O   UNL     1       0.720   8.147  21.178  0.00  0.00    +0.000 OA
ENDROOT
BRANCH   1  10
ATOM      7  C   UNL     1       2.783   3.292  18.755  0.00  0.00    +0.000 C 
ATOM      8  C   UNL     1       1.375   3.793  19.048  0.00  0.00    +0.000 C 
ATOM      9  C   UNL     1       1.273   5.304  19.226  0.00  0.00    +0.000 C 
ATOM     10  N   UNL     1       2.374   6.014  19.902  0.00  0.00    +0.000 NA
ATOM     11  C   UNL     1       3.684   5.376  19.917  0.00  0.00    +0.000 C 
ATOM     12  C   UNL     1       3.693   3.849  19.850  0.00  0.00    +0.000 C 
BRANCH   7  13
ATOM     13  C   UNL     1       3.265   3.512  17.300  0.00  0.00    +0.000 C 
ATOM     14  O   UNL     1       2.790   2.917  16.347  0.00  0.00    +0.000 OA
BRANCH  13  18
ATOM     15  C   UNL     1       6.730   6.042  16.837  0.00  0.00    +0.000 A 
ATOM     16  C   UNL     1       5.476   6.496  16.419  0.00  0.00    +0.000 A 
ATOM     17  C   UNL     1       4.343   5.671  16.544  0.00  0.00    +0.000 A 
ATOM     18  C   UNL     1       4.470   4.385  17.078  0.00  0.00    +0.000 A 
ATOM     19  C   UNL     1       5.746   3.906  17.379  0.00  0.00    +0.000 A 
ATOM     20  C   UNL     1       6.873   4.725  17.271  0.00  0.00    +0.000 A 
BRANCH  15  22
ATOM     21  C   UNL     1       8.075   7.590  18.006  0.00  0.00    +0.000 C 
ATOM     22  O   UNL     1       7.765   6.940  16.772  0.00  0.00    +0.000 OA
ENDBRANCH  15  22
ENDBRANCH  13  18
ENDBRANCH   7  13
ENDBRANCH   1  10
BRANCH   4  23
ATOM     23  C   UNL     1       0.730  10.751  19.991  0.00  0.00    +0.000 C 
BRANCH  23  24
ATOM     24  C   UNL     1      -0.329  11.337  19.048  0.00  0.00    +0.000 C 
ATOM     25  O   UNL     1      -0.188  12.449  18.541  0.00  0.00    +0.000 OA
ATOM     26  N   UNL     1      -1.404  10.502  18.792  0.00  0.00    +0.000 N 
ATOM     27  H   UNL     1      -1.741   9.965  19.587  0.00  0.00    +0.000 HD
BRANCH  26  28
ATOM     28  C   UNL     1      -2.442  10.863  17.911  0.00  0.00    +0.000 A 
ATOM     29  N   UNL     1      -2.209  10.593  16.607  0.00  0.00    +0.000 NA
ATOM     30  N   UNL     1      -3.176  10.821  15.667  0.00  0.00    +0.000 NA
ATOM     31  C   UNL     1      -4.353  11.350  16.053  0.00  0.00    +0.000 A 
ATOM     32  C   UNL     1      -4.604  11.714  17.361  0.00  0.00    +0.000 A 
ATOM     33  C   UNL     1      -3.611  11.505  18.326  0.00  0.00    +0.000 A 
ATOM     34  C   UNL     1      -3.811  12.026  19.719  0.00  0.00    +0.000 C 
ATOM     35  C   UNL     1      -4.922  13.064  19.758  0.00  0.00    +0.000 C 
ATOM     36  C   UNL     1      -6.113  12.502  19.001  0.00  0.00    +0.000 C 
ATOM     37  O   UNL     1      -5.811  12.312  17.616  0.00  0.00    +0.000 OA
ENDBRANCH  26  28
ENDBRANCH  23  24
ENDBRANCH   4  23
TORSDOF 7
ENDMDL
MODEL 9
REMARK VINA RESULT:      -8.0      3.062      4.035
REMARK  Name = 
REMARK  8 active torsions:
REMARK  status: ('A' for Active; 'I' for Inactive)
REMARK    1  A    between atoms: C_1  and  O_2
REMARK    2  A    between atoms: O_2  and  C_3
REMARK    3  A    between atoms: C_6  and  C_7
REMARK    4  A    between atoms: C_7  and  C_9
REMARK    5  A    between atoms: N_12  and  C_13
REMARK    6  A    between atoms: N_16  and  C_17
REMARK    7  A    between atoms: C_17  and  C_18
REMARK    8  A    between atoms: N_20  and  C_21
REMARK                            x       y       z     vdW  Elec       q    Type
REMARK                         _______ _______ _______ _____ _____    ______ ____
ROOT
ATOM      1  C   UNL     1       2.620   7.135  19.087  0.00  0.00    +0.000 C 
ATOM      2  C   UNL     1       2.138   7.843  17.814  0.00  0.00    +0.000 C 
ATOM      3  C   UNL     1       1.819   9.265  18.309  0.00  0.00    +0.000 C 
ATOM      4  N   UNL     1       1.533   9.106  19.722  0.00  0.00    +0.000 N 
ATOM      5  C   UNL     1       1.646   7.777  20.088  0.00  0.00    +0.000 C 
ATOM      6  O   UNL     1       1.065   7.267  21.030  0.00  0.00    +0.000 OA
ENDROOT
BRANCH   1  10
ATOM      7  C   UNL     1       4.159   3.427  17.777  0.00  0.00    +0.000 C 
ATOM      8  C   UNL     1       2.694   3.694  17.461  0.00  0.00    +0.000 C 
ATOM      9  C   UNL     1       2.203   5.074  17.886  0.00  0.00    +0.000 C 
ATOM     10  N   UNL     1       2.720   5.656  19.138  0.00  0.00    +0.000 NA
ATOM     11  C   UNL     1       3.995   5.160  19.640  0.00  0.00    +0.000 C 
ATOM     12  C   UNL     1       4.359   3.725  19.263  0.00  0.00    +0.000 C 
BRANCH   7  13
ATOM     13  C   UNL     1       5.168   4.099  16.812  0.00  0.00    +0.000 C 
ATOM     14  O   UNL     1       5.367   3.699  15.677  0.00  0.00    +0.000 OA
BRANCH  13  18
ATOM     15  C   UNL     1       7.752   7.259  18.210  0.00  0.00    +0.000 A 
ATOM     16  C   UNL     1       7.943   5.951  18.666  0.00  0.00    +0.000 A 
ATOM     17  C   UNL     1       7.092   4.917  18.234  0.00  0.00    +0.000 A 
ATOM     18  C   UNL     1       6.042   5.196  17.355  0.00  0.00    +0.000 A 
ATOM     19  C   UNL     1       5.794   6.525  17.005  0.00  0.00    +0.000 A 
ATOM     20  C   UNL     1       6.644   7.554  17.418  0.00  0.00    +0.000 A 
BRANCH  15  22
ATOM     21  C   UNL     1       8.431   9.518  18.137  0.00  0.00    +0.000 C 
ATOM     22  O   UNL     1       8.681   8.190  18.600  0.00  0.00    +0.000 OA
ENDBRANCH  15  22
ENDBRANCH  13  18
ENDBRANCH   7  13
ENDBRANCH   1  10
BRANCH   4  23
ATOM     23  C   UNL     1       0.818  10.077  20.546  0.00  0.00    +0.000 C 
BRANCH  23  24
ATOM     24  C   UNL     1       0.701  11.489  19.957  0.00  0.00    +0.000 C 
ATOM     25  O   UNL     1      -0.239  11.802  19.228  0.00  0.00    +0.000 OA
ATOM     26  N   UNL     1       1.701  12.365  20.348  0.00  0.00    +0.000 N 
ATOM     27  H   UNL     1       2.634  11.966  20.410  0.00  0.00    +0.000 HD
BRANCH  26  28
ATOM     28  C   UNL     1       1.720  13.713  19.940  0.00  0.00    +0.000 A 
ATOM     29  N   UNL     1       2.459  13.969  18.838  0.00  0.00    +0.000 NA
ATOM     30  N   UNL     1       2.487  15.225  18.297  0.00  0.00    +0.000 NA
ATOM     31  C   UNL     1       1.795  16.212  18.896  0.00  0.00    +0.000 A 
ATOM     32  C   UNL     1       1.091  16.012  20.067  0.00  0.00    +0.000 A 
ATOM     33  C   UNL     1       1.075  14.735  20.640  0.00  0.00    +0.000 A 
ATOM     34  C   UNL     1       0.438  14.534  21.984  0.00  0.00    +0.000 C 
ATOM     35  C   UNL     1       0.249  15.863  22.700  0.00  0.00    +0.000 C 
ATOM     36  C   UNL     1      -0.383  16.836  21.721  0.00  0.00    +0.000 C 
ATOM     37  O   UNL     1       0.488  17.112  20.621  0.00  0.00    +0.000 OA
ENDBRANCH  26  28
ENDBRANCH  23  24
ENDBRANCH   4  23
TORSDOF 7
ENDMDL
