MODEL 1
REMARK VINA RESULT:      -7.5      0.000      0.000
REMARK  Name = 
REMARK  11 active torsions:
REMARK  status: ('A' for Active; 'I' for Inactive)
REMARK    1  A    between atoms: C_1  and  O_2
REMARK    2  A    between atoms: O_2  and  C_3
REMARK    3  A    between atoms: C_3  and  C_4
REMARK    4  A    between atoms: C_4  and  N_5
REMARK    5  A    between atoms: C_6  and  C_7
REMARK    6  A    between atoms: C_10  and  C_11
REMARK    7  A    between atoms: C_11  and  C_12
REMARK    8  A    between atoms: C_11  and  C_13
REMARK    9  A    between atoms: C_18  and  C_19
REMARK   10  A    between atoms: C_22  and  O_23
REMARK   11  A    between atoms: O_23  and  C_24
REMARK                            x       y       z     vdW  Elec       q    Type
REMARK                         _______ _______ _______ _____ _____    ______ ____
ROOT
ATOM      1  N   UNL     1       2.883   5.554  19.233  0.00  0.00    +0.000 N 
ATOM      2  C   UNL     1       2.706   6.905  18.928  0.00  0.00    +0.000 A 
ATOM      3  N   UNL     1       3.357   7.174  17.801  0.00  0.00    +0.000 NA
ATOM      4  C   UNL     1       4.018   6.029  17.419  0.00  0.00    +0.000 A 
ATOM      5  C   UNL     1       4.862   5.809  16.309  0.00  0.00    +0.000 A 
ATOM      6  C   UNL     1       5.175   6.857  15.280  0.00  0.00    +0.000 C 
ATOM      7  C   UNL     1       5.438   4.532  16.169  0.00  0.00    +0.000 A 
ATOM      8  C   UNL     1       5.177   3.511  17.082  0.00  0.00    +0.000 A 
ATOM      9  C   UNL     1       4.322   3.708  18.171  0.00  0.00    +0.000 A 
ATOM     10  C   UNL     1       3.755   4.993  18.311  0.00  0.00    +0.000 A 
ENDROOT
BRANCH   2  11
ATOM     11  C   UNL     1       1.883   7.914  19.653  0.00  0.00    +0.000 A 
ATOM     12  C   UNL     1       1.448   7.766  20.974  0.00  0.00    +0.000 A 
ATOM     13  C   UNL     1       0.584   8.668  21.593  0.00  0.00    +0.000 A 
ATOM     14  C   UNL     1       0.188   9.830  20.945  0.00  0.00    +0.000 A 
ATOM     15  C   UNL     1       0.670  10.053  19.648  0.00  0.00    +0.000 A 
ATOM     16  C   UNL     1       1.494   9.102  19.010  0.00  0.00    +0.000 A 
BRANCH  14  17
ATOM     17  C   UNL     1      -0.683  10.804  21.711  0.00  0.00    +0.000 C 
ATOM     18  C   UNL     1      -0.861  10.343  23.155  0.00  0.00    +0.000 C 
ATOM     19  C   UNL     1      -0.184  12.243  21.618  0.00  0.00    +0.000 C 
ENDBRANCH  14  17
ENDBRANCH   2  11
BRANCH   9  20
ATOM     20  O   UNL     1       4.002   2.749  19.086  0.00  0.00    +0.000 OA
ATOM     21  C   UNL     1       3.495   1.507  18.624  0.00  0.00    +0.000 C 
ENDBRANCH   9  20
BRANCH   1  22
ATOM     22  C   UNL     1       2.305   4.828  20.344  0.00  0.00    +0.000 C 
BRANCH  22  23
ATOM     23  C   UNL     1       0.995   4.117  20.019  0.00  0.00    +0.000 C 
BRANCH  23  25
ATOM     24  C   UNL     1       1.940   2.883  21.802  0.00  0.00    +0.000 C 
ATOM     25  O   UNL     1       0.955   2.902  20.779  0.00  0.00    +0.000 OA
ENDBRANCH  23  25
ENDBRANCH  22  23
ENDBRANCH   1  22
TORSDOF 6
ENDMDL
MODEL 2
REMARK VINA RESULT:      -7.3      0.319      1.204
REMARK  Name = 
REMARK  11 active torsions:
REMARK  status: ('A' for Active; 'I' for Inactive)
REMARK    1  A    between atoms: C_1  and  O_2
REMARK    2  A    between atoms: O_2  and  C_3
REMARK    3  A    between atoms: C_3  and  C_4
REMARK    4  A    between atoms: C_4  and  N_5
REMARK    5  A    between atoms: C_6  and  C_7
REMARK    6  A    between atoms: C_10  and  C_11
REMARK    7  A    between atoms: C_11  and  C_12
REMARK    8  A    between atoms: C_11  and  C_13
REMARK    9  A    between atoms: C_18  and  C_19
REMARK   10  A    between atoms: C_22  and  O_23
REMARK   11  A    between atoms: O_23  and  C_24
REMARK                            x       y       z     vdW  Elec       q    Type
REMARK                         _______ _______ _______ _____ _____    ______ ____
ROOT
ATOM      1  N   UNL     1       2.869   5.589  19.257  0.00  0.00    +0.000 N 
ATOM      2  C   UNL     1       2.707   6.940  18.946  0.00  0.00    +0.000 A 
ATOM      3  N   UNL     1       3.355   7.197  17.816  0.00  0.00    +0.000 NA
ATOM      4  C   UNL     1       4.001   6.043  17.435  0.00  0.00    +0.000 A 
ATOM      5  C   UNL     1       4.836   5.807  16.322  0.00  0.00    +0.000 A 
ATOM      6  C   UNL     1       5.157   6.847  15.287  0.00  0.00    +0.000 C 
ATOM      7  C   UNL     1       5.396   4.524  16.185  0.00  0.00    +0.000 A 
ATOM      8  C   UNL     1       5.128   3.509  17.103  0.00  0.00    +0.000 A 
ATOM      9  C   UNL     1       4.281   3.721  18.195  0.00  0.00    +0.000 A 
ATOM     10  C   UNL     1       3.730   5.013  18.332  0.00  0.00    +0.000 A 
ENDROOT
BRANCH   2  11
ATOM     11  C   UNL     1       1.900   7.963  19.671  0.00  0.00    +0.000 A 
ATOM     12  C   UNL     1       1.411   9.134  19.082  0.00  0.00    +0.000 A 
ATOM     13  C   UNL     1       0.758  10.130  19.806  0.00  0.00    +0.000 A 
ATOM     14  C   UNL     1       0.470   9.956  21.152  0.00  0.00    +0.000 A 
ATOM     15  C   UNL     1       0.873   8.758  21.758  0.00  0.00    +0.000 A 
ATOM     16  C   UNL     1       1.588   7.784  21.030  0.00  0.00    +0.000 A 
BRANCH  14  17
ATOM     17  C   UNL     1      -0.317  11.044  21.853  0.00  0.00    +0.000 C 
ATOM     18  C   UNL     1      -1.281  11.719  20.882  0.00  0.00    +0.000 C 
ATOM     19  C   UNL     1      -1.016  10.550  23.116  0.00  0.00    +0.000 C 
ENDBRANCH  14  17
ENDBRANCH   2  11
BRANCH   9  20
ATOM     20  O   UNL     1       3.954   2.770  19.117  0.00  0.00    +0.000 OA
ATOM     21  C   UNL     1       3.526   1.496  18.660  0.00  0.00    +0.000 C 
ENDBRANCH   9  20
BRANCH   1  22
ATOM     22  C   UNL     1       2.288   4.874  20.373  0.00  0.00    +0.000 C 
BRANCH  22  23
ATOM     23  C   UNL     1       0.948   4.210  20.069  0.00  0.00    +0.000 C 
BRANCH  23  25
ATOM     24  C   UNL     1       1.855   2.855  21.782  0.00  0.00    +0.000 C 
ATOM     25  O   UNL     1       0.947   2.919  20.692  0.00  0.00    +0.000 OA
ENDBRANCH  23  25
ENDBRANCH  22  23
ENDBRANCH   1  22
TORSDOF 6
ENDMDL
MODEL 3
REMARK VINA RESULT:      -7.1      1.330      1.452
REMARK  Name = 
REMARK  11 active torsions:
REMARK  status: ('A' for Active; 'I' for Inactive)
REMARK    1  A    between atoms: C_1  and  O_2
REMARK    2  A    between atoms: O_2  and  C_3
REMARK    3  A    between atoms: C_3  and  C_4
REMARK    4  A    between atoms: C_4  and  N_5
REMARK    5  A    between atoms: C_6  and  C_7
REMARK    6  A    between atoms: C_10  and  C_11
REMARK    7  A    between atoms: C_11  and  C_12
REMARK    8  A    between atoms: C_11  and  C_13
REMARK    9  A    between atoms: C_18  and  C_19
REMARK   10  A    between atoms: C_22  and  O_23
REMARK   11  A    between atoms: O_23  and  C_24
REMARK                            x       y       z     vdW  Elec       q    Type
REMARK                         _______ _______ _______ _____ _____    ______ ____
ROOT
ATOM      1  N   UNL     1       2.850   5.570  17.971  0.00  0.00    +0.000 N 
ATOM      2  C   UNL     1       3.108   6.913  18.250  0.00  0.00    +0.000 A 
ATOM      3  N   UNL     1       4.351   7.193  17.875  0.00  0.00    +0.000 NA
ATOM      4  C   UNL     1       4.925   6.024  17.430  0.00  0.00    +0.000 A 
ATOM      5  C   UNL     1       6.232   5.792  16.952  0.00  0.00    +0.000 A 
ATOM      6  C   UNL     1       7.273   6.866  16.818  0.00  0.00    +0.000 C 
ATOM      7  C   UNL     1       6.570   4.476  16.583  0.00  0.00    +0.000 A 
ATOM      8  C   UNL     1       5.646   3.435  16.671  0.00  0.00    +0.000 A 
ATOM      9  C   UNL     1       4.340   3.656  17.119  0.00  0.00    +0.000 A 
ATOM     10  C   UNL     1       4.010   4.976  17.495  0.00  0.00    +0.000 A 
ENDROOT
BRANCH   2  11
ATOM     11  C   UNL     1       2.175   7.936  18.804  0.00  0.00    +0.000 A 
ATOM     12  C   UNL     1       1.818   8.019  20.154  0.00  0.00    +0.000 A 
ATOM     13  C   UNL     1       0.857   8.909  20.629  0.00  0.00    +0.000 A 
ATOM     14  C   UNL     1       0.272   9.841  19.783  0.00  0.00    +0.000 A 
ATOM     15  C   UNL     1       0.666   9.842  18.438  0.00  0.00    +0.000 A 
ATOM     16  C   UNL     1       1.594   8.895  17.956  0.00  0.00    +0.000 A 
BRANCH  14  17
ATOM     17  C   UNL     1      -0.701  10.832  20.388  0.00  0.00    +0.000 C 
ATOM     18  C   UNL     1       0.002  11.714  21.416  0.00  0.00    +0.000 C 
ATOM     19  C   UNL     1      -1.446  11.648  19.335  0.00  0.00    +0.000 C 
ENDBRANCH  14  17
ENDBRANCH   2  11
BRANCH   9  20
ATOM     20  O   UNL     1       3.378   2.693  17.204  0.00  0.00    +0.000 OA
ATOM     21  C   UNL     1       3.541   1.647  18.149  0.00  0.00    +0.000 C 
ENDBRANCH   9  20
BRANCH   1  22
ATOM     22  C   UNL     1       1.604   4.861  18.171  0.00  0.00    +0.000 C 
BRANCH  22  23
ATOM     23  C   UNL     1       1.303   4.512  19.626  0.00  0.00    +0.000 C 
BRANCH  23  25
ATOM     24  C   UNL     1       2.326   3.290  21.372  0.00  0.00    +0.000 C 
ATOM     25  O   UNL     1       2.536   4.136  20.251  0.00  0.00    +0.000 OA
ENDBRANCH  23  25
ENDBRANCH  22  23
ENDBRANCH   1  22
TORSDOF 6
ENDMDL
MODEL 4
REMARK VINA RESULT:      -7.0      1.103      1.503
REMARK  Name = 
REMARK  11 active torsions:
REMARK  status: ('A' for Active; 'I' for Inactive)
REMARK    1  A    between atoms: C_1  and  O_2
REMARK    2  A    between atoms: O_2  and  C_3
REMARK    3  A    between atoms: C_3  and  C_4
REMARK    4  A    between atoms: C_4  and  N_5
REMARK    5  A    between atoms: C_6  and  C_7
REMARK    6  A    between atoms: C_10  and  C_11
REMARK    7  A    between atoms: C_11  and  C_12
REMARK    8  A    between atoms: C_11  and  C_13
REMARK    9  A    between atoms: C_18  and  C_19
REMARK   10  A    between atoms: C_22  and  O_23
REMARK   11  A    between atoms: O_23  and  C_24
REMARK                            x       y       z     vdW  Elec       q    Type
REMARK                         _______ _______ _______ _____ _____    ______ ____
ROOT
ATOM      1  N   UNL     1       2.766   5.548  18.070  0.00  0.00    +0.000 N 
ATOM      2  C   UNL     1       3.019   6.907  18.263  0.00  0.00    +0.000 A 
ATOM      3  N   UNL     1       4.232   7.183  17.797  0.00  0.00    +0.000 NA
ATOM      4  C   UNL     1       4.796   6.001  17.376  0.00  0.00    +0.000 A 
ATOM      5  C   UNL     1       6.074   5.762  16.828  0.00  0.00    +0.000 A 
ATOM      6  C   UNL     1       7.087   6.841  16.574  0.00  0.00    +0.000 C 
ATOM      7  C   UNL     1       6.409   4.433  16.506  0.00  0.00    +0.000 A 
ATOM      8  C   UNL     1       5.510   3.386  16.704  0.00  0.00    +0.000 A 
ATOM      9  C   UNL     1       4.231   3.613  17.222  0.00  0.00    +0.000 A 
ATOM     10  C   UNL     1       3.904   4.946  17.551  0.00  0.00    +0.000 A 
ENDROOT
BRANCH   2  11
ATOM     11  C   UNL     1       2.107   7.944  18.823  0.00  0.00    +0.000 A 
ATOM     12  C   UNL     1       1.499   8.946  18.058  0.00  0.00    +0.000 A 
ATOM     13  C   UNL     1       0.743   9.974  18.619  0.00  0.00    +0.000 A 
ATOM     14  C   UNL     1       0.471   9.993  19.980  0.00  0.00    +0.000 A 
ATOM     15  C   UNL     1       0.997   8.960  20.767  0.00  0.00    +0.000 A 
ATOM     16  C   UNL     1       1.812   7.960  20.197  0.00  0.00    +0.000 A 
BRANCH  14  17
ATOM     17  C   UNL     1      -0.427  11.094  20.505  0.00  0.00    +0.000 C 
ATOM     18  C   UNL     1      -0.510  11.037  22.028  0.00  0.00    +0.000 C 
ATOM     19  C   UNL     1      -0.030  12.476  19.996  0.00  0.00    +0.000 C 
ENDBRANCH  14  17
ENDBRANCH   2  11
BRANCH   9  20
ATOM     20  O   UNL     1       3.292   2.642  17.417  0.00  0.00    +0.000 OA
ATOM     21  C   UNL     1       3.585   1.580  18.310  0.00  0.00    +0.000 C 
ENDBRANCH   9  20
BRANCH   1  22
ATOM     22  C   UNL     1       1.547   4.834  18.383  0.00  0.00    +0.000 C 
BRANCH  22  23
ATOM     23  C   UNL     1       1.355   4.536  19.868  0.00  0.00    +0.000 C 
BRANCH  23  25
ATOM     24  C   UNL     1       1.435   2.609  21.236  0.00  0.00    +0.000 C 
ATOM     25  O   UNL     1       1.005   3.152  19.996  0.00  0.00    +0.000 OA
ENDBRANCH  23  25
ENDBRANCH  22  23
ENDBRANCH   1  22
TORSDOF 6
ENDMDL
MODEL 5
REMARK VINA RESULT:      -7.0      0.622      1.206
REMARK  Name = 
REMARK  11 active torsions:
REMARK  status: ('A' for Active; 'I' for Inactive)
REMARK    1  A    between atoms: C_1  and  O_2
REMARK    2  A    between atoms: O_2  and  C_3
REMARK    3  A    between atoms: C_3  and  C_4
REMARK    4  A    between atoms: C_4  and  N_5
REMARK    5  A    between atoms: C_6  and  C_7
REMARK    6  A    between atoms: C_10  and  C_11
REMARK    7  A    between atoms: C_11  and  C_12
REMARK    8  A    between atoms: C_11  and  C_13
REMARK    9  A    between atoms: C_18  and  C_19
REMARK   10  A    between atoms: C_22  and  O_23
REMARK   11  A    between atoms: O_23  and  C_24
REMARK                            x       y       z     vdW  Elec       q    Type
REMARK                         _______ _______ _______ _____ _____    ______ ____
ROOT
ATOM      1  N   UNL     1       2.830   5.752  19.497  0.00  0.00    +0.000 N 
ATOM      2  C   UNL     1       2.593   7.064  19.086  0.00  0.00    +0.000 A 
ATOM      3  N   UNL     1       3.242   7.277  17.947  0.00  0.00    +0.000 NA
ATOM      4  C   UNL     1       3.961   6.139  17.660  0.00  0.00    +0.000 A 
ATOM      5  C   UNL     1       4.827   5.874  16.577  0.00  0.00    +0.000 A 
ATOM      6  C   UNL     1       5.101   6.852  15.471  0.00  0.00    +0.000 C 
ATOM      7  C   UNL     1       5.464   4.620  16.541  0.00  0.00    +0.000 A 
ATOM      8  C   UNL     1       5.242   3.661  17.529  0.00  0.00    +0.000 A 
ATOM      9  C   UNL     1       4.368   3.901  18.593  0.00  0.00    +0.000 A 
ATOM     10  C   UNL     1       3.738   5.164  18.628  0.00  0.00    +0.000 A 
ENDROOT
BRANCH   2  11
ATOM     11  C   UNL     1       1.715   8.087  19.724  0.00  0.00    +0.000 A 
ATOM     12  C   UNL     1       1.176   9.187  19.047  0.00  0.00    +0.000 A 
ATOM     13  C   UNL     1       0.454  10.191  19.689  0.00  0.00    +0.000 A 
ATOM     14  C   UNL     1       0.145  10.092  21.038  0.00  0.00    +0.000 A 
ATOM     15  C   UNL     1       0.599   8.962  21.732  0.00  0.00    +0.000 A 
ATOM     16  C   UNL     1       1.383   7.983  21.085  0.00  0.00    +0.000 A 
BRANCH  14  17
ATOM     17  C   UNL     1      -0.715  11.179  21.648  0.00  0.00    +0.000 C 
ATOM     18  C   UNL     1      -1.111  10.812  23.075  0.00  0.00    +0.000 C 
ATOM     19  C   UNL     1      -0.074  12.561  21.561  0.00  0.00    +0.000 C 
ENDBRANCH  14  17
ENDBRANCH   2  11
BRANCH   9  20
ATOM     20  O   UNL     1       4.083   3.001  19.579  0.00  0.00    +0.000 OA
ATOM     21  C   UNL     1       4.220   1.617  19.300  0.00  0.00    +0.000 C 
ENDBRANCH   9  20
BRANCH   1  22
ATOM     22  C   UNL     1       2.276   5.088  20.658  0.00  0.00    +0.000 C 
BRANCH  22  23
ATOM     23  C   UNL     1       0.908   4.452  20.427  0.00  0.00    +0.000 C 
BRANCH  23  25
ATOM     24  C   UNL     1       0.699   2.597  18.975  0.00  0.00    +0.000 C 
ATOM     25  O   UNL     1       1.101   3.042  20.262  0.00  0.00    +0.000 OA
ENDBRANCH  23  25
ENDBRANCH  22  23
ENDBRANCH   1  22
TORSDOF 6
ENDMDL
MODEL 6
REMARK VINA RESULT:      -6.9      0.998      1.141
REMARK  Name = 
REMARK  11 active torsions:
REMARK  status: ('A' for Active; 'I' for Inactive)
REMARK    1  A    between atoms: C_1  and  O_2
REMARK    2  A    between atoms: O_2  and  C_3
REMARK    3  A    between atoms: C_3  and  C_4
REMARK    4  A    between atoms: C_4  and  N_5
REMARK    5  A    between atoms: C_6  and  C_7
REMARK    6  A    between atoms: C_10  and  C_11
REMARK    7  A    between atoms: C_11  and  C_12
REMARK    8  A    between atoms: C_11  and  C_13
REMARK    9  A    between atoms: C_18  and  C_19
REMARK   10  A    between atoms: C_22  and  O_23
REMARK   11  A    between atoms: O_23  and  C_24
REMARK                            x       y       z     vdW  Elec       q    Type
REMARK                         _______ _______ _______ _____ _____    ______ ____
ROOT
ATOM      1  N   UNL     1       2.822   5.420  18.296  0.00  0.00    +0.000 N 
ATOM      2  C   UNL     1       3.059   6.769  18.567  0.00  0.00    +0.000 A 
ATOM      3  N   UNL     1       4.213   7.118  18.010  0.00  0.00    +0.000 NA
ATOM      4  C   UNL     1       4.763   5.988  17.449  0.00  0.00    +0.000 A 
ATOM      5  C   UNL     1       5.988   5.830  16.765  0.00  0.00    +0.000 A 
ATOM      6  C   UNL     1       6.943   6.958  16.499  0.00  0.00    +0.000 C 
ATOM      7  C   UNL     1       6.323   4.540  16.313  0.00  0.00    +0.000 A 
ATOM      8  C   UNL     1       5.473   3.454  16.516  0.00  0.00    +0.000 A 
ATOM      9  C   UNL     1       4.246   3.600  17.169  0.00  0.00    +0.000 A 
ATOM     10  C   UNL     1       3.919   4.895  17.628  0.00  0.00    +0.000 A 
ENDROOT
BRANCH   2  11
ATOM     11  C   UNL     1       2.180   7.733  19.288  0.00  0.00    +0.000 A 
ATOM     12  C   UNL     1       1.827   7.613  20.636  0.00  0.00    +0.000 A 
ATOM     13  C   UNL     1       0.912   8.461  21.258  0.00  0.00    +0.000 A 
ATOM     14  C   UNL     1       0.375   9.546  20.580  0.00  0.00    +0.000 A 
ATOM     15  C   UNL     1       0.768   9.746  19.250  0.00  0.00    +0.000 A 
ATOM     16  C   UNL     1       1.646   8.845  18.612  0.00  0.00    +0.000 A 
BRANCH  14  17
ATOM     17  C   UNL     1      -0.547  10.472  21.346  0.00  0.00    +0.000 C 
ATOM     18  C   UNL     1      -0.614  10.067  22.816  0.00  0.00    +0.000 C 
ATOM     19  C   UNL     1      -0.190  11.945  21.165  0.00  0.00    +0.000 C 
ENDBRANCH  14  17
ENDBRANCH   2  11
BRANCH   9  20
ATOM     20  O   UNL     1       3.355   2.589  17.378  0.00  0.00    +0.000 OA
ATOM     21  C   UNL     1       3.734   1.508  18.215  0.00  0.00    +0.000 C 
ENDBRANCH   9  20
BRANCH   1  22
ATOM     22  C   UNL     1       1.657   4.647  18.669  0.00  0.00    +0.000 C 
BRANCH  22  23
ATOM     23  C   UNL     1       1.701   4.085  20.087  0.00  0.00    +0.000 C 
BRANCH  23  25
ATOM     24  C   UNL     1       0.429   2.508  18.868  0.00  0.00    +0.000 C 
ATOM     25  O   UNL     1       0.773   2.995  20.156  0.00  0.00    +0.000 OA
ENDBRANCH  23  25
ENDBRANCH  22  23
ENDBRANCH   1  22
TORSDOF 6
ENDMDL
MODEL 7
REMARK VINA RESULT:      -6.8      2.089      4.036
REMARK  Name = 
REMARK  11 active torsions:
REMARK  status: ('A' for Active; 'I' for Inactive)
REMARK    1  A    between atoms: C_1  and  O_2
REMARK    2  A    between atoms: O_2  and  C_3
REMARK    3  A    between atoms: C_3  and  C_4
REMARK    4  A    between atoms: C_4  and  N_5
REMARK    5  A    between atoms: C_6  and  C_7
REMARK    6  A    between atoms: C_10  and  C_11
REMARK    7  A    between atoms: C_11  and  C_12
REMARK    8  A    between atoms: C_11  and  C_13
REMARK    9  A    between atoms: C_18  and  C_19
REMARK   10  A    between atoms: C_22  and  O_23
REMARK   11  A    between atoms: O_23  and  C_24
REMARK                            x       y       z     vdW  Elec       q    Type
REMARK                         _______ _______ _______ _____ _____    ______ ____
ROOT
ATOM      1  N   UNL     1       3.718   5.989  17.699  0.00  0.00    +0.000 N 
ATOM      2  C   UNL     1       2.585   6.422  18.391  0.00  0.00    +0.000 A 
ATOM      3  N   UNL     1       1.935   5.358  18.849  0.00  0.00    +0.000 NA
ATOM      4  C   UNL     1       2.594   4.239  18.392  0.00  0.00    +0.000 A 
ATOM      5  C   UNL     1       2.285   2.876  18.584  0.00  0.00    +0.000 A 
ATOM      6  C   UNL     1       1.119   2.392  19.397  0.00  0.00    +0.000 C 
ATOM      7  C   UNL     1       3.123   1.924  17.973  0.00  0.00    +0.000 A 
ATOM      8  C   UNL     1       4.229   2.306  17.216  0.00  0.00    +0.000 A 
ATOM      9  C   UNL     1       4.562   3.652  17.040  0.00  0.00    +0.000 A 
ATOM     10  C   UNL     1       3.713   4.603  17.648  0.00  0.00    +0.000 A 
ENDROOT
BRANCH   2  11
ATOM     11  C   UNL     1       2.154   7.821  18.671  0.00  0.00    +0.000 A 
ATOM     12  C   UNL     1       1.634   8.249  19.898  0.00  0.00    +0.000 A 
ATOM     13  C   UNL     1       1.131   9.532  20.102  0.00  0.00    +0.000 A 
ATOM     14  C   UNL     1       1.215  10.494  19.104  0.00  0.00    +0.000 A 
ATOM     15  C   UNL     1       1.804  10.125  17.887  0.00  0.00    +0.000 A 
ATOM     16  C   UNL     1       2.253   8.805  17.673  0.00  0.00    +0.000 A 
BRANCH  14  17
ATOM     17  C   UNL     1       0.724  11.890  19.426  0.00  0.00    +0.000 C 
ATOM     18  C   UNL     1       0.647  12.097  20.936  0.00  0.00    +0.000 C 
ATOM     19  C   UNL     1       1.537  12.979  18.732  0.00  0.00    +0.000 C 
ENDBRANCH  14  17
ENDBRANCH   2  11
BRANCH   9  20
ATOM     20  O   UNL     1       5.642   4.097  16.336  0.00  0.00    +0.000 OA
ATOM     21  C   UNL     1       5.629   3.985  14.922  0.00  0.00    +0.000 C 
ENDBRANCH   9  20
BRANCH   1  22
ATOM     22  C   UNL     1       4.733   6.817  17.083  0.00  0.00    +0.000 C 
BRANCH  22  23
ATOM     23  C   UNL     1       6.068   6.831  17.821  0.00  0.00    +0.000 C 
BRANCH  23  25
ATOM     24  C   UNL     1       7.839   8.390  17.658  0.00  0.00    +0.000 C 
ATOM     25  O   UNL     1       7.038   7.446  16.963  0.00  0.00    +0.000 OA
ENDBRANCH  23  25
ENDBRANCH  22  23
ENDBRANCH   1  22
TORSDOF 6
ENDMDL
MODEL 8
REMARK VINA RESULT:      -6.7      2.196      4.214
REMARK  Name = 
REMARK  11 active torsions:
REMARK  status: ('A' for Active; 'I' for Inactive)
REMARK    1  A    between atoms: C_1  and  O_2
REMARK    2  A    between atoms: O_2  and  C_3
REMARK    3  A    between atoms: C_3  and  C_4
REMARK    4  A    between atoms: C_4  and  N_5
REMARK    5  A    between atoms: C_6  and  C_7
REMARK    6  A    between atoms: C_10  and  C_11
REMARK    7  A    between atoms: C_11  and  C_12
REMARK    8  A    between atoms: C_11  and  C_13
REMARK    9  A    between atoms: C_18  and  C_19
REMARK   10  A    between atoms: C_22  and  O_23
REMARK   11  A    between atoms: O_23  and  C_24
REMARK                            x       y       z     vdW  Elec       q    Type
REMARK                         _______ _______ _______ _____ _____    ______ ____
ROOT
ATOM      1  N   UNL     1       3.684   6.045  17.683  0.00  0.00    +0.000 N 
ATOM      2  C   UNL     1       2.531   6.462  18.351  0.00  0.00    +0.000 A 
ATOM      3  N   UNL     1       1.893   5.390  18.807  0.00  0.00    +0.000 NA
ATOM      4  C   UNL     1       2.582   4.280  18.373  0.00  0.00    +0.000 A 
ATOM      5  C   UNL     1       2.296   2.912  18.573  0.00  0.00    +0.000 A 
ATOM      6  C   UNL     1       1.125   2.414  19.369  0.00  0.00    +0.000 C 
ATOM      7  C   UNL     1       3.163   1.971  17.986  0.00  0.00    +0.000 A 
ATOM      8  C   UNL     1       4.276   2.368  17.246  0.00  0.00    +0.000 A 
ATOM      9  C   UNL     1       4.585   3.719  17.062  0.00  0.00    +0.000 A 
ATOM     10  C   UNL     1       3.707   4.658  17.645  0.00  0.00    +0.000 A 
ENDROOT
BRANCH   2  11
ATOM     11  C   UNL     1       2.067   7.855  18.610  0.00  0.00    +0.000 A 
ATOM     12  C   UNL     1       2.078   8.874  17.651  0.00  0.00    +0.000 A 
ATOM     13  C   UNL     1       1.749  10.196  17.946  0.00  0.00    +0.000 A 
ATOM     14  C   UNL     1       1.290  10.548  19.208  0.00  0.00    +0.000 A 
ATOM     15  C   UNL     1       1.188   9.536  20.173  0.00  0.00    +0.000 A 
ATOM     16  C   UNL     1       1.584   8.215  19.879  0.00  0.00    +0.000 A 
BRANCH  14  17
ATOM     17  C   UNL     1       0.871  11.986  19.432  0.00  0.00    +0.000 C 
ATOM     18  C   UNL     1       2.015  12.937  19.092  0.00  0.00    +0.000 C 
ATOM     19  C   UNL     1      -0.420  12.346  18.703  0.00  0.00    +0.000 C 
ENDBRANCH  14  17
ENDBRANCH   2  11
BRANCH   9  20
ATOM     20  O   UNL     1       5.669   4.179  16.374  0.00  0.00    +0.000 OA
ATOM     21  C   UNL     1       5.868   3.738  15.040  0.00  0.00    +0.000 C 
ENDBRANCH   9  20
BRANCH   1  22
ATOM     22  C   UNL     1       4.693   6.887  17.078  0.00  0.00    +0.000 C 
BRANCH  22  23
ATOM     23  C   UNL     1       6.028   6.903  17.818  0.00  0.00    +0.000 C 
BRANCH  23  25
ATOM     24  C   UNL     1       7.891   8.353  17.689  0.00  0.00    +0.000 C 
ATOM     25  O   UNL     1       6.997   7.523  16.963  0.00  0.00    +0.000 OA
ENDBRANCH  23  25
ENDBRANCH  22  23
ENDBRANCH   1  22
TORSDOF 6
ENDMDL
MODEL 9
REMARK VINA RESULT:      -6.6      2.048      7.149
REMARK  Name = 
REMARK  11 active torsions:
REMARK  status: ('A' for Active; 'I' for Inactive)
REMARK    1  A    between atoms: C_1  and  O_2
REMARK    2  A    between atoms: O_2  and  C_3
REMARK    3  A    between atoms: C_3  and  C_4
REMARK    4  A    between atoms: C_4  and  N_5
REMARK    5  A    between atoms: C_6  and  C_7
REMARK    6  A    between atoms: C_10  and  C_11
REMARK    7  A    between atoms: C_11  and  C_12
REMARK    8  A    between atoms: C_11  and  C_13
REMARK    9  A    between atoms: C_18  and  C_19
REMARK   10  A    between atoms: C_22  and  O_23
REMARK   11  A    between atoms: O_23  and  C_24
REMARK                            x       y       z     vdW  Elec       q    Type
REMARK                         _______ _______ _______ _____ _____    ______ ____
ROOT
ATOM      1  N   UNL     1       3.976   4.592  18.596  0.00  0.00    +0.000 N 
ATOM      2  C   UNL     1       4.266   5.428  17.516  0.00  0.00    +0.000 A 
ATOM      3  N   UNL     1       3.655   6.592  17.704  0.00  0.00    +0.000 NA
ATOM      4  C   UNL     1       2.908   6.489  18.856  0.00  0.00    +0.000 A 
ATOM      5  C   UNL     1       2.064   7.441  19.467  0.00  0.00    +0.000 A 
ATOM      6  C   UNL     1       1.851   8.828  18.933  0.00  0.00    +0.000 C 
ATOM      7  C   UNL     1       1.389   7.058  20.641  0.00  0.00    +0.000 A 
ATOM      8  C   UNL     1       1.553   5.790  21.196  0.00  0.00    +0.000 A 
ATOM      9  C   UNL     1       2.406   4.846  20.615  0.00  0.00    +0.000 A 
ATOM     10  C   UNL     1       3.074   5.233  19.433  0.00  0.00    +0.000 A 
ENDROOT
BRANCH   2  11
ATOM     11  C   UNL     1       5.159   5.157  16.353  0.00  0.00    +0.000 A 
ATOM     12  C   UNL     1       6.467   5.641  16.242  0.00  0.00    +0.000 A 
ATOM     13  C   UNL     1       7.242   5.472  15.096  0.00  0.00    +0.000 A 
ATOM     14  C   UNL     1       6.776   4.716  14.029  0.00  0.00    +0.000 A 
ATOM     15  C   UNL     1       5.500   4.147  14.138  0.00  0.00    +0.000 A 
ATOM     16  C   UNL     1       4.701   4.377  15.278  0.00  0.00    +0.000 A 
BRANCH  14  17
ATOM     17  C   UNL     1       7.707   4.506  12.853  0.00  0.00    +0.000 C 
ATOM     18  C   UNL     1       7.008   3.712  11.752  0.00  0.00    +0.000 C 
ATOM     19  C   UNL     1       8.312   5.808  12.336  0.00  0.00    +0.000 C 
ENDBRANCH  14  17
ENDBRANCH   2  11
BRANCH   9  20
ATOM     20  O   UNL     1       2.635   3.598  21.117  0.00  0.00    +0.000 OA
ATOM     21  C   UNL     1       1.573   2.917  21.765  0.00  0.00    +0.000 C 
ENDBRANCH   9  20
BRANCH   1  22
ATOM     22  C   UNL     1       4.478   3.253  18.822  0.00  0.00    +0.000 C 
BRANCH  22  23
ATOM     23  C   UNL     1       3.605   2.146  18.239  0.00  0.00    +0.000 C 
BRANCH  23  25
ATOM     24  C   UNL     1       1.243   2.233  18.319  0.00  0.00    +0.000 C 
ATOM     25  O   UNL     1       2.418   2.753  17.714  0.00  0.00    +0.000 OA
ENDBRANCH  23  25
ENDBRANCH  22  23
ENDBRANCH   1  22
TORSDOF 6
ENDMDL
