MODEL 1
REMARK VINA RESULT:      -7.1      0.000      0.000
REMARK  Name = 
REMARK  8 active torsions:
REMARK  status: ('A' for Active; 'I' for Inactive)
REMARK    1  A    between atoms: C_1  and  C_2
REMARK    2  A    between atoms: C_2  and  C_3
REMARK    3  A    between atoms: C_2  and  O_4
REMARK    4  A    between atoms: O_4  and  C_5
REMARK    5  A    between atoms: C_8  and  C_10
REMARK    6  A    between atoms: C_10  and  O_11
REMARK    7  A    between atoms: O_11  and  C_12
REMARK    8  A    between atoms: C_21  and  O_22
REMARK                            x       y       z     vdW  Elec       q    Type
REMARK                         _______ _______ _______ _____ _____    ______ ____
ROOT
ATOM      1  C   UNL     1       3.605   4.306  19.637  0.00  0.00    +0.000 C 
ATOM      2  C   UNL     1       5.119   4.565  19.611  0.00  0.00    +0.000 C 
ATOM      3  N   UNL     1       5.339   5.382  18.426  0.00  0.00    +0.000 N 
ATOM      4  C   UNL     1       6.582   5.458  17.828  0.00  0.00    +0.000 C 
ATOM      5  O   UNL     1       7.559   4.862  18.285  0.00  0.00    +0.000 OA
ATOM      6  C   UNL     1       4.081   5.903  17.902  0.00  0.00    +0.000 C 
ATOM      7  C   UNL     1       3.054   5.594  18.996  0.00  0.00    +0.000 C 
ENDROOT
BRANCH   7   8
ATOM      8  O   UNL     1       3.006   6.659  19.952  0.00  0.00    +0.000 OA
ATOM      9  H   UNL     1       2.124   6.656  20.369  0.00  0.00    +0.000 HD
ENDBRANCH   7   8
BRANCH   1  10
ATOM     10  O   UNL     1       3.205   3.184  18.834  0.00  0.00    +0.000 OA
BRANCH  10  12
ATOM     11  C   UNL     1       2.062   2.540  20.920  0.00  0.00    +0.000 C 
ATOM     12  C   UNL     1       2.253   2.292  19.426  0.00  0.00    +0.000 C 
ATOM     13  C   UNL     1       0.930   2.485  18.690  0.00  0.00    +0.000 C 
ENDBRANCH  10  12
ENDBRANCH   1  10
BRANCH   4  14
ATOM     14  C   UNL     1       6.702   6.326  16.581  0.00  0.00    +0.000 C 
BRANCH  14  15
ATOM     15  O   UNL     1       7.529   5.635  15.654  0.00  0.00    +0.000 OA
BRANCH  15  16
ATOM     16  C   UNL     1       6.916   4.877  14.694  0.00  0.00    +0.000 A 
ATOM     17  C   UNL     1       5.779   4.093  14.912  0.00  0.00    +0.000 A 
ATOM     18  C   UNL     1       5.193   3.388  13.854  0.00  0.00    +0.000 A 
ATOM     19  C   UNL     1       5.748   3.453  12.579  0.00  0.00    +0.000 A 
ATOM     20 CL   UNL     1       5.009   2.595  11.286  0.00  0.00    +0.000 Cl
ATOM     21  C   UNL     1       6.892   4.209  12.347  0.00  0.00    +0.000 A 
ATOM     22  C   UNL     1       7.471   4.919  13.403  0.00  0.00    +0.000 A 
ATOM     23 CL   UNL     1       8.888   5.853  13.062  0.00  0.00    +0.000 Cl
ENDBRANCH  15  16
ENDBRANCH  14  15
ENDBRANCH   4  14
TORSDOF 6
ENDMDL
MODEL 2
REMARK VINA RESULT:      -6.8      2.681      4.777
REMARK  Name = 
REMARK  8 active torsions:
REMARK  status: ('A' for Active; 'I' for Inactive)
REMARK    1  A    between atoms: C_1  and  C_2
REMARK    2  A    between atoms: C_2  and  C_3
REMARK    3  A    between atoms: C_2  and  O_4
REMARK    4  A    between atoms: O_4  and  C_5
REMARK    5  A    between atoms: C_8  and  C_10
REMARK    6  A    between atoms: C_10  and  O_11
REMARK    7  A    between atoms: O_11  and  C_12
REMARK    8  A    between atoms: C_21  and  O_22
REMARK                            x       y       z     vdW  Elec       q    Type
REMARK                         _______ _______ _______ _____ _____    ______ ____
ROOT
ATOM      1  C   UNL     1       1.385   4.697  20.972  0.00  0.00    +0.000 C 
ATOM      2  C   UNL     1       1.143   4.157  19.554  0.00  0.00    +0.000 C 
ATOM      3  N   UNL     1       2.361   3.435  19.215  0.00  0.00    +0.000 N 
ATOM      4  C   UNL     1       2.703   3.183  17.901  0.00  0.00    +0.000 C 
ATOM      5  O   UNL     1       1.983   3.535  16.964  0.00  0.00    +0.000 OA
ATOM      6  C   UNL     1       3.192   3.218  20.395  0.00  0.00    +0.000 C 
ATOM      7  C   UNL     1       2.294   3.607  21.572  0.00  0.00    +0.000 C 
ENDROOT
BRANCH   7   8
ATOM      8  O   UNL     1       1.523   2.481  22.006  0.00  0.00    +0.000 OA
ATOM      9  H   UNL     1       1.871   1.684  21.564  0.00  0.00    +0.000 HD
ENDBRANCH   7   8
BRANCH   1  10
ATOM     10  O   UNL     1       2.089   5.948  20.994  0.00  0.00    +0.000 OA
BRANCH  10  12
ATOM     11  C   UNL     1       1.157   8.217  21.225  0.00  0.00    +0.000 C 
ATOM     12  C   UNL     1       1.461   7.037  20.306  0.00  0.00    +0.000 C 
ATOM     13  C   UNL     1       2.404   7.472  19.188  0.00  0.00    +0.000 C 
ENDBRANCH  10  12
ENDBRANCH   1  10
BRANCH   4  14
ATOM     14  C   UNL     1       4.009   2.437  17.653  0.00  0.00    +0.000 C 
BRANCH  14  15
ATOM     15  O   UNL     1       4.764   3.191  16.714  0.00  0.00    +0.000 OA
BRANCH  15  16
ATOM     16  C   UNL     1       5.542   4.211  17.193  0.00  0.00    +0.000 A 
ATOM     17  C   UNL     1       5.820   4.424  18.547  0.00  0.00    +0.000 A 
ATOM     18  C   UNL     1       6.667   5.467  18.938  0.00  0.00    +0.000 A 
ATOM     19  C   UNL     1       7.228   6.308  17.981  0.00  0.00    +0.000 A 
ATOM     20 CL   UNL     1       8.279   7.576  18.475  0.00  0.00    +0.000 Cl
ATOM     21  C   UNL     1       6.945   6.126  16.631  0.00  0.00    +0.000 A 
ATOM     22  C   UNL     1       6.105   5.079  16.242  0.00  0.00    +0.000 A 
ATOM     23 CL   UNL     1       5.791   4.887  14.551  0.00  0.00    +0.000 Cl
ENDBRANCH  15  16
ENDBRANCH  14  15
ENDBRANCH   4  14
TORSDOF 6
ENDMDL
MODEL 3
REMARK VINA RESULT:      -6.7      1.353      1.929
REMARK  Name = 
REMARK  8 active torsions:
REMARK  status: ('A' for Active; 'I' for Inactive)
REMARK    1  A    between atoms: C_1  and  C_2
REMARK    2  A    between atoms: C_2  and  C_3
REMARK    3  A    between atoms: C_2  and  O_4
REMARK    4  A    between atoms: O_4  and  C_5
REMARK    5  A    between atoms: C_8  and  C_10
REMARK    6  A    between atoms: C_10  and  O_11
REMARK    7  A    between atoms: O_11  and  C_12
REMARK    8  A    between atoms: C_21  and  O_22
REMARK                            x       y       z     vdW  Elec       q    Type
REMARK                         _______ _______ _______ _____ _____    ______ ____
ROOT
ATOM      1  C   UNL     1       2.757   4.678  18.729  0.00  0.00    +0.000 C 
ATOM      2  C   UNL     1       3.456   5.817  17.971  0.00  0.00    +0.000 C 
ATOM      3  N   UNL     1       4.718   5.248  17.521  0.00  0.00    +0.000 N 
ATOM      4  C   UNL     1       5.791   6.054  17.192  0.00  0.00    +0.000 C 
ATOM      5  O   UNL     1       5.717   7.283  17.240  0.00  0.00    +0.000 OA
ATOM      6  C   UNL     1       4.722   3.796  17.660  0.00  0.00    +0.000 C 
ATOM      7  C   UNL     1       3.267   3.437  17.972  0.00  0.00    +0.000 C 
ENDROOT
BRANCH   7   8
ATOM      8  O   UNL     1       2.529   3.241  16.759  0.00  0.00    +0.000 OA
ATOM      9  H   UNL     1       3.054   3.603  16.021  0.00  0.00    +0.000 HD
ENDBRANCH   7   8
BRANCH   1  10
ATOM     10  O   UNL     1       3.159   4.576  20.104  0.00  0.00    +0.000 OA
BRANCH  10  12
ATOM     11  C   UNL     1       0.757   4.109  20.393  0.00  0.00    +0.000 C 
ATOM     12  C   UNL     1       2.141   4.182  21.032  0.00  0.00    +0.000 C 
ATOM     13  C   UNL     1       2.536   2.816  21.586  0.00  0.00    +0.000 C 
ENDBRANCH  10  12
ENDBRANCH   1  10
BRANCH   4  14
ATOM     14  C   UNL     1       7.073   5.359  16.750  0.00  0.00    +0.000 C 
BRANCH  14  15
ATOM     15  O   UNL     1       7.316   5.723  15.398  0.00  0.00    +0.000 OA
BRANCH  15  16
ATOM     16  C   UNL     1       6.835   4.896  14.418  0.00  0.00    +0.000 A 
ATOM     17  C   UNL     1       5.713   4.073  14.559  0.00  0.00    +0.000 A 
ATOM     18  C   UNL     1       5.267   3.297  13.484  0.00  0.00    +0.000 A 
ATOM     19  C   UNL     1       5.946   3.330  12.269  0.00  0.00    +0.000 A 
ATOM     20 CL   UNL     1       5.378   2.383  10.951  0.00  0.00    +0.000 Cl
ATOM     21  C   UNL     1       7.077   4.125  12.116  0.00  0.00    +0.000 A 
ATOM     22  C   UNL     1       7.517   4.906  13.190  0.00  0.00    +0.000 A 
ATOM     23 CL   UNL     1       8.923   5.886  12.948  0.00  0.00    +0.000 Cl
ENDBRANCH  15  16
ENDBRANCH  14  15
ENDBRANCH   4  14
TORSDOF 6
ENDMDL
MODEL 4
REMARK VINA RESULT:      -6.5      3.817      7.087
REMARK  Name = 
REMARK  8 active torsions:
REMARK  status: ('A' for Active; 'I' for Inactive)
REMARK    1  A    between atoms: C_1  and  C_2
REMARK    2  A    between atoms: C_2  and  C_3
REMARK    3  A    between atoms: C_2  and  O_4
REMARK    4  A    between atoms: O_4  and  C_5
REMARK    5  A    between atoms: C_8  and  C_10
REMARK    6  A    between atoms: C_10  and  O_11
REMARK    7  A    between atoms: O_11  and  C_12
REMARK    8  A    between atoms: C_21  and  O_22
REMARK                            x       y       z     vdW  Elec       q    Type
REMARK                         _______ _______ _______ _____ _____    ______ ____
ROOT
ATOM      1  C   UNL     1       7.298   4.868  15.570  0.00  0.00    +0.000 C 
ATOM      2  C   UNL     1       6.743   3.947  16.667  0.00  0.00    +0.000 C 
ATOM      3  N   UNL     1       5.304   3.928  16.449  0.00  0.00    +0.000 N 
ATOM      4  C   UNL     1       4.429   3.577  17.459  0.00  0.00    +0.000 C 
ATOM      5  O   UNL     1       4.830   3.241  18.575  0.00  0.00    +0.000 OA
ATOM      6  C   UNL     1       4.960   4.492  15.148  0.00  0.00    +0.000 C 
ATOM      7  C   UNL     1       6.301   4.623  14.421  0.00  0.00    +0.000 C 
ENDROOT
BRANCH   7   8
ATOM      8  O   UNL     1       6.613   3.410  13.725  0.00  0.00    +0.000 OA
ATOM      9  H   UNL     1       6.315   3.504  12.800  0.00  0.00    +0.000 HD
ENDBRANCH   7   8
BRANCH   1  10
ATOM     10  O   UNL     1       7.263   6.260  15.921  0.00  0.00    +0.000 OA
BRANCH  10  12
ATOM     11  C   UNL     1       7.958   7.362  18.013  0.00  0.00    +0.000 C 
ATOM     12  C   UNL     1       6.892   6.560  17.273  0.00  0.00    +0.000 C 
ATOM     13  C   UNL     1       5.586   7.347  17.220  0.00  0.00    +0.000 C 
ENDBRANCH  10  12
ENDBRANCH   1  10
BRANCH   4  14
ATOM     14  C   UNL     1       2.941   3.608  17.132  0.00  0.00    +0.000 C 
BRANCH  14  15
ATOM     15  O   UNL     1       2.232   3.663  18.363  0.00  0.00    +0.000 OA
BRANCH  15  16
ATOM     16  C   UNL     1       2.115   4.881  18.978  0.00  0.00    +0.000 A 
ATOM     17  C   UNL     1       2.429   6.103  18.376  0.00  0.00    +0.000 A 
ATOM     18  C   UNL     1       2.231   7.303  19.069  0.00  0.00    +0.000 A 
ATOM     19  C   UNL     1       1.731   7.285  20.368  0.00  0.00    +0.000 A 
ATOM     20 CL   UNL     1       1.477   8.768  21.202  0.00  0.00    +0.000 Cl
ATOM     21  C   UNL     1       1.434   6.078  20.992  0.00  0.00    +0.000 A 
ATOM     22  C   UNL     1       1.625   4.881  20.295  0.00  0.00    +0.000 A 
ATOM     23 CL   UNL     1       1.232   3.405  21.110  0.00  0.00    +0.000 Cl
ENDBRANCH  15  16
ENDBRANCH  14  15
ENDBRANCH   4  14
TORSDOF 6
ENDMDL
MODEL 5
REMARK VINA RESULT:      -6.4      2.383      3.993
REMARK  Name = 
REMARK  8 active torsions:
REMARK  status: ('A' for Active; 'I' for Inactive)
REMARK    1  A    between atoms: C_1  and  C_2
REMARK    2  A    between atoms: C_2  and  C_3
REMARK    3  A    between atoms: C_2  and  O_4
REMARK    4  A    between atoms: O_4  and  C_5
REMARK    5  A    between atoms: C_8  and  C_10
REMARK    6  A    between atoms: C_10  and  O_11
REMARK    7  A    between atoms: O_11  and  C_12
REMARK    8  A    between atoms: C_21  and  O_22
REMARK                            x       y       z     vdW  Elec       q    Type
REMARK                         _______ _______ _______ _____ _____    ______ ____
ROOT
ATOM      1  C   UNL     1       1.425   4.716  21.013  0.00  0.00    +0.000 C 
ATOM      2  C   UNL     1       1.136   4.224  19.587  0.00  0.00    +0.000 C 
ATOM      3  N   UNL     1       2.357   3.550  19.168  0.00  0.00    +0.000 N 
ATOM      4  C   UNL     1       2.648   3.357  17.831  0.00  0.00    +0.000 C 
ATOM      5  O   UNL     1       1.878   3.723  16.941  0.00  0.00    +0.000 OA
ATOM      6  C   UNL     1       3.244   3.312  20.301  0.00  0.00    +0.000 C 
ATOM      7  C   UNL     1       2.388   3.631  21.531  0.00  0.00    +0.000 C 
ENDROOT
BRANCH   7   8
ATOM      8  O   UNL     1       1.666   2.467  21.952  0.00  0.00    +0.000 OA
ATOM      9  H   UNL     1       1.139   2.703  22.739  0.00  0.00    +0.000 HD
ENDBRANCH   7   8
BRANCH   1  10
ATOM     10  O   UNL     1       2.097   5.985  21.053  0.00  0.00    +0.000 OA
BRANCH  10  12
ATOM     11  C   UNL     1       1.177   8.253  21.333  0.00  0.00    +0.000 C 
ATOM     12  C   UNL     1       1.429   7.073  20.401  0.00  0.00    +0.000 C 
ATOM     13  C   UNL     1       2.307   7.507  19.230  0.00  0.00    +0.000 C 
ENDBRANCH  10  12
ENDBRANCH   1  10
BRANCH   4  14
ATOM     14  C   UNL     1       3.960   2.658  17.499  0.00  0.00    +0.000 C 
BRANCH  14  15
ATOM     15  O   UNL     1       4.993   3.633  17.553  0.00  0.00    +0.000 OA
BRANCH  15  16
ATOM     16  C   UNL     1       5.619   3.966  16.382  0.00  0.00    +0.000 A 
ATOM     17  C   UNL     1       5.088   3.733  15.109  0.00  0.00    +0.000 A 
ATOM     18  C   UNL     1       5.781   4.153  13.968  0.00  0.00    +0.000 A 
ATOM     19  C   UNL     1       7.010   4.794  14.093  0.00  0.00    +0.000 A 
ATOM     20 CL   UNL     1       7.844   5.318  12.683  0.00  0.00    +0.000 Cl
ATOM     21  C   UNL     1       7.565   5.014  15.349  0.00  0.00    +0.000 A 
ATOM     22  C   UNL     1       6.868   4.600  16.488  0.00  0.00    +0.000 A 
ATOM     23 CL   UNL     1       7.594   4.905  18.030  0.00  0.00    +0.000 Cl
ENDBRANCH  15  16
ENDBRANCH  14  15
ENDBRANCH   4  14
TORSDOF 6
ENDMDL
MODEL 6
REMARK VINA RESULT:      -6.4      1.682      2.137
REMARK  Name = 
REMARK  8 active torsions:
REMARK  status: ('A' for Active; 'I' for Inactive)
REMARK    1  A    between atoms: C_1  and  C_2
REMARK    2  A    between atoms: C_2  and  C_3
REMARK    3  A    between atoms: C_2  and  O_4
REMARK    4  A    between atoms: O_4  and  C_5
REMARK    5  A    between atoms: C_8  and  C_10
REMARK    6  A    between atoms: C_10  and  O_11
REMARK    7  A    between atoms: O_11  and  C_12
REMARK    8  A    between atoms: C_21  and  O_22
REMARK                            x       y       z     vdW  Elec       q    Type
REMARK                         _______ _______ _______ _____ _____    ______ ____
ROOT
ATOM      1  C   UNL     1       2.454   5.586  19.044  0.00  0.00    +0.000 C 
ATOM      2  C   UNL     1       3.827   5.535  19.730  0.00  0.00    +0.000 C 
ATOM      3  N   UNL     1       4.775   5.948  18.705  0.00  0.00    +0.000 N 
ATOM      4  C   UNL     1       6.114   5.622  18.792  0.00  0.00    +0.000 C 
ATOM      5  O   UNL     1       6.567   4.993  19.751  0.00  0.00    +0.000 OA
ATOM      6  C   UNL     1       4.090   6.541  17.561  0.00  0.00    +0.000 C 
ATOM      7  C   UNL     1       2.648   6.738  18.039  0.00  0.00    +0.000 C 
ENDROOT
BRANCH   7   8
ATOM      8  O   UNL     1       2.504   8.008  18.685  0.00  0.00    +0.000 OA
ATOM      9  H   UNL     1       2.825   8.699  18.075  0.00  0.00    +0.000 HD
ENDBRANCH   7   8
BRANCH   1  10
ATOM     10  O   UNL     1       2.134   4.390  18.317  0.00  0.00    +0.000 OA
BRANCH  10  12
ATOM     11  C   UNL     1       2.322   2.161  19.352  0.00  0.00    +0.000 C 
ATOM     12  C   UNL     1       1.443   3.372  19.052  0.00  0.00    +0.000 C 
ATOM     13  C   UNL     1       0.957   4.002  20.353  0.00  0.00    +0.000 C 
ENDBRANCH  10  12
ENDBRANCH   1  10
BRANCH   4  14
ATOM     14  C   UNL     1       7.019   6.086  17.657  0.00  0.00    +0.000 C 
BRANCH  14  15
ATOM     15  O   UNL     1       7.509   4.927  16.997  0.00  0.00    +0.000 OA
BRANCH  15  16
ATOM     16  C   UNL     1       7.019   4.647  15.750  0.00  0.00    +0.000 A 
ATOM     17  C   UNL     1       7.567   5.130  14.558  0.00  0.00    +0.000 A 
ATOM     18  C   UNL     1       7.024   4.750  13.326  0.00  0.00    +0.000 A 
ATOM     19  C   UNL     1       5.926   3.897  13.280  0.00  0.00    +0.000 A 
ATOM     20 CL   UNL     1       5.278   3.425  11.758  0.00  0.00    +0.000 Cl
ATOM     21  C   UNL     1       5.352   3.424  14.455  0.00  0.00    +0.000 A 
ATOM     22  C   UNL     1       5.900   3.799  15.685  0.00  0.00    +0.000 A 
ATOM     23 CL   UNL     1       5.157   3.177  17.119  0.00  0.00    +0.000 Cl
ENDBRANCH  15  16
ENDBRANCH  14  15
ENDBRANCH   4  14
TORSDOF 6
ENDMDL
MODEL 7
REMARK VINA RESULT:      -6.2      4.900      7.828
REMARK  Name = 
REMARK  8 active torsions:
REMARK  status: ('A' for Active; 'I' for Inactive)
REMARK    1  A    between atoms: C_1  and  C_2
REMARK    2  A    between atoms: C_2  and  C_3
REMARK    3  A    between atoms: C_2  and  O_4
REMARK    4  A    between atoms: O_4  and  C_5
REMARK    5  A    between atoms: C_8  and  C_10
REMARK    6  A    between atoms: C_10  and  O_11
REMARK    7  A    between atoms: O_11  and  C_12
REMARK    8  A    between atoms: C_21  and  O_22
REMARK                            x       y       z     vdW  Elec       q    Type
REMARK                         _______ _______ _______ _____ _____    ______ ____
ROOT
ATOM      1  C   UNL     1       5.382   4.427  18.618  0.00  0.00    +0.000 C 
ATOM      2  C   UNL     1       4.342   3.937  19.637  0.00  0.00    +0.000 C 
ATOM      3  N   UNL     1       3.245   4.889  19.540  0.00  0.00    +0.000 N 
ATOM      4  C   UNL     1       2.337   5.044  20.569  0.00  0.00    +0.000 C 
ATOM      5  O   UNL     1       2.402   4.368  21.598  0.00  0.00    +0.000 OA
ATOM      6  C   UNL     1       3.375   5.725  18.352  0.00  0.00    +0.000 C 
ATOM      7  C   UNL     1       4.488   5.061  17.536  0.00  0.00    +0.000 C 
ENDROOT
BRANCH   7   8
ATOM      8  O   UNL     1       3.942   4.056  16.672  0.00  0.00    +0.000 OA
ATOM      9  H   UNL     1       4.102   4.328  15.749  0.00  0.00    +0.000 HD
ENDBRANCH   7   8
BRANCH   1  10
ATOM     10  O   UNL     1       6.260   5.437  19.140  0.00  0.00    +0.000 OA
BRANCH  10  12
ATOM     11  C   UNL     1       7.743   4.515  17.402  0.00  0.00    +0.000 C 
ATOM     12  C   UNL     1       7.551   5.530  18.525  0.00  0.00    +0.000 C 
ATOM     13  C   UNL     1       7.693   6.948  17.980  0.00  0.00    +0.000 C 
ENDBRANCH  10  12
ENDBRANCH   1  10
BRANCH   4  14
ATOM     14  C   UNL     1       1.236   6.080  20.375  0.00  0.00    +0.000 C 
BRANCH  14  15
ATOM     15  O   UNL     1       1.744   7.333  20.814  0.00  0.00    +0.000 OA
BRANCH  15  16
ATOM     16  C   UNL     1       1.265   8.463  20.208  0.00  0.00    +0.000 A 
ATOM     17  C   UNL     1       1.646   8.899  18.935  0.00  0.00    +0.000 A 
ATOM     18  C   UNL     1       1.064  10.043  18.377  0.00  0.00    +0.000 A 
ATOM     19  C   UNL     1       0.112  10.763  19.092  0.00  0.00    +0.000 A 
ATOM     20 CL   UNL     1      -0.606  12.158  18.389  0.00  0.00    +0.000 Cl
ATOM     21  C   UNL     1      -0.264  10.358  20.369  0.00  0.00    +0.000 A 
ATOM     22  C   UNL     1       0.312   9.210  20.922  0.00  0.00    +0.000 A 
ATOM     23 CL   UNL     1      -0.194   8.742  22.509  0.00  0.00    +0.000 Cl
ENDBRANCH  15  16
ENDBRANCH  14  15
ENDBRANCH   4  14
TORSDOF 6
ENDMDL
MODEL 8
REMARK VINA RESULT:      -6.2      4.883      8.059
REMARK  Name = 
REMARK  8 active torsions:
REMARK  status: ('A' for Active; 'I' for Inactive)
REMARK    1  A    between atoms: C_1  and  C_2
REMARK    2  A    between atoms: C_2  and  C_3
REMARK    3  A    between atoms: C_2  and  O_4
REMARK    4  A    between atoms: O_4  and  C_5
REMARK    5  A    between atoms: C_8  and  C_10
REMARK    6  A    between atoms: C_10  and  O_11
REMARK    7  A    between atoms: O_11  and  C_12
REMARK    8  A    between atoms: C_21  and  O_22
REMARK                            x       y       z     vdW  Elec       q    Type
REMARK                         _______ _______ _______ _____ _____    ______ ____
ROOT
ATOM      1  C   UNL     1       5.149   3.971  18.655  0.00  0.00    +0.000 C 
ATOM      2  C   UNL     1       4.092   3.604  19.707  0.00  0.00    +0.000 C 
ATOM      3  N   UNL     1       3.089   4.655  19.615  0.00  0.00    +0.000 N 
ATOM      4  C   UNL     1       2.226   4.918  20.660  0.00  0.00    +0.000 C 
ATOM      5  O   UNL     1       2.251   4.260  21.702  0.00  0.00    +0.000 OA
ATOM      6  C   UNL     1       3.270   5.452  18.406  0.00  0.00    +0.000 C 
ATOM      7  C   UNL     1       4.293   4.667  17.580  0.00  0.00    +0.000 C 
ENDROOT
BRANCH   7   8
ATOM      8  O   UNL     1       3.632   3.703  16.751  0.00  0.00    +0.000 OA
ATOM      9  H   UNL     1       4.202   2.913  16.687  0.00  0.00    +0.000 HD
ENDBRANCH   7   8
BRANCH   1  10
ATOM     10  O   UNL     1       6.133   4.901  19.134  0.00  0.00    +0.000 OA
BRANCH  10  12
ATOM     11  C   UNL     1       7.916   6.551  18.724  0.00  0.00    +0.000 C 
ATOM     12  C   UNL     1       6.922   5.555  18.133  0.00  0.00    +0.000 C 
ATOM     13  C   UNL     1       7.664   4.470  17.359  0.00  0.00    +0.000 C 
ENDBRANCH  10  12
ENDBRANCH   1  10
BRANCH   4  14
ATOM     14  C   UNL     1       1.226   6.052  20.469  0.00  0.00    +0.000 C 
BRANCH  14  15
ATOM     15  O   UNL     1       1.870   7.261  20.847  0.00  0.00    +0.000 OA
BRANCH  15  16
ATOM     16  C   UNL     1       1.090   8.373  21.017  0.00  0.00    +0.000 A 
ATOM     17  C   UNL     1       0.439   8.708  22.208  0.00  0.00    +0.000 A 
ATOM     18  C   UNL     1      -0.300   9.893  22.300  0.00  0.00    +0.000 A 
ATOM     19  C   UNL     1      -0.400  10.741  21.202  0.00  0.00    +0.000 A 
ATOM     20 CL   UNL     1      -1.298  12.202  21.334  0.00  0.00    +0.000 Cl
ATOM     21  C   UNL     1       0.221  10.415  20.001  0.00  0.00    +0.000 A 
ATOM     22  C   UNL     1       0.965   9.234  19.913  0.00  0.00    +0.000 A 
ATOM     23 CL   UNL     1       1.728   8.876  18.401  0.00  0.00    +0.000 Cl
ENDBRANCH  15  16
ENDBRANCH  14  15
ENDBRANCH   4  14
TORSDOF 6
ENDMDL
MODEL 9
REMARK VINA RESULT:      -6.2      5.598      7.818
REMARK  Name = 
REMARK  8 active torsions:
REMARK  status: ('A' for Active; 'I' for Inactive)
REMARK    1  A    between atoms: C_1  and  C_2
REMARK    2  A    between atoms: C_2  and  C_3
REMARK    3  A    between atoms: C_2  and  O_4
REMARK    4  A    between atoms: O_4  and  C_5
REMARK    5  A    between atoms: C_8  and  C_10
REMARK    6  A    between atoms: C_10  and  O_11
REMARK    7  A    between atoms: O_11  and  C_12
REMARK    8  A    between atoms: C_21  and  O_22
REMARK                            x       y       z     vdW  Elec       q    Type
REMARK                         _______ _______ _______ _____ _____    ______ ____
ROOT
ATOM      1  C   UNL     1       6.028   5.348  17.523  0.00  0.00    +0.000 C 
ATOM      2  C   UNL     1       6.540   6.660  16.911  0.00  0.00    +0.000 C 
ATOM      3  N   UNL     1       7.514   7.166  17.867  0.00  0.00    +0.000 N 
ATOM      4  C   UNL     1       7.867   8.501  17.894  0.00  0.00    +0.000 C 
ATOM      5  O   UNL     1       7.394   9.313  17.096  0.00  0.00    +0.000 OA
ATOM      6  C   UNL     1       7.873   6.145  18.845  0.00  0.00    +0.000 C 
ATOM      7  C   UNL     1       7.270   4.852  18.287  0.00  0.00    +0.000 C 
ENDROOT
BRANCH   7   8
ATOM      8  O   UNL     1       8.195   4.214  17.398  0.00  0.00    +0.000 OA
ATOM      9  H   UNL     1       7.684   3.705  16.740  0.00  0.00    +0.000 HD
ENDBRANCH   7   8
BRANCH   1  10
ATOM     10  O   UNL     1       4.956   5.536  18.460  0.00  0.00    +0.000 OA
BRANCH  10  12
ATOM     11  C   UNL     1       3.874   3.839  17.038  0.00  0.00    +0.000 C 
ATOM     12  C   UNL     1       3.847   4.636  18.339  0.00  0.00    +0.000 C 
ATOM     13  C   UNL     1       3.897   3.690  19.535  0.00  0.00    +0.000 C 
ENDBRANCH  10  12
ENDBRANCH   1  10
BRANCH   4  14
ATOM     14  C   UNL     1       8.881   8.932  18.946  0.00  0.00    +0.000 C 
BRANCH  14  15
ATOM     15  O   UNL     1       9.487  10.135  18.493  0.00  0.00    +0.000 OA
BRANCH  15  16
ATOM     16  C   UNL     1       9.585  11.173  19.380  0.00  0.00    +0.000 A 
ATOM     17  C   UNL     1       9.260  11.086  20.738  0.00  0.00    +0.000 A 
ATOM     18  C   UNL     1       9.440  12.191  21.579  0.00  0.00    +0.000 A 
ATOM     19  C   UNL     1       9.931  13.387  21.066  0.00  0.00    +0.000 A 
ATOM     20 CL   UNL     1      10.161  14.731  22.114  0.00  0.00    +0.000 Cl
ATOM     21  C   UNL     1      10.238  13.500  19.714  0.00  0.00    +0.000 A 
ATOM     22  C   UNL     1      10.066  12.394  18.877  0.00  0.00    +0.000 A 
ATOM     23 CL   UNL     1      10.471  12.581  17.204  0.00  0.00    +0.000 Cl
ENDBRANCH  15  16
ENDBRANCH  14  15
ENDBRANCH   4  14
TORSDOF 6
ENDMDL
