MODEL 1
REMARK VINA RESULT:      -6.9      0.000      0.000
REMARK  Name = 
REMARK  9 active torsions:
REMARK  status: ('A' for Active; 'I' for Inactive)
REMARK    1  A    between atoms: C_1  and  O_2
REMARK    2  A    between atoms: O_2  and  C_3
REMARK    3  A    between atoms: C_3  and  C_5
REMARK    4  A    between atoms: C_5  and  C_6
REMARK    5  A    between atoms: C_5  and  N_16
REMARK    6  A    between atoms: C_6  and  C_7
REMARK    7  A    between atoms: C_7  and  C_9
REMARK    8  A    between atoms: C_18  and  C_19
REMARK    9  A    between atoms: C_21  and  C_22
REMARK                            x       y       z     vdW  Elec       q    Type
REMARK                         _______ _______ _______ _____ _____    ______ ____
ROOT
ATOM      1  C   UNL     1       3.975   3.779  19.181  0.00  0.00    +0.000 C 
ENDROOT
BRANCH   1   2
ATOM      2  N   UNL     1       5.190   4.387  18.629  0.00  0.00    +0.000 N 
ATOM      3  N   UNL     1       6.082   4.943  19.481  0.00  0.00    +0.000 NA
ATOM      4  C   UNL     1       7.014   5.487  18.698  0.00  0.00    +0.000 A 
ATOM      5  C   UNL     1       8.164   6.214  19.287  0.00  0.00    +0.000 C 
ATOM      6  C   UNL     1       6.726   5.277  17.337  0.00  0.00    +0.000 A 
ATOM      7  C   UNL     1       5.538   4.579  17.312  0.00  0.00    +0.000 A 
ATOM      8  C   UNL     1       4.753   4.100  16.148  0.00  0.00    +0.000 C 
ENDBRANCH   1   2
BRANCH   1   9
ATOM      9  C   UNL     1       4.237   2.321  19.491  0.00  0.00    +0.000 C 
ATOM     10  O   UNL     1       4.912   1.901  20.424  0.00  0.00    +0.000 OA
BRANCH   9  12
ATOM     11  C   UNL     1       2.380   2.057  18.077  0.00  0.00    +0.000 C 
ATOM     12  O   UNL     1       3.610   1.528  18.574  0.00  0.00    +0.000 OA
ENDBRANCH   9  12
ENDBRANCH   1   9
BRANCH   1  13
ATOM     13  C   UNL     1       3.510   4.548  20.424  0.00  0.00    +0.000 C 
BRANCH  13  14
ATOM     14  C   UNL     1       2.112   5.109  20.330  0.00  0.00    +0.000 C 
ATOM     15  O   UNL     1       1.115   4.415  20.507  0.00  0.00    +0.000 OA
BRANCH  14  16
ATOM     16  C   UNL     1       1.979   6.556  19.955  0.00  0.00    +0.000 A 
ATOM     17  C   UNL     1       2.372   7.027  18.693  0.00  0.00    +0.000 A 
ATOM     18  C   UNL     1       2.140   8.355  18.324  0.00  0.00    +0.000 A 
ATOM     19  C   UNL     1       1.526   9.224  19.222  0.00  0.00    +0.000 A 
ATOM     20 BR   UNL     1       1.154  10.999  18.693  0.00  0.00    +0.000 Br
ATOM     21  C   UNL     1       1.172   8.785  20.496  0.00  0.00    +0.000 A 
ATOM     22  C   UNL     1       1.399   7.452  20.864  0.00  0.00    +0.000 A 
ENDBRANCH  14  16
ENDBRANCH  13  14
ENDBRANCH   1  13
TORSDOF 6
ENDMDL
MODEL 2
REMARK VINA RESULT:      -6.8      2.858      3.899
REMARK  Name = 
REMARK  9 active torsions:
REMARK  status: ('A' for Active; 'I' for Inactive)
REMARK    1  A    between atoms: C_1  and  O_2
REMARK    2  A    between atoms: O_2  and  C_3
REMARK    3  A    between atoms: C_3  and  C_5
REMARK    4  A    between atoms: C_5  and  C_6
REMARK    5  A    between atoms: C_5  and  N_16
REMARK    6  A    between atoms: C_6  and  C_7
REMARK    7  A    between atoms: C_7  and  C_9
REMARK    8  A    between atoms: C_18  and  C_19
REMARK    9  A    between atoms: C_21  and  C_22
REMARK                            x       y       z     vdW  Elec       q    Type
REMARK                         _______ _______ _______ _____ _____    ______ ____
ROOT
ATOM      1  C   UNL     1       5.952   6.079  17.398  0.00  0.00    +0.000 C 
ENDROOT
BRANCH   1   2
ATOM      2  N   UNL     1       6.193   5.287  16.188  0.00  0.00    +0.000 N 
ATOM      3  N   UNL     1       7.070   5.755  15.270  0.00  0.00    +0.000 NA
ATOM      4  C   UNL     1       7.009   4.888  14.260  0.00  0.00    +0.000 A 
ATOM      5  C   UNL     1       7.832   5.087  13.043  0.00  0.00    +0.000 C 
ATOM      6  C   UNL     1       6.094   3.854  14.527  0.00  0.00    +0.000 A 
ATOM      7  C   UNL     1       5.566   4.136  15.770  0.00  0.00    +0.000 A 
ATOM      8  C   UNL     1       4.545   3.395  16.549  0.00  0.00    +0.000 C 
ENDBRANCH   1   2
BRANCH   1   9
ATOM      9  C   UNL     1       7.134   6.992  17.647  0.00  0.00    +0.000 C 
ATOM     10  O   UNL     1       7.324   8.075  17.106  0.00  0.00    +0.000 OA
BRANCH   9  12
ATOM     11  C   UNL     1       7.332   5.546  19.487  0.00  0.00    +0.000 C 
ATOM     12  O   UNL     1       7.972   6.431  18.568  0.00  0.00    +0.000 OA
ENDBRANCH   9  12
ENDBRANCH   1   9
BRANCH   1  13
ATOM     13  C   UNL     1       4.644   6.869  17.269  0.00  0.00    +0.000 C 
BRANCH  13  14
ATOM     14  C   UNL     1       3.626   6.580  18.345  0.00  0.00    +0.000 C 
ATOM     15  O   UNL     1       3.553   5.488  18.901  0.00  0.00    +0.000 OA
BRANCH  14  16
ATOM     16  C   UNL     1       2.655   7.674  18.680  0.00  0.00    +0.000 A 
ATOM     17  C   UNL     1       2.267   8.629  17.728  0.00  0.00    +0.000 A 
ATOM     18  C   UNL     1       1.280   9.573  18.026  0.00  0.00    +0.000 A 
ATOM     19  C   UNL     1       0.687   9.577  19.286  0.00  0.00    +0.000 A 
ATOM     20 BR   UNL     1      -0.693  10.812  19.661  0.00  0.00    +0.000 Br
ATOM     21  C   UNL     1       1.094   8.666  20.258  0.00  0.00    +0.000 A 
ATOM     22  C   UNL     1       2.078   7.715  19.958  0.00  0.00    +0.000 A 
ENDBRANCH  14  16
ENDBRANCH  13  14
ENDBRANCH   1  13
TORSDOF 6
ENDMDL
MODEL 3
REMARK VINA RESULT:      -6.8      3.522      4.793
REMARK  Name = 
REMARK  9 active torsions:
REMARK  status: ('A' for Active; 'I' for Inactive)
REMARK    1  A    between atoms: C_1  and  O_2
REMARK    2  A    between atoms: O_2  and  C_3
REMARK    3  A    between atoms: C_3  and  C_5
REMARK    4  A    between atoms: C_5  and  C_6
REMARK    5  A    between atoms: C_5  and  N_16
REMARK    6  A    between atoms: C_6  and  C_7
REMARK    7  A    between atoms: C_7  and  C_9
REMARK    8  A    between atoms: C_18  and  C_19
REMARK    9  A    between atoms: C_21  and  C_22
REMARK                            x       y       z     vdW  Elec       q    Type
REMARK                         _______ _______ _______ _____ _____    ______ ____
ROOT
ATOM      1  C   UNL     1       5.839   6.042  15.780  0.00  0.00    +0.000 C 
ENDROOT
BRANCH   1   2
ATOM      2  N   UNL     1       6.708   6.550  16.846  0.00  0.00    +0.000 N 
ATOM      3  N   UNL     1       6.993   7.873  16.875  0.00  0.00    +0.000 NA
ATOM      4  C   UNL     1       7.862   8.017  17.875  0.00  0.00    +0.000 A 
ATOM      5  C   UNL     1       8.423   9.350  18.202  0.00  0.00    +0.000 C 
ATOM      6  C   UNL     1       8.136   6.785  18.497  0.00  0.00    +0.000 A 
ATOM      7  C   UNL     1       7.394   5.848  17.810  0.00  0.00    +0.000 A 
ATOM      8  C   UNL     1       7.303   4.383  18.019  0.00  0.00    +0.000 C 
ENDBRANCH   1   2
BRANCH   1   9
ATOM      9  C   UNL     1       6.670   5.274  14.774  0.00  0.00    +0.000 C 
ATOM     10  O   UNL     1       7.839   5.506  14.491  0.00  0.00    +0.000 OA
BRANCH   9  12
ATOM     11  C   UNL     1       6.465   3.737  13.010  0.00  0.00    +0.000 C 
ATOM     12  O   UNL     1       5.924   4.276  14.216  0.00  0.00    +0.000 OA
ENDBRANCH   9  12
ENDBRANCH   1   9
BRANCH   1  13
ATOM     13  C   UNL     1       4.720   5.174  16.371  0.00  0.00    +0.000 C 
BRANCH  13  14
ATOM     14  C   UNL     1       3.881   5.857  17.423  0.00  0.00    +0.000 C 
ATOM     15  O   UNL     1       3.747   7.077  17.461  0.00  0.00    +0.000 OA
BRANCH  14  16
ATOM     16  C   UNL     1       3.250   4.986  18.468  0.00  0.00    +0.000 A 
ATOM     17  C   UNL     1       3.801   3.744  18.820  0.00  0.00    +0.000 A 
ATOM     18  C   UNL     1       3.261   2.997  19.871  0.00  0.00    +0.000 A 
ATOM     19  C   UNL     1       2.157   3.481  20.566  0.00  0.00    +0.000 A 
ATOM     20 BR   UNL     1       1.473   2.500  22.028  0.00  0.00    +0.000 Br
ATOM     21  C   UNL     1       1.568   4.690  20.198  0.00  0.00    +0.000 A 
ATOM     22  C   UNL     1       2.112   5.442  19.149  0.00  0.00    +0.000 A 
ENDBRANCH  14  16
ENDBRANCH  13  14
ENDBRANCH   1  13
TORSDOF 6
ENDMDL
MODEL 4
REMARK VINA RESULT:      -6.7      1.847      2.462
REMARK  Name = 
REMARK  9 active torsions:
REMARK  status: ('A' for Active; 'I' for Inactive)
REMARK    1  A    between atoms: C_1  and  O_2
REMARK    2  A    between atoms: O_2  and  C_3
REMARK    3  A    between atoms: C_3  and  C_5
REMARK    4  A    between atoms: C_5  and  C_6
REMARK    5  A    between atoms: C_5  and  N_16
REMARK    6  A    between atoms: C_6  and  C_7
REMARK    7  A    between atoms: C_7  and  C_9
REMARK    8  A    between atoms: C_18  and  C_19
REMARK    9  A    between atoms: C_21  and  C_22
REMARK                            x       y       z     vdW  Elec       q    Type
REMARK                         _______ _______ _______ _____ _____    ______ ____
ROOT
ATOM      1  C   UNL     1       3.472   5.060  17.662  0.00  0.00    +0.000 C 
ENDROOT
BRANCH   1   2
ATOM      2  N   UNL     1       4.937   5.003  17.670  0.00  0.00    +0.000 N 
ATOM      3  N   UNL     1       5.595   5.386  18.788  0.00  0.00    +0.000 NA
ATOM      4  C   UNL     1       6.887   5.318  18.469  0.00  0.00    +0.000 A 
ATOM      5  C   UNL     1       7.929   5.688  19.456  0.00  0.00    +0.000 C 
ATOM      6  C   UNL     1       7.065   4.885  17.142  0.00  0.00    +0.000 A 
ATOM      7  C   UNL     1       5.795   4.701  16.638  0.00  0.00    +0.000 A 
ATOM      8  C   UNL     1       5.374   4.265  15.284  0.00  0.00    +0.000 C 
ENDBRANCH   1   2
BRANCH   1   9
ATOM      9  C   UNL     1       2.911   3.656  17.737  0.00  0.00    +0.000 C 
ATOM     10  O   UNL     1       2.275   3.094  16.853  0.00  0.00    +0.000 OA
BRANCH   9  12
ATOM     11  C   UNL     1       2.172   2.297  19.505  0.00  0.00    +0.000 C 
ATOM     12  O   UNL     1       3.214   3.096  18.945  0.00  0.00    +0.000 OA
ENDBRANCH   9  12
ENDBRANCH   1   9
BRANCH   1  13
ATOM     13  C   UNL     1       2.964   5.935  18.815  0.00  0.00    +0.000 C 
BRANCH  13  14
ATOM     14  C   UNL     1       2.699   7.374  18.444  0.00  0.00    +0.000 C 
ATOM     15  O   UNL     1       3.205   7.899  17.456  0.00  0.00    +0.000 OA
BRANCH  14  16
ATOM     16  C   UNL     1       1.824   8.169  19.368  0.00  0.00    +0.000 A 
ATOM     17  C   UNL     1       1.602   7.769  20.695  0.00  0.00    +0.000 A 
ATOM     18  C   UNL     1       0.873   8.579  21.570  0.00  0.00    +0.000 A 
ATOM     19  C   UNL     1       0.350   9.787  21.119  0.00  0.00    +0.000 A 
ATOM     20 BR   UNL     1      -0.576  10.909  22.325  0.00  0.00    +0.000 Br
ATOM     21  C   UNL     1       0.522  10.177  19.792  0.00  0.00    +0.000 A 
ATOM     22  C   UNL     1       1.257   9.369  18.916  0.00  0.00    +0.000 A 
ENDBRANCH  14  16
ENDBRANCH  13  14
ENDBRANCH   1  13
TORSDOF 6
ENDMDL
MODEL 5
REMARK VINA RESULT:      -6.7      0.153      1.041
REMARK  Name = 
REMARK  9 active torsions:
REMARK  status: ('A' for Active; 'I' for Inactive)
REMARK    1  A    between atoms: C_1  and  O_2
REMARK    2  A    between atoms: O_2  and  C_3
REMARK    3  A    between atoms: C_3  and  C_5
REMARK    4  A    between atoms: C_5  and  C_6
REMARK    5  A    between atoms: C_5  and  N_16
REMARK    6  A    between atoms: C_6  and  C_7
REMARK    7  A    between atoms: C_7  and  C_9
REMARK    8  A    between atoms: C_18  and  C_19
REMARK    9  A    between atoms: C_21  and  C_22
REMARK                            x       y       z     vdW  Elec       q    Type
REMARK                         _______ _______ _______ _____ _____    ______ ____
ROOT
ATOM      1  C   UNL     1       4.002   3.835  19.129  0.00  0.00    +0.000 C 
ENDROOT
BRANCH   1   2
ATOM      2  N   UNL     1       5.219   4.409  18.547  0.00  0.00    +0.000 N 
ATOM      3  N   UNL     1       6.102   5.026  19.367  0.00  0.00    +0.000 NA
ATOM      4  C   UNL     1       7.038   5.519  18.557  0.00  0.00    +0.000 A 
ATOM      5  C   UNL     1       8.180   6.290  19.104  0.00  0.00    +0.000 C 
ATOM      6  C   UNL     1       6.763   5.216  17.211  0.00  0.00    +0.000 A 
ATOM      7  C   UNL     1       5.577   4.512  17.223  0.00  0.00    +0.000 A 
ATOM      8  C   UNL     1       4.804   3.952  16.088  0.00  0.00    +0.000 C 
ENDBRANCH   1   2
BRANCH   1   9
ATOM      9  C   UNL     1       4.239   2.376  19.458  0.00  0.00    +0.000 C 
ATOM     10  O   UNL     1       4.860   1.956  20.428  0.00  0.00    +0.000 OA
BRANCH   9  12
ATOM     11  C   UNL     1       2.364   2.009  18.093  0.00  0.00    +0.000 C 
ATOM     12  O   UNL     1       3.661   1.583  18.509  0.00  0.00    +0.000 OA
ENDBRANCH   9  12
ENDBRANCH   1   9
BRANCH   1  13
ATOM     13  C   UNL     1       3.574   4.631  20.368  0.00  0.00    +0.000 C 
BRANCH  13  14
ATOM     14  C   UNL     1       2.141   5.104  20.348  0.00  0.00    +0.000 C 
ATOM     15  O   UNL     1       1.204   4.366  20.641  0.00  0.00    +0.000 OA
BRANCH  14  16
ATOM     16  C   UNL     1       1.891   6.514  19.900  0.00  0.00    +0.000 A 
ATOM     17  C   UNL     1       1.343   7.474  20.765  0.00  0.00    +0.000 A 
ATOM     18  C   UNL     1       1.219   8.807  20.363  0.00  0.00    +0.000 A 
ATOM     19  C   UNL     1       1.629   9.185  19.088  0.00  0.00    +0.000 A 
ATOM     20 BR   UNL     1       1.522  11.000  18.574  0.00  0.00    +0.000 Br
ATOM     21  C   UNL     1       2.131   8.235  18.200  0.00  0.00    +0.000 A 
ATOM     22  C   UNL     1       2.262   6.900  18.604  0.00  0.00    +0.000 A 
ENDBRANCH  14  16
ENDBRANCH  13  14
ENDBRANCH   1  13
TORSDOF 6
ENDMDL
MODEL 6
REMARK VINA RESULT:      -6.7      1.664      2.036
REMARK  Name = 
REMARK  9 active torsions:
REMARK  status: ('A' for Active; 'I' for Inactive)
REMARK    1  A    between atoms: C_1  and  O_2
REMARK    2  A    between atoms: O_2  and  C_3
REMARK    3  A    between atoms: C_3  and  C_5
REMARK    4  A    between atoms: C_5  and  C_6
REMARK    5  A    between atoms: C_5  and  N_16
REMARK    6  A    between atoms: C_6  and  C_7
REMARK    7  A    between atoms: C_7  and  C_9
REMARK    8  A    between atoms: C_18  and  C_19
REMARK    9  A    between atoms: C_21  and  C_22
REMARK                            x       y       z     vdW  Elec       q    Type
REMARK                         _______ _______ _______ _____ _____    ______ ____
ROOT
ATOM      1  C   UNL     1       3.788   4.445  17.733  0.00  0.00    +0.000 C 
ENDROOT
BRANCH   1   2
ATOM      2  N   UNL     1       5.247   4.584  17.758  0.00  0.00    +0.000 N 
ATOM      3  N   UNL     1       5.835   5.056  18.882  0.00  0.00    +0.000 NA
ATOM      4  C   UNL     1       7.128   5.160  18.579  0.00  0.00    +0.000 A 
ATOM      5  C   UNL     1       8.099   5.670  19.576  0.00  0.00    +0.000 C 
ATOM      6  C   UNL     1       7.379   4.748  17.257  0.00  0.00    +0.000 A 
ATOM      7  C   UNL     1       6.151   4.394  16.739  0.00  0.00    +0.000 A 
ATOM      8  C   UNL     1       5.809   3.900  15.383  0.00  0.00    +0.000 C 
ENDBRANCH   1   2
BRANCH   1   9
ATOM      9  C   UNL     1       3.403   3.065  18.221  0.00  0.00    +0.000 C 
ATOM     10  O   UNL     1       3.730   2.007  17.696  0.00  0.00    +0.000 OA
BRANCH   9  12
ATOM     11  C   UNL     1       1.545   2.237  19.394  0.00  0.00    +0.000 C 
ATOM     12  O   UNL     1       2.629   3.164  19.341  0.00  0.00    +0.000 OA
ENDBRANCH   9  12
ENDBRANCH   1   9
BRANCH   1  13
ATOM     13  C   UNL     1       3.131   5.546  18.574  0.00  0.00    +0.000 C 
BRANCH  13  14
ATOM     14  C   UNL     1       3.171   6.922  17.953  0.00  0.00    +0.000 C 
ATOM     15  O   UNL     1       3.900   7.189  17.002  0.00  0.00    +0.000 OA
BRANCH  14  16
ATOM     16  C   UNL     1       2.315   7.982  18.582  0.00  0.00    +0.000 A 
ATOM     17  C   UNL     1       1.828   9.068  17.839  0.00  0.00    +0.000 A 
ATOM     18  C   UNL     1       0.944   9.986  18.416  0.00  0.00    +0.000 A 
ATOM     19  C   UNL     1       0.556   9.830  19.743  0.00  0.00    +0.000 A 
ATOM     20 BR   UNL     1      -0.690  11.034  20.496  0.00  0.00    +0.000 Br
ATOM     21  C   UNL     1       1.067   8.784  20.508  0.00  0.00    +0.000 A 
ATOM     22  C   UNL     1       1.948   7.860  19.930  0.00  0.00    +0.000 A 
ENDBRANCH  14  16
ENDBRANCH  13  14
ENDBRANCH   1  13
TORSDOF 6
ENDMDL
MODEL 7
REMARK VINA RESULT:      -6.7      2.886      4.059
REMARK  Name = 
REMARK  9 active torsions:
REMARK  status: ('A' for Active; 'I' for Inactive)
REMARK    1  A    between atoms: C_1  and  O_2
REMARK    2  A    between atoms: O_2  and  C_3
REMARK    3  A    between atoms: C_3  and  C_5
REMARK    4  A    between atoms: C_5  and  C_6
REMARK    5  A    between atoms: C_5  and  N_16
REMARK    6  A    between atoms: C_6  and  C_7
REMARK    7  A    between atoms: C_7  and  C_9
REMARK    8  A    between atoms: C_18  and  C_19
REMARK    9  A    between atoms: C_21  and  C_22
REMARK                            x       y       z     vdW  Elec       q    Type
REMARK                         _______ _______ _______ _____ _____    ______ ____
ROOT
ATOM      1  C   UNL     1       5.898   5.978  17.443  0.00  0.00    +0.000 C 
ENDROOT
BRANCH   1   2
ATOM      2  N   UNL     1       6.185   5.236  16.212  0.00  0.00    +0.000 N 
ATOM      3  N   UNL     1       7.047   5.771  15.317  0.00  0.00    +0.000 NA
ATOM      4  C   UNL     1       7.034   4.934  14.280  0.00  0.00    +0.000 A 
ATOM      5  C   UNL     1       7.858   5.207  13.079  0.00  0.00    +0.000 C 
ATOM      6  C   UNL     1       6.164   3.851  14.507  0.00  0.00    +0.000 A 
ATOM      7  C   UNL     1       5.614   4.071  15.752  0.00  0.00    +0.000 A 
ATOM      8  C   UNL     1       4.620   3.261  16.498  0.00  0.00    +0.000 C 
ENDBRANCH   1   2
BRANCH   1   9
ATOM      9  C   UNL     1       7.126   6.760  17.859  0.00  0.00    +0.000 C 
ATOM     10  O   UNL     1       8.017   6.349  18.594  0.00  0.00    +0.000 OA
BRANCH   9  12
ATOM     11  C   UNL     1       8.069   8.911  17.825  0.00  0.00    +0.000 C 
ATOM     12  O   UNL     1       7.102   8.003  17.296  0.00  0.00    +0.000 OA
ENDBRANCH   9  12
ENDBRANCH   1   9
BRANCH   1  13
ATOM     13  C   UNL     1       4.684   6.895  17.245  0.00  0.00    +0.000 C 
BRANCH  13  14
ATOM     14  C   UNL     1       3.475   6.527  18.070  0.00  0.00    +0.000 C 
ATOM     15  O   UNL     1       3.177   5.360  18.309  0.00  0.00    +0.000 OA
BRANCH  14  16
ATOM     16  C   UNL     1       2.607   7.652  18.553  0.00  0.00    +0.000 A 
ATOM     17  C   UNL     1       2.232   8.706  17.705  0.00  0.00    +0.000 A 
ATOM     18  C   UNL     1       1.336   9.686  18.141  0.00  0.00    +0.000 A 
ATOM     19  C   UNL     1       0.821   9.625  19.432  0.00  0.00    +0.000 A 
ATOM     20 BR   UNL     1      -0.441  10.914  19.993  0.00  0.00    +0.000 Br
ATOM     21  C   UNL     1       1.220   8.612  20.302  0.00  0.00    +0.000 A 
ATOM     22  C   UNL     1       2.113   7.626  19.864  0.00  0.00    +0.000 A 
ENDBRANCH  14  16
ENDBRANCH  13  14
ENDBRANCH   1  13
TORSDOF 6
ENDMDL
MODEL 8
REMARK VINA RESULT:      -6.6      3.461      4.866
REMARK  Name = 
REMARK  9 active torsions:
REMARK  status: ('A' for Active; 'I' for Inactive)
REMARK    1  A    between atoms: C_1  and  O_2
REMARK    2  A    between atoms: O_2  and  C_3
REMARK    3  A    between atoms: C_3  and  C_5
REMARK    4  A    between atoms: C_5  and  C_6
REMARK    5  A    between atoms: C_5  and  N_16
REMARK    6  A    between atoms: C_6  and  C_7
REMARK    7  A    between atoms: C_7  and  C_9
REMARK    8  A    between atoms: C_18  and  C_19
REMARK    9  A    between atoms: C_21  and  C_22
REMARK                            x       y       z     vdW  Elec       q    Type
REMARK                         _______ _______ _______ _____ _____    ______ ____
ROOT
ATOM      1  C   UNL     1       5.610   6.449  17.279  0.00  0.00    +0.000 C 
ENDROOT
BRANCH   1   2
ATOM      2  N   UNL     1       5.757   5.288  16.395  0.00  0.00    +0.000 N 
ATOM      3  N   UNL     1       6.108   5.495  15.105  0.00  0.00    +0.000 NA
ATOM      4  C   UNL     1       6.070   4.290  14.539  0.00  0.00    +0.000 A 
ATOM      5  C   UNL     1       6.383   4.121  13.099  0.00  0.00    +0.000 C 
ATOM      6  C   UNL     1       5.697   3.299  15.466  0.00  0.00    +0.000 A 
ATOM      7  C   UNL     1       5.485   3.965  16.655  0.00  0.00    +0.000 A 
ATOM      8  C   UNL     1       5.061   3.428  17.971  0.00  0.00    +0.000 C 
ENDBRANCH   1   2
BRANCH   1   9
ATOM      9  C   UNL     1       6.946   7.147  17.421  0.00  0.00    +0.000 C 
ATOM     10  O   UNL     1       7.157   8.334  17.200  0.00  0.00    +0.000 OA
BRANCH   9  12
ATOM     11  C   UNL     1       7.779   5.853  19.195  0.00  0.00    +0.000 C 
ATOM     12  O   UNL     1       7.897   6.257  17.831  0.00  0.00    +0.000 OA
ENDBRANCH   9  12
ENDBRANCH   1   9
BRANCH   1  13
ATOM     13  C   UNL     1       4.531   7.397  16.743  0.00  0.00    +0.000 C 
BRANCH  13  14
ATOM     14  C   UNL     1       3.323   7.545  17.636  0.00  0.00    +0.000 C 
ATOM     15  O   UNL     1       2.743   8.618  17.779  0.00  0.00    +0.000 OA
BRANCH  14  16
ATOM     16  C   UNL     1       2.881   6.330  18.398  0.00  0.00    +0.000 A 
ATOM     17  C   UNL     1       3.166   6.174  19.763  0.00  0.00    +0.000 A 
ATOM     18  C   UNL     1       2.653   5.088  20.479  0.00  0.00    +0.000 A 
ATOM     19  C   UNL     1       1.864   4.144  19.829  0.00  0.00    +0.000 A 
ATOM     20 BR   UNL     1       1.118   2.716  20.815  0.00  0.00    +0.000 Br
ATOM     21  C   UNL     1       1.610   4.259  18.463  0.00  0.00    +0.000 A 
ATOM     22  C   UNL     1       2.119   5.350  17.747  0.00  0.00    +0.000 A 
ENDBRANCH  14  16
ENDBRANCH  13  14
ENDBRANCH   1  13
TORSDOF 6
ENDMDL
MODEL 9
REMARK VINA RESULT:      -6.5      3.207      6.064
REMARK  Name = 
REMARK  9 active torsions:
REMARK  status: ('A' for Active; 'I' for Inactive)
REMARK    1  A    between atoms: C_1  and  O_2
REMARK    2  A    between atoms: O_2  and  C_3
REMARK    3  A    between atoms: C_3  and  C_5
REMARK    4  A    between atoms: C_5  and  C_6
REMARK    5  A    between atoms: C_5  and  N_16
REMARK    6  A    between atoms: C_6  and  C_7
REMARK    7  A    between atoms: C_7  and  C_9
REMARK    8  A    between atoms: C_18  and  C_19
REMARK    9  A    between atoms: C_21  and  C_22
REMARK                            x       y       z     vdW  Elec       q    Type
REMARK                         _______ _______ _______ _____ _____    ______ ____
ROOT
ATOM      1  C   UNL     1       3.197   6.010  18.597  0.00  0.00    +0.000 C 
ENDROOT
BRANCH   1   2
ATOM      2  N   UNL     1       2.427   4.917  19.199  0.00  0.00    +0.000 N 
ATOM      3  N   UNL     1       2.647   4.607  20.498  0.00  0.00    +0.000 NA
ATOM      4  C   UNL     1       1.889   3.536  20.731  0.00  0.00    +0.000 A 
ATOM      5  C   UNL     1       1.883   2.891  22.066  0.00  0.00    +0.000 C 
ATOM      6  C   UNL     1       1.174   3.155  19.581  0.00  0.00    +0.000 A 
ATOM      7  C   UNL     1       1.545   4.049  18.599  0.00  0.00    +0.000 A 
ATOM      8  C   UNL     1       1.117   4.120  17.180  0.00  0.00    +0.000 C 
ENDBRANCH   1   2
BRANCH   1   9
ATOM      9  C   UNL     1       2.546   7.334  18.941  0.00  0.00    +0.000 C 
ATOM     10  O   UNL     1       2.097   7.644  20.038  0.00  0.00    +0.000 OA
BRANCH   9  12
ATOM     11  C   UNL     1       1.796   9.358  18.015  0.00  0.00    +0.000 C 
ATOM     12  O   UNL     1       2.526   8.144  17.841  0.00  0.00    +0.000 OA
ENDBRANCH   9  12
ENDBRANCH   1   9
BRANCH   1  13
ATOM     13  C   UNL     1       4.656   5.959  19.066  0.00  0.00    +0.000 C 
BRANCH  13  14
ATOM     14  C   UNL     1       5.426   4.748  18.597  0.00  0.00    +0.000 C 
ATOM     15  O   UNL     1       5.841   3.895  19.376  0.00  0.00    +0.000 OA
BRANCH  14  16
ATOM     16  C   UNL     1       5.717   4.648  17.128  0.00  0.00    +0.000 A 
ATOM     17  C   UNL     1       6.927   5.108  16.586  0.00  0.00    +0.000 A 
ATOM     18  C   UNL     1       7.224   4.908  15.235  0.00  0.00    +0.000 A 
ATOM     19  C   UNL     1       6.305   4.260  14.415  0.00  0.00    +0.000 A 
ATOM     20 BR   UNL     1       6.740   3.933  12.605  0.00  0.00    +0.000 Br
ATOM     21  C   UNL     1       5.078   3.840  14.926  0.00  0.00    +0.000 A 
ATOM     22  C   UNL     1       4.783   4.035  16.282  0.00  0.00    +0.000 A 
ENDBRANCH  14  16
ENDBRANCH  13  14
ENDBRANCH   1  13
TORSDOF 6
ENDMDL
