MODEL 1
REMARK VINA RESULT:      -6.6      0.000      0.000
REMARK  Name = 
REMARK  11 active torsions:
REMARK  status: ('A' for Active; 'I' for Inactive)
REMARK    1  A    between atoms: C_1  and  C_2
REMARK    2  A    between atoms: C_2  and  O_3
REMARK    3  A    between atoms: O_3  and  C_4
REMARK    4  A    between atoms: C_4  and  C_5
REMARK    5  A    between atoms: N_7  and  C_8
REMARK    6  A    between atoms: C_8  and  C_9
REMARK    7  A    between atoms: C_9  and  N_10
REMARK    8  A    between atoms: N_10  and  C_11
REMARK    9  A    between atoms: N_10  and  C_12
REMARK   10  A    between atoms: N_17  and  C_18
REMARK   11  A    between atoms: C_18  and  C_19
REMARK                            x       y       z     vdW  Elec       q    Type
REMARK                         _______ _______ _______ _____ _____    ______ ____
ROOT
ATOM      1  C   UNL     1       5.445   4.447  17.698  0.00  0.00    +0.000 C 
ATOM      2  C   UNL     1       6.341   4.429  16.400  0.00  0.00    +0.000 C 
ATOM      3  N   UNL     1       5.971   5.251  15.220  0.00  0.00    +0.000 NA
ATOM      4  C   UNL     1       5.471   6.598  15.537  0.00  0.00    +0.000 C 
ATOM      5  C   UNL     1       4.531   6.587  16.679  0.00  0.00    +0.000 A 
ATOM      6  C   UNL     1       3.563   7.521  17.082  0.00  0.00    +0.000 A 
ATOM      7  N   UNL     1       3.005   7.202  18.253  0.00  0.00    +0.000 NA
ATOM      8  N   UNL     1       3.598   6.039  18.596  0.00  0.00    +0.000 N 
ATOM      9  C   UNL     1       4.527   5.634  17.669  0.00  0.00    +0.000 A 
ENDROOT
BRANCH   1  10
ATOM     10  C   UNL     1       6.340   4.503  18.955  0.00  0.00    +0.000 C 
BRANCH  10  11
ATOM     11  O   UNL     1       7.713   4.783  18.680  0.00  0.00    +0.000 OA
BRANCH  11  13
ATOM     12  C   UNL     1       7.928   7.153  18.245  0.00  0.00    +0.000 C 
ATOM     13  C   UNL     1       8.055   6.047  19.267  0.00  0.00    +0.000 C 
ENDBRANCH  11  13
ENDBRANCH  10  11
ENDBRANCH   1  10
BRANCH   3  14
ATOM     14  C   UNL     1       5.257   4.513  14.166  0.00  0.00    +0.000 C 
BRANCH  14  15
ATOM     15  C   UNL     1       6.144   3.472  13.413  0.00  0.00    +0.000 C 
BRANCH  15  16
ATOM     16  N   UNL     1       5.918   3.307  11.960  0.00  0.00    +0.000 NA
ATOM     17  C   UNL     1       6.535   2.078  11.458  0.00  0.00    +0.000 C 
ATOM     18  C   UNL     1       4.470   3.263  11.705  0.00  0.00    +0.000 C 
ENDBRANCH  15  16
ENDBRANCH  14  15
ENDBRANCH   3  14
BRANCH   8  19
ATOM     19  C   UNL     1       3.379   5.477  19.914  0.00  0.00    +0.000 C 
BRANCH  19  20
ATOM     20  C   UNL     1       2.048   4.782  20.192  0.00  0.00    +0.000 C 
ATOM     21  C   UNL     1       1.604   3.861  19.064  0.00  0.00    +0.000 C 
ATOM     22  C   UNL     1       0.686   2.856  19.742  0.00  0.00    +0.000 C 
ATOM     23  C   UNL     1       1.203   2.705  21.168  0.00  0.00    +0.000 C 
ATOM     24  C   UNL     1       2.183   3.847  21.400  0.00  0.00    +0.000 C 
ENDBRANCH  19  20
ENDBRANCH   8  19
TORSDOF 8
ENDMDL
MODEL 2
REMARK VINA RESULT:      -6.2      2.388      6.782
REMARK  Name = 
REMARK  11 active torsions:
REMARK  status: ('A' for Active; 'I' for Inactive)
REMARK    1  A    between atoms: C_1  and  C_2
REMARK    2  A    between atoms: C_2  and  O_3
REMARK    3  A    between atoms: O_3  and  C_4
REMARK    4  A    between atoms: C_4  and  C_5
REMARK    5  A    between atoms: N_7  and  C_8
REMARK    6  A    between atoms: C_8  and  C_9
REMARK    7  A    between atoms: C_9  and  N_10
REMARK    8  A    between atoms: N_10  and  C_11
REMARK    9  A    between atoms: N_10  and  C_12
REMARK   10  A    between atoms: N_17  and  C_18
REMARK   11  A    between atoms: C_18  and  C_19
REMARK                            x       y       z     vdW  Elec       q    Type
REMARK                         _______ _______ _______ _____ _____    ______ ____
ROOT
ATOM      1  C   UNL     1       5.097   6.616  16.899  0.00  0.00    +0.000 C 
ATOM      2  C   UNL     1       4.371   7.695  17.793  0.00  0.00    +0.000 C 
ATOM      3  N   UNL     1       3.016   7.430  18.337  0.00  0.00    +0.000 NA
ATOM      4  C   UNL     1       2.803   6.060  18.829  0.00  0.00    +0.000 C 
ATOM      5  C   UNL     1       3.378   5.047  17.917  0.00  0.00    +0.000 A 
ATOM      6  C   UNL     1       3.111   3.675  17.781  0.00  0.00    +0.000 A 
ATOM      7  N   UNL     1       3.944   3.078  16.924  0.00  0.00    +0.000 NA
ATOM      8  N   UNL     1       4.738   4.076  16.483  0.00  0.00    +0.000 N 
ATOM      9  C   UNL     1       4.426   5.284  17.060  0.00  0.00    +0.000 A 
ENDROOT
BRANCH   1  10
ATOM     10  C   UNL     1       6.583   6.512  17.302  0.00  0.00    +0.000 C 
BRANCH  10  11
ATOM     11  O   UNL     1       7.353   7.675  16.995  0.00  0.00    +0.000 OA
BRANCH  11  13
ATOM     12  C   UNL     1       8.454   9.505  18.130  0.00  0.00    +0.000 C 
ATOM     13  C   UNL     1       8.138   8.027  18.143  0.00  0.00    +0.000 C 
ENDBRANCH  11  13
ENDBRANCH  10  11
ENDBRANCH   1  10
BRANCH   3  14
ATOM     14  C   UNL     1       1.921   8.029  17.557  0.00  0.00    +0.000 C 
BRANCH  14  15
ATOM     15  C   UNL     1       1.672   9.537  17.873  0.00  0.00    +0.000 C 
BRANCH  15  16
ATOM     16  N   UNL     1       0.596   9.864  18.833  0.00  0.00    +0.000 NA
ATOM     17  C   UNL     1       0.945  11.025  19.655  0.00  0.00    +0.000 C 
ATOM     18  C   UNL     1      -0.639  10.149  18.088  0.00  0.00    +0.000 C 
ENDBRANCH  15  16
ENDBRANCH  14  15
ENDBRANCH   3  14
BRANCH   8  19
ATOM     19  C   UNL     1       5.899   3.772  15.670  0.00  0.00    +0.000 C 
BRANCH  19  20
ATOM     20  C   UNL     1       6.020   4.444  14.303  0.00  0.00    +0.000 C 
ATOM     21  C   UNL     1       7.398   5.039  14.046  0.00  0.00    +0.000 C 
ATOM     22  C   UNL     1       7.513   5.074  12.531  0.00  0.00    +0.000 C 
ATOM     23  C   UNL     1       6.693   3.897  12.016  0.00  0.00    +0.000 C 
ATOM     24  C   UNL     1       5.855   3.404  13.188  0.00  0.00    +0.000 C 
ENDBRANCH  19  20
ENDBRANCH   8  19
TORSDOF 8
ENDMDL
MODEL 3
REMARK VINA RESULT:      -6.1      0.700      1.115
REMARK  Name = 
REMARK  11 active torsions:
REMARK  status: ('A' for Active; 'I' for Inactive)
REMARK    1  A    between atoms: C_1  and  C_2
REMARK    2  A    between atoms: C_2  and  O_3
REMARK    3  A    between atoms: O_3  and  C_4
REMARK    4  A    between atoms: C_4  and  C_5
REMARK    5  A    between atoms: N_7  and  C_8
REMARK    6  A    between atoms: C_8  and  C_9
REMARK    7  A    between atoms: C_9  and  N_10
REMARK    8  A    between atoms: N_10  and  C_11
REMARK    9  A    between atoms: N_10  and  C_12
REMARK   10  A    between atoms: N_17  and  C_18
REMARK   11  A    between atoms: C_18  and  C_19
REMARK                            x       y       z     vdW  Elec       q    Type
REMARK                         _______ _______ _______ _____ _____    ______ ____
ROOT
ATOM      1  C   UNL     1       5.169   4.444  17.997  0.00  0.00    +0.000 C 
ATOM      2  C   UNL     1       6.118   4.377  16.739  0.00  0.00    +0.000 C 
ATOM      3  N   UNL     1       5.856   5.231  15.554  0.00  0.00    +0.000 NA
ATOM      4  C   UNL     1       5.434   6.607  15.864  0.00  0.00    +0.000 C 
ATOM      5  C   UNL     1       4.446   6.650  16.964  0.00  0.00    +0.000 A 
ATOM      6  C   UNL     1       3.525   7.643  17.335  0.00  0.00    +0.000 A 
ATOM      7  N   UNL     1       2.897   7.352  18.477  0.00  0.00    +0.000 NA
ATOM      8  N   UNL     1       3.395   6.150  18.833  0.00  0.00    +0.000 N 
ATOM      9  C   UNL     1       4.335   5.690  17.941  0.00  0.00    +0.000 A 
ENDROOT
BRANCH   1  10
ATOM     10  C   UNL     1       6.009   4.428  19.292  0.00  0.00    +0.000 C 
BRANCH  10  11
ATOM     11  O   UNL     1       6.512   5.709  19.675  0.00  0.00    +0.000 OA
BRANCH  11  13
ATOM     12  C   UNL     1       8.026   7.105  18.408  0.00  0.00    +0.000 C 
ATOM     13  C   UNL     1       7.863   5.835  19.210  0.00  0.00    +0.000 C 
ENDBRANCH  11  13
ENDBRANCH  10  11
ENDBRANCH   1  10
BRANCH   3  14
ATOM     14  C   UNL     1       5.141   4.552  14.461  0.00  0.00    +0.000 C 
BRANCH  14  15
ATOM     15  C   UNL     1       6.023   3.541  13.663  0.00  0.00    +0.000 C 
BRANCH  15  16
ATOM     16  N   UNL     1       5.996   3.629  12.187  0.00  0.00    +0.000 NA
ATOM     17  C   UNL     1       7.258   4.151  11.658  0.00  0.00    +0.000 C 
ATOM     18  C   UNL     1       5.753   2.289  11.632  0.00  0.00    +0.000 C 
ENDBRANCH  15  16
ENDBRANCH  14  15
ENDBRANCH   3  14
BRANCH   8  19
ATOM     19  C   UNL     1       3.081   5.592  20.133  0.00  0.00    +0.000 C 
BRANCH  19  20
ATOM     20  C   UNL     1       2.640   4.132  20.207  0.00  0.00    +0.000 C 
ATOM     21  C   UNL     1       2.201   3.706  21.602  0.00  0.00    +0.000 C 
ATOM     22  C   UNL     1       1.267   2.532  21.357  0.00  0.00    +0.000 C 
ATOM     23  C   UNL     1       0.605   2.792  20.009  0.00  0.00    +0.000 C 
ATOM     24  C   UNL     1       1.392   3.913  19.345  0.00  0.00    +0.000 C 
ENDBRANCH  19  20
ENDBRANCH   8  19
TORSDOF 8
ENDMDL
MODEL 4
REMARK VINA RESULT:      -6.1      0.802      1.077
REMARK  Name = 
REMARK  11 active torsions:
REMARK  status: ('A' for Active; 'I' for Inactive)
REMARK    1  A    between atoms: C_1  and  C_2
REMARK    2  A    between atoms: C_2  and  O_3
REMARK    3  A    between atoms: O_3  and  C_4
REMARK    4  A    between atoms: C_4  and  C_5
REMARK    5  A    between atoms: N_7  and  C_8
REMARK    6  A    between atoms: C_8  and  C_9
REMARK    7  A    between atoms: C_9  and  N_10
REMARK    8  A    between atoms: N_10  and  C_11
REMARK    9  A    between atoms: N_10  and  C_12
REMARK   10  A    between atoms: N_17  and  C_18
REMARK   11  A    between atoms: C_18  and  C_19
REMARK                            x       y       z     vdW  Elec       q    Type
REMARK                         _______ _______ _______ _____ _____    ______ ____
ROOT
ATOM      1  C   UNL     1       6.109   4.392  17.242  0.00  0.00    +0.000 C 
ATOM      2  C   UNL     1       6.820   4.452  15.835  0.00  0.00    +0.000 C 
ATOM      3  N   UNL     1       6.183   5.166  14.701  0.00  0.00    +0.000 NA
ATOM      4  C   UNL     1       5.535   6.439  15.056  0.00  0.00    +0.000 C 
ATOM      5  C   UNL     1       4.765   6.338  16.314  0.00  0.00    +0.000 A 
ATOM      6  C   UNL     1       3.730   7.138  16.826  0.00  0.00    +0.000 A 
ATOM      7  N   UNL     1       3.383   6.787  18.068  0.00  0.00    +0.000 NA
ATOM      8  N   UNL     1       4.181   5.736  18.350  0.00  0.00    +0.000 N 
ATOM      9  C   UNL     1       5.030   5.432  17.313  0.00  0.00    +0.000 A 
ENDROOT
BRANCH   1  10
ATOM     10  C   UNL     1       7.142   4.623  18.365  0.00  0.00    +0.000 C 
BRANCH  10  11
ATOM     11  O   UNL     1       8.166   5.560  18.030  0.00  0.00    +0.000 OA
BRANCH  11  13
ATOM     12  C   UNL     1       7.837   7.926  17.650  0.00  0.00    +0.000 C 
ATOM     13  C   UNL     1       7.876   6.811  18.670  0.00  0.00    +0.000 C 
ENDBRANCH  11  13
ENDBRANCH  10  11
ENDBRANCH   1  10
BRANCH   3  14
ATOM     14  C   UNL     1       5.453   4.293  13.766  0.00  0.00    +0.000 C 
BRANCH  14  15
ATOM     15  C   UNL     1       6.359   3.639  12.676  0.00  0.00    +0.000 C 
BRANCH  15  16
ATOM     16  N   UNL     1       5.688   3.023  11.511  0.00  0.00    +0.000 NA
ATOM     17  C   UNL     1       5.882   1.573  11.485  0.00  0.00    +0.000 C 
ATOM     18  C   UNL     1       4.249   3.321  11.576  0.00  0.00    +0.000 C 
ENDBRANCH  15  16
ENDBRANCH  14  15
ENDBRANCH   3  14
BRANCH   8  19
ATOM     19  C   UNL     1       4.221   5.199  19.696  0.00  0.00    +0.000 C 
BRANCH  19  20
ATOM     20  C   UNL     1       3.133   4.212  20.114  0.00  0.00    +0.000 C 
ATOM     21  C   UNL     1       1.866   4.891  20.617  0.00  0.00    +0.000 C 
ATOM     22  C   UNL     1       0.772   3.862  20.383  0.00  0.00    +0.000 C 
ATOM     23  C   UNL     1       1.199   3.062  19.157  0.00  0.00    +0.000 C 
ATOM     24  C   UNL     1       2.660   3.403  18.900  0.00  0.00    +0.000 C 
ENDBRANCH  19  20
ENDBRANCH   8  19
TORSDOF 8
ENDMDL
MODEL 5
REMARK VINA RESULT:      -5.9      4.941      7.558
REMARK  Name = 
REMARK  11 active torsions:
REMARK  status: ('A' for Active; 'I' for Inactive)
REMARK    1  A    between atoms: C_1  and  C_2
REMARK    2  A    between atoms: C_2  and  O_3
REMARK    3  A    between atoms: O_3  and  C_4
REMARK    4  A    between atoms: C_4  and  C_5
REMARK    5  A    between atoms: N_7  and  C_8
REMARK    6  A    between atoms: C_8  and  C_9
REMARK    7  A    between atoms: C_9  and  N_10
REMARK    8  A    between atoms: N_10  and  C_11
REMARK    9  A    between atoms: N_10  and  C_12
REMARK   10  A    between atoms: N_17  and  C_18
REMARK   11  A    between atoms: C_18  and  C_19
REMARK                            x       y       z     vdW  Elec       q    Type
REMARK                         _______ _______ _______ _____ _____    ______ ____
ROOT
ATOM      1  C   UNL     1       0.815   8.314  20.740  0.00  0.00    +0.000 C 
ATOM      2  C   UNL     1       1.365   6.987  21.391  0.00  0.00    +0.000 C 
ATOM      3  N   UNL     1       2.034   5.961  20.554  0.00  0.00    +0.000 NA
ATOM      4  C   UNL     1       2.939   6.496  19.523  0.00  0.00    +0.000 C 
ATOM      5  C   UNL     1       2.359   7.667  18.829  0.00  0.00    +0.000 A 
ATOM      6  C   UNL     1       2.669   8.248  17.589  0.00  0.00    +0.000 A 
ATOM      7  N   UNL     1       1.998   9.384  17.378  0.00  0.00    +0.000 NA
ATOM      8  N   UNL     1       1.229   9.524  18.478  0.00  0.00    +0.000 N 
ATOM      9  C   UNL     1       1.417   8.504  19.379  0.00  0.00    +0.000 A 
ENDROOT
BRANCH   1  10
ATOM     10  C   UNL     1       1.152   9.522  21.640  0.00  0.00    +0.000 C 
BRANCH  10  11
ATOM     11  O   UNL     1       0.728   9.375  22.996  0.00  0.00    +0.000 OA
BRANCH  11  13
ATOM     12  C   UNL     1      -0.629  11.285  22.399  0.00  0.00    +0.000 C 
ATOM     13  C   UNL     1      -0.568   9.972  23.144  0.00  0.00    +0.000 C 
ENDBRANCH  11  13
ENDBRANCH  10  11
ENDBRANCH   1  10
BRANCH   3  14
ATOM     14  C   UNL     1       1.165   4.843  20.152  0.00  0.00    +0.000 C 
BRANCH  14  15
ATOM     15  C   UNL     1       1.441   3.518  20.930  0.00  0.00    +0.000 C 
BRANCH  15  16
ATOM     16  N   UNL     1       2.060   2.404  20.180  0.00  0.00    +0.000 NA
ATOM     17  C   UNL     1       1.573   2.349  18.801  0.00  0.00    +0.000 C 
ATOM     18  C   UNL     1       3.519   2.585  20.174  0.00  0.00    +0.000 C 
ENDBRANCH  15  16
ENDBRANCH  14  15
ENDBRANCH   3  14
BRANCH   8  19
ATOM     19  C   UNL     1       0.491  10.752  18.693  0.00  0.00    +0.000 C 
BRANCH  19  20
ATOM     20  C   UNL     1      -1.033  10.680  18.755  0.00  0.00    +0.000 C 
ATOM     21  C   UNL     1      -1.704  12.046  18.696  0.00  0.00    +0.000 C 
ATOM     22  C   UNL     1      -3.094  11.757  18.155  0.00  0.00    +0.000 C 
ATOM     23  C   UNL     1      -2.951  10.544  17.243  0.00  0.00    +0.000 C 
ATOM     24  C   UNL     1      -1.577   9.949  17.521  0.00  0.00    +0.000 C 
ENDBRANCH  19  20
ENDBRANCH   8  19
TORSDOF 8
ENDMDL
MODEL 6
REMARK VINA RESULT:      -5.9      4.661      6.980
REMARK  Name = 
REMARK  11 active torsions:
REMARK  status: ('A' for Active; 'I' for Inactive)
REMARK    1  A    between atoms: C_1  and  C_2
REMARK    2  A    between atoms: C_2  and  O_3
REMARK    3  A    between atoms: O_3  and  C_4
REMARK    4  A    between atoms: C_4  and  C_5
REMARK    5  A    between atoms: N_7  and  C_8
REMARK    6  A    between atoms: C_8  and  C_9
REMARK    7  A    between atoms: C_9  and  N_10
REMARK    8  A    between atoms: N_10  and  C_11
REMARK    9  A    between atoms: N_10  and  C_12
REMARK   10  A    between atoms: N_17  and  C_18
REMARK   11  A    between atoms: C_18  and  C_19
REMARK                            x       y       z     vdW  Elec       q    Type
REMARK                         _______ _______ _______ _____ _____    ______ ____
ROOT
ATOM      1  C   UNL     1       0.987   7.701  20.631  0.00  0.00    +0.000 C 
ATOM      2  C   UNL     1       1.604   6.309  21.043  0.00  0.00    +0.000 C 
ATOM      3  N   UNL     1       2.339   5.489  20.047  0.00  0.00    +0.000 NA
ATOM      4  C   UNL     1       3.223   6.251  19.149  0.00  0.00    +0.000 C 
ATOM      5  C   UNL     1       2.585   7.495  18.667  0.00  0.00    +0.000 A 
ATOM      6  C   UNL     1       2.875   8.308  17.559  0.00  0.00    +0.000 A 
ATOM      7  N   UNL     1       2.144   9.426  17.543  0.00  0.00    +0.000 NA
ATOM      8  N   UNL     1       1.356   9.322  18.634  0.00  0.00    +0.000 N 
ATOM      9  C   UNL     1       1.592   8.167  19.340  0.00  0.00    +0.000 A 
ENDROOT
BRANCH   1  10
ATOM     10  C   UNL     1       1.247   8.741  21.742  0.00  0.00    +0.000 C 
BRANCH  10  11
ATOM     11  O   UNL     1       0.084   9.096  22.491  0.00  0.00    +0.000 OA
BRANCH  11  13
ATOM     12  C   UNL     1      -1.358  10.934  23.118  0.00  0.00    +0.000 C 
ATOM     13  C   UNL     1      -0.029  10.526  22.524  0.00  0.00    +0.000 C 
ENDBRANCH  11  13
ENDBRANCH  10  11
ENDBRANCH   1  10
BRANCH   3  14
ATOM     14  C   UNL     1       1.538   4.418  19.432  0.00  0.00    +0.000 C 
BRANCH  14  15
ATOM     15  C   UNL     1       1.876   4.161  17.930  0.00  0.00    +0.000 C 
BRANCH  15  16
ATOM     16  N   UNL     1       2.635   2.935  17.602  0.00  0.00    +0.000 NA
ATOM     17  C   UNL     1       4.047   3.230  17.351  0.00  0.00    +0.000 C 
ATOM     18  C   UNL     1       2.526   1.992  18.724  0.00  0.00    +0.000 C 
ENDBRANCH  15  16
ENDBRANCH  14  15
ENDBRANCH   3  14
BRANCH   8  19
ATOM     19  C   UNL     1       0.548  10.450  19.053  0.00  0.00    +0.000 C 
BRANCH  19  20
ATOM     20  C   UNL     1      -0.971  10.332  18.945  0.00  0.00    +0.000 C 
ATOM     21  C   UNL     1      -1.696  11.646  19.203  0.00  0.00    +0.000 C 
ATOM     22  C   UNL     1      -3.020  11.492  18.472  0.00  0.00    +0.000 C 
ATOM     23  C   UNL     1      -2.741  10.588  17.277  0.00  0.00    +0.000 C 
ATOM     24  C   UNL     1      -1.371   9.967  17.510  0.00  0.00    +0.000 C 
ENDBRANCH  19  20
ENDBRANCH   8  19
TORSDOF 8
ENDMDL
MODEL 7
REMARK VINA RESULT:      -5.7      1.128      1.964
REMARK  Name = 
REMARK  11 active torsions:
REMARK  status: ('A' for Active; 'I' for Inactive)
REMARK    1  A    between atoms: C_1  and  C_2
REMARK    2  A    between atoms: C_2  and  O_3
REMARK    3  A    between atoms: O_3  and  C_4
REMARK    4  A    between atoms: C_4  and  C_5
REMARK    5  A    between atoms: N_7  and  C_8
REMARK    6  A    between atoms: C_8  and  C_9
REMARK    7  A    between atoms: C_9  and  N_10
REMARK    8  A    between atoms: N_10  and  C_11
REMARK    9  A    between atoms: N_10  and  C_12
REMARK   10  A    between atoms: N_17  and  C_18
REMARK   11  A    between atoms: C_18  and  C_19
REMARK                            x       y       z     vdW  Elec       q    Type
REMARK                         _______ _______ _______ _____ _____    ______ ____
ROOT
ATOM      1  C   UNL     1       5.134   4.633  17.978  0.00  0.00    +0.000 C 
ATOM      2  C   UNL     1       6.145   4.499  16.775  0.00  0.00    +0.000 C 
ATOM      3  N   UNL     1       5.921   5.255  15.517  0.00  0.00    +0.000 NA
ATOM      4  C   UNL     1       5.449   6.637  15.702  0.00  0.00    +0.000 C 
ATOM      5  C   UNL     1       4.407   6.733  16.747  0.00  0.00    +0.000 A 
ATOM      6  C   UNL     1       3.444   7.724  16.998  0.00  0.00    +0.000 A 
ATOM      7  N   UNL     1       2.767   7.501  18.128  0.00  0.00    +0.000 NA
ATOM      8  N   UNL     1       3.278   6.343  18.597  0.00  0.00    +0.000 N 
ATOM      9  C   UNL     1       4.272   5.846  17.789  0.00  0.00    +0.000 A 
ENDROOT
BRANCH   1  10
ATOM     10  C   UNL     1       5.909   4.738  19.309  0.00  0.00    +0.000 C 
BRANCH  10  11
ATOM     11  O   UNL     1       5.489   3.804  20.303  0.00  0.00    +0.000 OA
BRANCH  11  13
ATOM     12  C   UNL     1       4.709   1.529  20.561  0.00  0.00    +0.000 C 
ATOM     13  C   UNL     1       4.759   2.745  19.666  0.00  0.00    +0.000 C 
ENDBRANCH  11  13
ENDBRANCH  10  11
ENDBRANCH   1  10
BRANCH   3  14
ATOM     14  C   UNL     1       5.278   4.476  14.446  0.00  0.00    +0.000 C 
BRANCH  14  15
ATOM     15  C   UNL     1       6.279   3.914  13.388  0.00  0.00    +0.000 C 
BRANCH  15  16
ATOM     16  N   UNL     1       5.767   2.908  12.433  0.00  0.00    +0.000 NA
ATOM     17  C   UNL     1       4.600   3.406  11.702  0.00  0.00    +0.000 C 
ATOM     18  C   UNL     1       6.833   2.572  11.477  0.00  0.00    +0.000 C 
ENDBRANCH  15  16
ENDBRANCH  14  15
ENDBRANCH   3  14
BRANCH   8  19
ATOM     19  C   UNL     1       2.915   5.876  19.920  0.00  0.00    +0.000 C 
BRANCH  19  20
ATOM     20  C   UNL     1       1.708   4.949  20.053  0.00  0.00    +0.000 C 
ATOM     21  C   UNL     1       1.544   4.001  18.872  0.00  0.00    +0.000 C 
ATOM     22  C   UNL     1       0.760   2.829  19.440  0.00  0.00    +0.000 C 
ATOM     23  C   UNL     1       1.157   2.725  20.908  0.00  0.00    +0.000 C 
ATOM     24  C   UNL     1       1.891   4.013  21.254  0.00  0.00    +0.000 C 
ENDBRANCH  19  20
ENDBRANCH   8  19
TORSDOF 8
ENDMDL
MODEL 8
REMARK VINA RESULT:      -5.7      2.283      6.679
REMARK  Name = 
REMARK  11 active torsions:
REMARK  status: ('A' for Active; 'I' for Inactive)
REMARK    1  A    between atoms: C_1  and  C_2
REMARK    2  A    between atoms: C_2  and  O_3
REMARK    3  A    between atoms: O_3  and  C_4
REMARK    4  A    between atoms: C_4  and  C_5
REMARK    5  A    between atoms: N_7  and  C_8
REMARK    6  A    between atoms: C_8  and  C_9
REMARK    7  A    between atoms: C_9  and  N_10
REMARK    8  A    between atoms: N_10  and  C_11
REMARK    9  A    between atoms: N_10  and  C_12
REMARK   10  A    between atoms: N_17  and  C_18
REMARK   11  A    between atoms: C_18  and  C_19
REMARK                            x       y       z     vdW  Elec       q    Type
REMARK                         _______ _______ _______ _____ _____    ______ ____
ROOT
ATOM      1  C   UNL     1       4.857   6.510  17.134  0.00  0.00    +0.000 C 
ATOM      2  C   UNL     1       4.179   7.604  18.045  0.00  0.00    +0.000 C 
ATOM      3  N   UNL     1       2.774   7.442  18.495  0.00  0.00    +0.000 NA
ATOM      4  C   UNL     1       2.407   6.074  18.896  0.00  0.00    +0.000 C 
ATOM      5  C   UNL     1       2.943   5.059  17.962  0.00  0.00    +0.000 A 
ATOM      6  C   UNL     1       2.561   3.727  17.733  0.00  0.00    +0.000 A 
ATOM      7  N   UNL     1       3.388   3.099  16.892  0.00  0.00    +0.000 NA
ATOM      8  N   UNL     1       4.295   4.040  16.555  0.00  0.00    +0.000 N 
ATOM      9  C   UNL     1       4.059   5.240  17.181  0.00  0.00    +0.000 A 
ENDROOT
BRANCH   1  10
ATOM     10  C   UNL     1       6.300   6.245  17.614  0.00  0.00    +0.000 C 
BRANCH  10  11
ATOM     11  O   UNL     1       6.382   5.518  18.840  0.00  0.00    +0.000 OA
BRANCH  11  13
ATOM     12  C   UNL     1       8.296   6.997  18.814  0.00  0.00    +0.000 C 
ATOM     13  C   UNL     1       7.645   5.796  19.461  0.00  0.00    +0.000 C 
ENDBRANCH  11  13
ENDBRANCH  10  11
ENDBRANCH   1  10
BRANCH   3  14
ATOM     14  C   UNL     1       1.788   8.180  17.689  0.00  0.00    +0.000 C 
BRANCH  14  15
ATOM     15  C   UNL     1       1.876   9.730  17.850  0.00  0.00    +0.000 C 
BRANCH  15  16
ATOM     16  N   UNL     1       1.027  10.357  18.887  0.00  0.00    +0.000 NA
ATOM     17  C   UNL     1       1.351  11.775  19.059  0.00  0.00    +0.000 C 
ATOM     18  C   UNL     1      -0.383  10.225  18.493  0.00  0.00    +0.000 C 
ENDBRANCH  15  16
ENDBRANCH  14  15
ENDBRANCH   3  14
BRANCH   8  19
ATOM     19  C   UNL     1       5.471   3.670  15.793  0.00  0.00    +0.000 C 
BRANCH  19  20
ATOM     20  C   UNL     1       5.737   4.394  14.475  0.00  0.00    +0.000 C 
ATOM     21  C   UNL     1       7.169   4.895  14.341  0.00  0.00    +0.000 C 
ATOM     22  C   UNL     1       7.392   4.993  12.841  0.00  0.00    +0.000 C 
ATOM     23  C   UNL     1       6.526   3.908  12.212  0.00  0.00    +0.000 C 
ATOM     24  C   UNL     1       5.574   3.425  13.298  0.00  0.00    +0.000 C 
ENDBRANCH  19  20
ENDBRANCH   8  19
TORSDOF 8
ENDMDL
MODEL 9
REMARK VINA RESULT:      -5.7      2.402      5.362
REMARK  Name = 
REMARK  11 active torsions:
REMARK  status: ('A' for Active; 'I' for Inactive)
REMARK    1  A    between atoms: C_1  and  C_2
REMARK    2  A    between atoms: C_2  and  O_3
REMARK    3  A    between atoms: O_3  and  C_4
REMARK    4  A    between atoms: C_4  and  C_5
REMARK    5  A    between atoms: N_7  and  C_8
REMARK    6  A    between atoms: C_8  and  C_9
REMARK    7  A    between atoms: C_9  and  N_10
REMARK    8  A    between atoms: N_10  and  C_11
REMARK    9  A    between atoms: N_10  and  C_12
REMARK   10  A    between atoms: N_17  and  C_18
REMARK   11  A    between atoms: C_18  and  C_19
REMARK                            x       y       z     vdW  Elec       q    Type
REMARK                         _______ _______ _______ _____ _____    ______ ____
ROOT
ATOM      1  C   UNL     1       5.556   5.367  16.037  0.00  0.00    +0.000 C 
ATOM      2  C   UNL     1       6.883   6.193  15.827  0.00  0.00    +0.000 C 
ATOM      3  N   UNL     1       7.669   6.661  16.996  0.00  0.00    +0.000 NA
ATOM      4  C   UNL     1       7.782   5.689  18.095  0.00  0.00    +0.000 C 
ATOM      5  C   UNL     1       6.498   5.008  18.369  0.00  0.00    +0.000 A 
ATOM      6  C   UNL     1       6.047   4.316  19.505  0.00  0.00    +0.000 A 
ATOM      7  N   UNL     1       4.864   3.728  19.306  0.00  0.00    +0.000 NA
ATOM      8  N   UNL     1       4.536   4.064  18.040  0.00  0.00    +0.000 N 
ATOM      9  C   UNL     1       5.498   4.840  17.440  0.00  0.00    +0.000 A 
ENDROOT
BRANCH   1  10
ATOM     10  C   UNL     1       5.499   4.197  15.030  0.00  0.00    +0.000 C 
BRANCH  10  11
ATOM     11  O   UNL     1       6.576   4.184  14.092  0.00  0.00    +0.000 OA
BRANCH  11  13
ATOM     12  C   UNL     1       7.148   3.776  11.778  0.00  0.00    +0.000 C 
ATOM     13  C   UNL     1       6.117   3.593  12.868  0.00  0.00    +0.000 C 
ENDBRANCH  11  13
ENDBRANCH  10  11
ENDBRANCH   1  10
BRANCH   3  14
ATOM     14  C   UNL     1       7.417   8.061  17.377  0.00  0.00    +0.000 C 
BRANCH  14  15
ATOM     15  C   UNL     1       8.355   8.585  18.509  0.00  0.00    +0.000 C 
BRANCH  15  16
ATOM     16  N   UNL     1       9.011   9.894  18.300  0.00  0.00    +0.000 NA
ATOM     17  C   UNL     1       8.091  10.866  17.708  0.00  0.00    +0.000 C 
ATOM     18  C   UNL     1       9.488  10.401  19.595  0.00  0.00    +0.000 C 
ENDBRANCH  15  16
ENDBRANCH  14  15
ENDBRANCH   3  14
BRANCH   8  19
ATOM     19  C   UNL     1       3.390   3.447  17.402  0.00  0.00    +0.000 C 
BRANCH  19  20
ATOM     20  C   UNL     1       2.031   3.563  18.088  0.00  0.00    +0.000 C 
ATOM     21  C   UNL     1       1.702   2.371  18.977  0.00  0.00    +0.000 C 
ATOM     22  C   UNL     1       0.708   2.921  19.987  0.00  0.00    +0.000 C 
ATOM     23  C   UNL     1       1.067   4.390  20.178  0.00  0.00    +0.000 C 
ATOM     24  C   UNL     1       2.026   4.754  19.053  0.00  0.00    +0.000 C 
ENDBRANCH  19  20
ENDBRANCH   8  19
TORSDOF 8
ENDMDL
