MODEL 1
REMARK VINA RESULT:      -8.4      0.000      0.000
REMARK  Name = 
REMARK  3 active torsions:
REMARK  status: ('A' for Active; 'I' for Inactive)
REMARK    1  A    between atoms: C_2  and  C_18
REMARK    2  A    between atoms: N_3  and  N_4
REMARK    3  A    between atoms: C_21  and  C_22
REMARK                            x       y       z     vdW  Elec       q    Type
REMARK                         _______ _______ _______ _____ _____    ______ ____
ROOT
ATOM      1  O   UNL     1       6.988   4.542  16.780  0.00  0.00    +0.000 OA
ATOM      2  C   UNL     1       6.640   5.252  17.717  0.00  0.00    +0.000 C 
ATOM      3  N   UNL     1       5.687   4.889  18.638  0.00  0.00    +0.000 N 
ATOM      4  H   UNL     1       5.526   5.406  19.493  0.00  0.00    +0.000 HD
ENDROOT
BRANCH   3   5
ATOM      5  N   UNL     1       4.828   3.797  18.399  0.00  0.00    +0.000 N 
ATOM      6  C   UNL     1       4.549   2.967  19.468  0.00  0.00    +0.000 C 
ATOM      7  O   UNL     1       5.196   2.879  20.503  0.00  0.00    +0.000 OA
ATOM      8  C   UNL     1       3.215   2.314  19.237  0.00  0.00    +0.000 C 
ATOM      9  C   UNL     1       2.175   2.506  20.385  0.00  0.00    +0.000 C 
ATOM     10  C   UNL     1       0.880   1.897  19.831  0.00  0.00    +0.000 C 
ATOM     11  C   UNL     1       0.435   2.513  18.714  0.00  0.00    +0.000 C 
ATOM     12  C   UNL     1       1.339   3.656  18.224  0.00  0.00    +0.000 C 
ATOM     13  C   UNL     1       1.416   4.690  19.366  0.00  0.00    +0.000 C 
ATOM     14  C   UNL     1       2.559   5.201  20.235  0.00  0.00    +0.000 C 
ATOM     15  C   UNL     1       1.812   3.980  20.662  0.00  0.00    +0.000 C 
ATOM     16  C   UNL     1       2.696   2.979  17.947  0.00  0.00    +0.000 C 
ATOM     17  C   UNL     1       3.738   3.986  17.574  0.00  0.00    +0.000 C 
ATOM     18  O   UNL     1       3.548   4.885  16.772  0.00  0.00    +0.000 OA
ENDBRANCH   3   5
BRANCH   2  19
ATOM     19  C   UNL     1       7.297   6.576  17.953  0.00  0.00    +0.000 A 
ATOM     20  C   UNL     1       8.267   6.803  18.935  0.00  0.00    +0.000 A 
ATOM     21  C   UNL     1       8.831   8.084  19.090  0.00  0.00    +0.000 A 
ATOM     22  C   UNL     1       8.423   9.145  18.268  0.00  0.00    +0.000 A 
ATOM     23  C   UNL     1       7.435   8.910  17.299  0.00  0.00    +0.000 A 
ATOM     24  C   UNL     1       6.874   7.641  17.148  0.00  0.00    +0.000 A 
BRANCH  22  25
ATOM     25  C   UNL     1       9.008  10.531  18.400  0.00  0.00    +0.000 C 
ATOM     26  F   UNL     1       9.117  10.960  19.688  0.00  0.00    +0.000 F 
ATOM     27  F   UNL     1      10.261  10.617  17.872  0.00  0.00    +0.000 F 
ATOM     28  F   UNL     1       8.266  11.472  17.754  0.00  0.00    +0.000 F 
ENDBRANCH  22  25
ENDBRANCH   2  19
TORSDOF 3
ENDMDL
MODEL 2
REMARK VINA RESULT:      -8.3      4.835      6.195
REMARK  Name = 
REMARK  3 active torsions:
REMARK  status: ('A' for Active; 'I' for Inactive)
REMARK    1  A    between atoms: C_2  and  C_18
REMARK    2  A    between atoms: N_3  and  N_4
REMARK    3  A    between atoms: C_21  and  C_22
REMARK                            x       y       z     vdW  Elec       q    Type
REMARK                         _______ _______ _______ _____ _____    ______ ____
ROOT
ATOM      1  O   UNL     1       2.516   8.384  17.402  0.00  0.00    +0.000 OA
ATOM      2  C   UNL     1       2.218   8.097  18.556  0.00  0.00    +0.000 C 
ATOM      3  N   UNL     1       2.617   6.942  19.184  0.00  0.00    +0.000 N 
ATOM      4  H   UNL     1       2.507   6.792  20.179  0.00  0.00    +0.000 HD
ENDROOT
BRANCH   3   5
ATOM      5  N   UNL     1       3.149   5.864  18.447  0.00  0.00    +0.000 N 
ATOM      6  C   UNL     1       4.267   5.237  18.963  0.00  0.00    +0.000 C 
ATOM      7  O   UNL     1       5.031   5.696  19.803  0.00  0.00    +0.000 OA
ATOM      8  C   UNL     1       4.301   3.821  18.461  0.00  0.00    +0.000 C 
ATOM      9  C   UNL     1       4.391   2.726  19.571  0.00  0.00    +0.000 C 
ATOM     10  C   UNL     1       4.244   1.402  18.811  0.00  0.00    +0.000 C 
ATOM     11  C   UNL     1       3.066   1.286  18.161  0.00  0.00    +0.000 C 
ATOM     12  C   UNL     1       2.153   2.516  18.291  0.00  0.00    +0.000 C 
ATOM     13  C   UNL     1       1.874   2.713  19.795  0.00  0.00    +0.000 C 
ATOM     14  C   UNL     1       2.209   3.825  20.782  0.00  0.00    +0.000 C 
ATOM     15  C   UNL     1       3.202   2.732  20.555  0.00  0.00    +0.000 C 
ATOM     16  C   UNL     1       2.978   3.670  17.687  0.00  0.00    +0.000 C 
ATOM     17  C   UNL     1       2.274   4.982  17.848  0.00  0.00    +0.000 C 
ATOM     18  O   UNL     1       1.090   5.143  17.607  0.00  0.00    +0.000 OA
ENDBRANCH   3   5
BRANCH   2  19
ATOM     19  C   UNL     1       1.425   9.049  19.396  0.00  0.00    +0.000 A 
ATOM     20  C   UNL     1       0.995  10.306  18.958  0.00  0.00    +0.000 A 
ATOM     21  C   UNL     1       0.253  11.140  19.818  0.00  0.00    +0.000 A 
ATOM     22  C   UNL     1      -0.056  10.722  21.120  0.00  0.00    +0.000 A 
ATOM     23  C   UNL     1       0.397   9.467  21.555  0.00  0.00    +0.000 A 
ATOM     24  C   UNL     1       1.134   8.642  20.704  0.00  0.00    +0.000 A 
BRANCH  22  25
ATOM     25  C   UNL     1      -0.853  11.585  22.070  0.00  0.00    +0.000 C 
ATOM     26  F   UNL     1      -0.230  12.748  22.408  0.00  0.00    +0.000 F 
ATOM     27  F   UNL     1      -2.060  11.946  21.551  0.00  0.00    +0.000 F 
ATOM     28  F   UNL     1      -1.127  10.951  23.244  0.00  0.00    +0.000 F 
ENDBRANCH  22  25
ENDBRANCH   2  19
TORSDOF 3
ENDMDL
MODEL 3
REMARK VINA RESULT:      -8.3      4.880      6.185
REMARK  Name = 
REMARK  3 active torsions:
REMARK  status: ('A' for Active; 'I' for Inactive)
REMARK    1  A    between atoms: C_2  and  C_18
REMARK    2  A    between atoms: N_3  and  N_4
REMARK    3  A    between atoms: C_21  and  C_22
REMARK                            x       y       z     vdW  Elec       q    Type
REMARK                         _______ _______ _______ _____ _____    ______ ____
ROOT
ATOM      1  O   UNL     1       3.040   8.290  17.370  0.00  0.00    +0.000 OA
ATOM      2  C   UNL     1       2.322   7.964  18.309  0.00  0.00    +0.000 C 
ATOM      3  N   UNL     1       2.367   6.732  18.914  0.00  0.00    +0.000 N 
ATOM      4  H   UNL     1       1.892   6.530  19.785  0.00  0.00    +0.000 HD
ENDROOT
BRANCH   3   5
ATOM      5  N   UNL     1       3.036   5.650  18.305  0.00  0.00    +0.000 N 
ATOM      6  C   UNL     1       4.161   5.163  18.943  0.00  0.00    +0.000 C 
ATOM      7  O   UNL     1       4.822   5.748  19.791  0.00  0.00    +0.000 OA
ATOM      8  C   UNL     1       4.345   3.720  18.563  0.00  0.00    +0.000 C 
ATOM      9  C   UNL     1       4.442   2.726  19.763  0.00  0.00    +0.000 C 
ATOM     10  C   UNL     1       4.457   1.339  19.106  0.00  0.00    +0.000 C 
ATOM     11  C   UNL     1       3.343   1.073  18.392  0.00  0.00    +0.000 C 
ATOM     12  C   UNL     1       2.327   2.227  18.360  0.00  0.00    +0.000 C 
ATOM     13  C   UNL     1       1.924   2.514  19.821  0.00  0.00    +0.000 C 
ATOM     14  C   UNL     1       2.097   3.723  20.733  0.00  0.00    +0.000 C 
ATOM     15  C   UNL     1       3.188   2.705  20.662  0.00  0.00    +0.000 C 
ATOM     16  C   UNL     1       3.097   3.398  17.718  0.00  0.00    +0.000 C 
ATOM     17  C   UNL     1       2.280   4.652  17.725  0.00  0.00    +0.000 C 
ATOM     18  O   UNL     1       1.108   4.692  17.393  0.00  0.00    +0.000 OA
ENDBRANCH   3   5
BRANCH   2  19
ATOM     19  C   UNL     1       1.362   8.944  18.909  0.00  0.00    +0.000 A 
ATOM     20  C   UNL     1       1.083   9.026  20.277  0.00  0.00    +0.000 A 
ATOM     21  C   UNL     1       0.162   9.978  20.756  0.00  0.00    +0.000 A 
ATOM     22  C   UNL     1      -0.487  10.848  19.867  0.00  0.00    +0.000 A 
ATOM     23  C   UNL     1      -0.213  10.743  18.495  0.00  0.00    +0.000 A 
ATOM     24  C   UNL     1       0.697   9.797  18.021  0.00  0.00    +0.000 A 
BRANCH  22  25
ATOM     25  C   UNL     1      -1.478  11.885  20.342  0.00  0.00    +0.000 C 
ATOM     26  F   UNL     1      -2.673  11.842  19.691  0.00  0.00    +0.000 F 
ATOM     27  F   UNL     1      -1.770  11.753  21.666  0.00  0.00    +0.000 F 
ATOM     28  F   UNL     1      -1.013  13.156  20.189  0.00  0.00    +0.000 F 
ENDBRANCH  22  25
ENDBRANCH   2  19
TORSDOF 3
ENDMDL
MODEL 4
REMARK VINA RESULT:      -8.2      0.221      1.196
REMARK  Name = 
REMARK  3 active torsions:
REMARK  status: ('A' for Active; 'I' for Inactive)
REMARK    1  A    between atoms: C_2  and  C_18
REMARK    2  A    between atoms: N_3  and  N_4
REMARK    3  A    between atoms: C_21  and  C_22
REMARK                            x       y       z     vdW  Elec       q    Type
REMARK                         _______ _______ _______ _____ _____    ______ ____
ROOT
ATOM      1  O   UNL     1       7.114   4.583  16.825  0.00  0.00    +0.000 OA
ATOM      2  C   UNL     1       6.695   5.327  17.705  0.00  0.00    +0.000 C 
ATOM      3  N   UNL     1       5.706   4.980  18.593  0.00  0.00    +0.000 N 
ATOM      4  H   UNL     1       5.485   5.534  19.411  0.00  0.00    +0.000 HD
ENDROOT
BRANCH   3   5
ATOM      5  N   UNL     1       4.896   3.849  18.369  0.00  0.00    +0.000 N 
ATOM      6  C   UNL     1       4.613   3.047  19.458  0.00  0.00    +0.000 C 
ATOM      7  O   UNL     1       5.230   3.020  20.515  0.00  0.00    +0.000 OA
ATOM      8  C   UNL     1       3.311   2.337  19.211  0.00  0.00    +0.000 C 
ATOM      9  C   UNL     1       2.229   2.530  20.319  0.00  0.00    +0.000 C 
ATOM     10  C   UNL     1       0.976   1.854  19.748  0.00  0.00    +0.000 C 
ATOM     11  C   UNL     1       0.544   2.412  18.597  0.00  0.00    +0.000 C 
ATOM     12  C   UNL     1       1.421   3.571  18.093  0.00  0.00    +0.000 C 
ATOM     13  C   UNL     1       1.425   4.647  19.198  0.00  0.00    +0.000 C 
ATOM     14  C   UNL     1       2.520   5.231  20.082  0.00  0.00    +0.000 C 
ATOM     15  C   UNL     1       1.804   3.998  20.531  0.00  0.00    +0.000 C 
ATOM     16  C   UNL     1       2.810   2.936  17.882  0.00  0.00    +0.000 C 
ATOM     17  C   UNL     1       3.826   3.968  17.505  0.00  0.00    +0.000 C 
ATOM     18  O   UNL     1       3.629   4.829  16.665  0.00  0.00    +0.000 OA
ENDBRANCH   3   5
BRANCH   2  19
ATOM     19  C   UNL     1       7.296   6.683  17.904  0.00  0.00    +0.000 A 
ATOM     20  C   UNL     1       6.994   7.796  17.112  0.00  0.00    +0.000 A 
ATOM     21  C   UNL     1       7.610   9.037  17.370  0.00  0.00    +0.000 A 
ATOM     22  C   UNL     1       8.535   9.167  18.416  0.00  0.00    +0.000 A 
ATOM     23  C   UNL     1       8.845   8.039  19.191  0.00  0.00    +0.000 A 
ATOM     24  C   UNL     1       8.236   6.810  18.934  0.00  0.00    +0.000 A 
BRANCH  22  25
ATOM     25  C   UNL     1       9.213  10.481  18.726  0.00  0.00    +0.000 C 
ATOM     26  F   UNL     1      10.495  10.557  18.275  0.00  0.00    +0.000 F 
ATOM     27  F   UNL     1       8.561  11.543  18.174  0.00  0.00    +0.000 F 
ATOM     28  F   UNL     1       9.271  10.734  20.063  0.00  0.00    +0.000 F 
ENDBRANCH  22  25
ENDBRANCH   2  19
TORSDOF 3
ENDMDL
MODEL 5
REMARK VINA RESULT:      -7.8      4.134      5.291
REMARK  Name = 
REMARK  3 active torsions:
REMARK  status: ('A' for Active; 'I' for Inactive)
REMARK    1  A    between atoms: C_2  and  C_18
REMARK    2  A    between atoms: N_3  and  N_4
REMARK    3  A    between atoms: C_21  and  C_22
REMARK                            x       y       z     vdW  Elec       q    Type
REMARK                         _______ _______ _______ _____ _____    ______ ____
ROOT
ATOM      1  O   UNL     1       6.810   5.312  17.977  0.00  0.00    +0.000 OA
ATOM      2  C   UNL     1       5.926   5.005  17.185  0.00  0.00    +0.000 C 
ATOM      3  N   UNL     1       4.598   4.906  17.523  0.00  0.00    +0.000 N 
ATOM      4  H   UNL     1       3.862   4.815  16.835  0.00  0.00    +0.000 HD
ENDROOT
BRANCH   3   5
ATOM      5  N   UNL     1       4.196   4.863  18.874  0.00  0.00    +0.000 N 
ATOM      6  C   UNL     1       2.956   5.388  19.182  0.00  0.00    +0.000 C 
ATOM      7  O   UNL     1       2.307   6.163  18.491  0.00  0.00    +0.000 OA
ATOM      8  C   UNL     1       2.441   4.716  20.424  0.00  0.00    +0.000 C 
ATOM      9  C   UNL     1       1.032   4.057  20.286  0.00  0.00    +0.000 C 
ATOM     10  C   UNL     1       0.827   3.318  21.615  0.00  0.00    +0.000 C 
ATOM     11  C   UNL     1       1.750   2.359  21.842  0.00  0.00    +0.000 C 
ATOM     12  C   UNL     1       2.822   2.247  20.744  0.00  0.00    +0.000 C 
ATOM     13  C   UNL     1       2.085   1.928  19.427  0.00  0.00    +0.000 C 
ATOM     14  C   UNL     1       1.927   2.680  18.111  0.00  0.00    +0.000 C 
ATOM     15  C   UNL     1       0.962   2.945  19.219  0.00  0.00    +0.000 C 
ATOM     16  C   UNL     1       3.495   3.633  20.723  0.00  0.00    +0.000 C 
ATOM     17  C   UNL     1       4.493   3.735  19.612  0.00  0.00    +0.000 C 
ATOM     18  O   UNL     1       5.314   2.868  19.364  0.00  0.00    +0.000 OA
ENDBRANCH   3   5
BRANCH   2  19
ATOM     19  C   UNL     1       6.245   4.767  15.743  0.00  0.00    +0.000 A 
ATOM     20  C   UNL     1       7.369   5.290  15.094  0.00  0.00    +0.000 A 
ATOM     21  C   UNL     1       7.591   5.018  13.730  0.00  0.00    +0.000 A 
ATOM     22  C   UNL     1       6.686   4.225  13.008  0.00  0.00    +0.000 A 
ATOM     23  C   UNL     1       5.553   3.722  13.664  0.00  0.00    +0.000 A 
ATOM     24  C   UNL     1       5.331   3.995  15.015  0.00  0.00    +0.000 A 
BRANCH  22  25
ATOM     25  C   UNL     1       6.892   3.907  11.546  0.00  0.00    +0.000 C 
ATOM     26  F   UNL     1       7.681   2.819  11.326  0.00  0.00    +0.000 F 
ATOM     27  F   UNL     1       5.718   3.651  10.902  0.00  0.00    +0.000 F 
ATOM     28  F   UNL     1       7.472   4.934  10.867  0.00  0.00    +0.000 F 
ENDBRANCH  22  25
ENDBRANCH   2  19
TORSDOF 3
ENDMDL
MODEL 6
REMARK VINA RESULT:      -7.7      1.396      1.942
REMARK  Name = 
REMARK  3 active torsions:
REMARK  status: ('A' for Active; 'I' for Inactive)
REMARK    1  A    between atoms: C_2  and  C_18
REMARK    2  A    between atoms: N_3  and  N_4
REMARK    3  A    between atoms: C_21  and  C_22
REMARK                            x       y       z     vdW  Elec       q    Type
REMARK                         _______ _______ _______ _____ _____    ______ ____
ROOT
ATOM      1  O   UNL     1       6.134   6.575  15.768  0.00  0.00    +0.000 OA
ATOM      2  C   UNL     1       6.113   6.793  16.974  0.00  0.00    +0.000 C 
ATOM      3  N   UNL     1       5.261   6.165  17.849  0.00  0.00    +0.000 N 
ATOM      4  H   UNL     1       5.361   6.229  18.855  0.00  0.00    +0.000 HD
ENDROOT
BRANCH   3   5
ATOM      5  N   UNL     1       4.147   5.439  17.380  0.00  0.00    +0.000 N 
ATOM      6  C   UNL     1       4.331   4.094  17.123  0.00  0.00    +0.000 C 
ATOM      7  O   UNL     1       5.404   3.531  16.950  0.00  0.00    +0.000 OA
ATOM      8  C   UNL     1       3.011   3.389  17.268  0.00  0.00    +0.000 C 
ATOM      9  C   UNL     1       3.006   2.188  18.264  0.00  0.00    +0.000 C 
ATOM     10  C   UNL     1       1.533   1.767  18.345  0.00  0.00    +0.000 C 
ATOM     11  C   UNL     1       0.723   2.741  18.812  0.00  0.00    +0.000 C 
ATOM     12  C   UNL     1       1.444   4.063  19.121  0.00  0.00    +0.000 C 
ATOM     13  C   UNL     1       2.516   3.753  20.186  0.00  0.00    +0.000 C 
ATOM     14  C   UNL     1       4.038   3.824  20.186  0.00  0.00    +0.000 C 
ATOM     15  C   UNL     1       3.369   2.574  19.713  0.00  0.00    +0.000 C 
ATOM     16  C   UNL     1       2.057   4.489  17.772  0.00  0.00    +0.000 C 
ATOM     17  C   UNL     1       2.908   5.711  17.926  0.00  0.00    +0.000 C 
ATOM     18  O   UNL     1       2.564   6.695  18.557  0.00  0.00    +0.000 OA
ENDBRANCH   3   5
BRANCH   2  19
ATOM     19  C   UNL     1       7.085   7.748  17.592  0.00  0.00    +0.000 A 
ATOM     20  C   UNL     1       8.073   7.373  18.508  0.00  0.00    +0.000 A 
ATOM     21  C   UNL     1       8.947   8.340  19.044  0.00  0.00    +0.000 A 
ATOM     22  C   UNL     1       8.832   9.687  18.669  0.00  0.00    +0.000 A 
ATOM     23  C   UNL     1       7.824  10.054  17.764  0.00  0.00    +0.000 A 
ATOM     24  C   UNL     1       6.957   9.096  17.236  0.00  0.00    +0.000 A 
BRANCH  22  25
ATOM     25  C   UNL     1       9.752  10.752  19.217  0.00  0.00    +0.000 C 
ATOM     26  F   UNL     1       9.320  12.022  18.987  0.00  0.00    +0.000 F 
ATOM     27  F   UNL     1       9.912  10.652  20.567  0.00  0.00    +0.000 F 
ATOM     28  F   UNL     1      11.004  10.680  18.688  0.00  0.00    +0.000 F 
ENDBRANCH  22  25
ENDBRANCH   2  19
TORSDOF 3
ENDMDL
MODEL 7
REMARK VINA RESULT:      -7.6      6.347      7.874
REMARK  Name = 
REMARK  3 active torsions:
REMARK  status: ('A' for Active; 'I' for Inactive)
REMARK    1  A    between atoms: C_2  and  C_18
REMARK    2  A    between atoms: N_3  and  N_4
REMARK    3  A    between atoms: C_21  and  C_22
REMARK                            x       y       z     vdW  Elec       q    Type
REMARK                         _______ _______ _______ _____ _____    ______ ____
ROOT
ATOM      1  O   UNL     1       1.347   7.088  20.851  0.00  0.00    +0.000 OA
ATOM      2  C   UNL     1       1.833   7.657  19.879  0.00  0.00    +0.000 C 
ATOM      3  N   UNL     1       1.523   8.944  19.513  0.00  0.00    +0.000 N 
ATOM      4  H   UNL     1       2.046   9.458  18.815  0.00  0.00    +0.000 HD
ENDROOT
BRANCH   3   5
ATOM      5  N   UNL     1       0.401   9.602  20.058  0.00  0.00    +0.000 N 
ATOM      6  C   UNL     1       0.594  10.326  21.219  0.00  0.00    +0.000 C 
ATOM      7  O   UNL     1       1.532  10.209  21.996  0.00  0.00    +0.000 OA
ATOM      8  C   UNL     1      -0.442  11.413  21.288  0.00  0.00    +0.000 C 
ATOM      9  C   UNL     1       0.124  12.858  21.463  0.00  0.00    +0.000 C 
ATOM     10  C   UNL     1      -1.106  13.765  21.338  0.00  0.00    +0.000 C 
ATOM     11  C   UNL     1      -1.724  13.667  20.141  0.00  0.00    +0.000 C 
ATOM     12  C   UNL     1      -1.085  12.644  19.187  0.00  0.00    +0.000 C 
ATOM     13  C   UNL     1       0.374  13.089  18.959  0.00  0.00    +0.000 C 
ATOM     14  C   UNL     1       1.721  12.458  19.290  0.00  0.00    +0.000 C 
ATOM     15  C   UNL     1       1.048  13.312  20.314  0.00  0.00    +0.000 C 
ATOM     16  C   UNL     1      -1.183  11.304  19.942  0.00  0.00    +0.000 C 
ATOM     17  C   UNL     1      -0.488  10.209  19.195  0.00  0.00    +0.000 C 
ATOM     18  O   UNL     1      -0.619  10.024  17.996  0.00  0.00    +0.000 OA
ENDBRANCH   3   5
BRANCH   2  19
ATOM     19  C   UNL     1       2.870   6.978  19.039  0.00  0.00    +0.000 A 
ATOM     20  C   UNL     1       3.346   7.485  17.826  0.00  0.00    +0.000 A 
ATOM     21  C   UNL     1       4.323   6.778  17.097  0.00  0.00    +0.000 A 
ATOM     22  C   UNL     1       4.823   5.559  17.578  0.00  0.00    +0.000 A 
ATOM     23  C   UNL     1       4.323   5.051  18.787  0.00  0.00    +0.000 A 
ATOM     24  C   UNL     1       3.353   5.750  19.507  0.00  0.00    +0.000 A 
BRANCH  22  25
ATOM     25  C   UNL     1       5.873   4.773  16.829  0.00  0.00    +0.000 C 
ATOM     26  F   UNL     1       6.464   5.470  15.820  0.00  0.00    +0.000 F 
ATOM     27  F   UNL     1       6.888   4.361  17.640  0.00  0.00    +0.000 F 
ATOM     28  F   UNL     1       5.370   3.644  16.259  0.00  0.00    +0.000 F 
ENDBRANCH  22  25
ENDBRANCH   2  19
TORSDOF 3
ENDMDL
MODEL 8
REMARK VINA RESULT:      -7.6      4.995      6.374
REMARK  Name = 
REMARK  3 active torsions:
REMARK  status: ('A' for Active; 'I' for Inactive)
REMARK    1  A    between atoms: C_2  and  C_18
REMARK    2  A    between atoms: N_3  and  N_4
REMARK    3  A    between atoms: C_21  and  C_22
REMARK                            x       y       z     vdW  Elec       q    Type
REMARK                         _______ _______ _______ _____ _____    ______ ____
ROOT
ATOM      1  O   UNL     1       1.970   7.781  21.775  0.00  0.00    +0.000 OA
ATOM      2  C   UNL     1       1.678   7.939  20.595  0.00  0.00    +0.000 C 
ATOM      3  N   UNL     1       1.943   7.017  19.612  0.00  0.00    +0.000 N 
ATOM      4  H   UNL     1       1.555   7.082  18.679  0.00  0.00    +0.000 HD
ENDROOT
BRANCH   3   5
ATOM      5  N   UNL     1       2.837   5.951  19.841  0.00  0.00    +0.000 N 
ATOM      6  C   UNL     1       2.316   4.797  20.395  0.00  0.00    +0.000 C 
ATOM      7  O   UNL     1       1.254   4.700  20.997  0.00  0.00    +0.000 OA
ATOM      8  C   UNL     1       3.175   3.634  19.985  0.00  0.00    +0.000 C 
ATOM      9  C   UNL     1       2.416   2.463  19.285  0.00  0.00    +0.000 C 
ATOM     10  C   UNL     1       3.528   1.507  18.834  0.00  0.00    +0.000 C 
ATOM     11  C   UNL     1       4.393   2.066  17.961  0.00  0.00    +0.000 C 
ATOM     12  C   UNL     1       4.099   3.542  17.644  0.00  0.00    +0.000 C 
ATOM     13  C   UNL     1       2.679   3.600  17.044  0.00  0.00    +0.000 C 
ATOM     14  C   UNL     1       1.379   4.247  17.504  0.00  0.00    +0.000 C 
ATOM     15  C   UNL     1       1.710   2.868  17.975  0.00  0.00    +0.000 C 
ATOM     16  C   UNL     1       4.194   4.252  19.009  0.00  0.00    +0.000 C 
ATOM     17  C   UNL     1       3.810   5.694  18.897  0.00  0.00    +0.000 C 
ATOM     18  O   UNL     1       4.214   6.431  18.013  0.00  0.00    +0.000 OA
ENDBRANCH   3   5
BRANCH   2  19
ATOM     19  C   UNL     1       0.939   9.163  20.151  0.00  0.00    +0.000 A 
ATOM     20  C   UNL     1       0.073   9.894  20.971  0.00  0.00    +0.000 A 
ATOM     21  C   UNL     1      -0.585  11.034  20.469  0.00  0.00    +0.000 A 
ATOM     22  C   UNL     1      -0.383  11.444  19.143  0.00  0.00    +0.000 A 
ATOM     23  C   UNL     1       0.472  10.692  18.324  0.00  0.00    +0.000 A 
ATOM     24  C   UNL     1       1.122   9.561  18.821  0.00  0.00    +0.000 A 
BRANCH  22  25
ATOM     25  C   UNL     1      -1.067  12.663  18.570  0.00  0.00    +0.000 C 
ATOM     26  F   UNL     1      -1.767  13.383  19.489  0.00  0.00    +0.000 F 
ATOM     27  F   UNL     1      -0.183  13.535  18.008  0.00  0.00    +0.000 F 
ATOM     28  F   UNL     1      -1.954  12.347  17.586  0.00  0.00    +0.000 F 
ENDBRANCH  22  25
ENDBRANCH   2  19
TORSDOF 3
ENDMDL
MODEL 9
REMARK VINA RESULT:      -7.6      6.377      7.887
REMARK  Name = 
REMARK  3 active torsions:
REMARK  status: ('A' for Active; 'I' for Inactive)
REMARK    1  A    between atoms: C_2  and  C_18
REMARK    2  A    between atoms: N_3  and  N_4
REMARK    3  A    between atoms: C_21  and  C_22
REMARK                            x       y       z     vdW  Elec       q    Type
REMARK                         _______ _______ _______ _____ _____    ______ ____
ROOT
ATOM      1  O   UNL     1       1.250   7.123  20.957  0.00  0.00    +0.000 OA
ATOM      2  C   UNL     1       1.712   7.678  19.965  0.00  0.00    +0.000 C 
ATOM      3  N   UNL     1       1.409   8.966  19.599  0.00  0.00    +0.000 N 
ATOM      4  H   UNL     1       1.916   9.467  18.881  0.00  0.00    +0.000 HD
ENDROOT
BRANCH   3   5
ATOM      5  N   UNL     1       0.314   9.644  20.175  0.00  0.00    +0.000 N 
ATOM      6  C   UNL     1       0.556  10.381  21.317  0.00  0.00    +0.000 C 
ATOM      7  O   UNL     1       1.521  10.264  22.063  0.00  0.00    +0.000 OA
ATOM      8  C   UNL     1      -0.464  11.481  21.408  0.00  0.00    +0.000 C 
ATOM      9  C   UNL     1       0.124  12.922  21.543  0.00  0.00    +0.000 C 
ATOM     10  C   UNL     1      -1.101  13.841  21.449  0.00  0.00    +0.000 C 
ATOM     11  C   UNL     1      -1.762  13.735  20.277  0.00  0.00    +0.000 C 
ATOM     12  C   UNL     1      -1.169  12.691  19.315  0.00  0.00    +0.000 C 
ATOM     13  C   UNL     1       0.286  13.117  19.029  0.00  0.00    +0.000 C 
ATOM     14  C   UNL     1       1.637  12.474  19.320  0.00  0.00    +0.000 C 
ATOM     15  C   UNL     1       1.011  13.350  20.356  0.00  0.00    +0.000 C 
ATOM     16  C   UNL     1      -1.255  11.362  20.091  0.00  0.00    +0.000 C 
ATOM     17  C   UNL     1      -0.599  10.250  19.335  0.00  0.00    +0.000 C 
ATOM     18  O   UNL     1      -0.775  10.050  18.145  0.00  0.00    +0.000 OA
ENDBRANCH   3   5
BRANCH   2  19
ATOM     19  C   UNL     1       2.712   6.978  19.098  0.00  0.00    +0.000 A 
ATOM     20  C   UNL     1       3.211   5.698  19.359  0.00  0.00    +0.000 A 
ATOM     21  C   UNL     1       4.154   5.115  18.489  0.00  0.00    +0.000 A 
ATOM     22  C   UNL     1       4.604   5.812  17.359  0.00  0.00    +0.000 A 
ATOM     23  C   UNL     1       4.110   7.103  17.118  0.00  0.00    +0.000 A 
ATOM     24  C   UNL     1       3.178   7.682  17.982  0.00  0.00    +0.000 A 
BRANCH  22  25
ATOM     25  C   UNL     1       5.610   5.220  16.400  0.00  0.00    +0.000 C 
ATOM     26  F   UNL     1       5.773   3.875  16.538  0.00  0.00    +0.000 F 
ATOM     27  F   UNL     1       5.265   5.422  15.098  0.00  0.00    +0.000 F 
ATOM     28  F   UNL     1       6.850   5.764  16.546  0.00  0.00    +0.000 F 
ENDBRANCH  22  25
ENDBRANCH   2  19
TORSDOF 3
ENDMDL
