MODEL 1
REMARK VINA RESULT:      -9.7      0.000      0.000
REMARK  Name = 
REMARK  8 active torsions:
REMARK  status: ('A' for Active; 'I' for Inactive)
REMARK    1  A    between atoms: C_1  and  C_2
REMARK    2  A    between atoms: N_4  and  C_5
REMARK    3  A    between atoms: C_7  and  C_8
REMARK    4  A    between atoms: N_10  and  C_11
REMARK    5  A    between atoms: C_15  and  C_16
REMARK    6  A    between atoms: C_20  and  C_21
REMARK    7  A    between atoms: C_27  and  C_28
REMARK    8  A    between atoms: C_35  and  C_36
REMARK                            x       y       z     vdW  Elec       q    Type
REMARK                         _______ _______ _______ _____ _____    ______ ____
ROOT
ATOM      1  C   UNL     1       0.277  10.420  19.268  0.00  0.00    +0.000 A 
ATOM      2  C   UNL     1      -1.116  10.333  19.219  0.00  0.00    +0.000 A 
ATOM      3  C   UNL     1      -1.898  11.478  19.159  0.00  0.00    +0.000 A 
ATOM      4  C   UNL     1      -1.288  12.725  19.133  0.00  0.00    +0.000 A 
ATOM      5  C   UNL     1       0.114  12.859  19.135  0.00  0.00    +0.000 A 
ATOM      6  C   UNL     1       0.884  11.686  19.255  0.00  0.00    +0.000 A 
ENDROOT
BRANCH   5   7
ATOM      7  C   UNL     1       0.725  14.188  18.915  0.00  0.00    +0.000 A 
ATOM      8  C   UNL     1      -0.027  15.360  18.758  0.00  0.00    +0.000 A 
ATOM      9  C   UNL     1       0.607  16.589  18.560  0.00  0.00    +0.000 A 
ATOM     10  C   UNL     1       1.999  16.664  18.520  0.00  0.00    +0.000 A 
ATOM     11  C   UNL     1       2.786  15.520  18.685  0.00  0.00    +0.000 A 
ATOM     12  C   UNL     1       2.134  14.301  18.888  0.00  0.00    +0.000 A 
BRANCH  11  13
ATOM     13  C   UNL     1       4.248  15.622  18.624  0.00  0.00    +0.000 A 
ATOM     14  N   UNL     1       4.956  16.592  19.169  0.00  0.00    +0.000 NA
ATOM     15  C   UNL     1       6.247  16.389  18.767  0.00  0.00    +0.000 A 
ATOM     16  C   UNL     1       7.355  17.229  18.910  0.00  0.00    +0.000 A 
ATOM     17  C   UNL     1       8.562  16.832  18.336  0.00  0.00    +0.000 A 
ATOM     18  C   UNL     1       8.710  15.546  17.814  0.00  0.00    +0.000 A 
ATOM     19  C   UNL     1       7.648  14.623  17.778  0.00  0.00    +0.000 A 
ATOM     20  C   UNL     1       7.944  13.166  17.590  0.00  0.00    +0.000 C 
ATOM     21  C   UNL     1       6.387  15.164  18.130  0.00  0.00    +0.000 A 
ATOM     22  N   UNL     1       5.088  14.762  17.939  0.00  0.00    +0.000 N 
ATOM     23  H   UNL     1       4.794  14.068  17.269  0.00  0.00    +0.000 HD
ENDBRANCH  11  13
ENDBRANCH   5   7
BRANCH   1  26
ATOM     24  C   UNL     1       1.871   8.804  18.256  0.00  0.00    +0.000 C 
ATOM     25  O   UNL     1       1.980   9.337  17.157  0.00  0.00    +0.000 OA
ATOM     26  N   UNL     1       1.108   9.278  19.316  0.00  0.00    +0.000 N 
ATOM     27  H   UNL     1       1.173   8.816  20.214  0.00  0.00    +0.000 HD
BRANCH  24  30
ATOM     28  C   UNL     1       3.065   5.446  19.614  0.00  0.00    +0.000 A 
ATOM     29  C   UNL     1       2.312   6.608  19.455  0.00  0.00    +0.000 A 
ATOM     30  C   UNL     1       2.635   7.545  18.468  0.00  0.00    +0.000 A 
ATOM     31  C   UNL     1       3.751   7.334  17.653  0.00  0.00    +0.000 A 
ATOM     32  C   UNL     1       4.533   6.194  17.825  0.00  0.00    +0.000 A 
ATOM     33  C   UNL     1       4.203   5.240  18.798  0.00  0.00    +0.000 A 
ATOM     34  C   UNL     1       5.086   4.041  18.924  0.00  0.00    +0.000 C 
BRANCH  28  38
ATOM     35  C   UNL     1       1.603   2.693  21.745  0.00  0.00    +0.000 C 
ATOM     36  C   UNL     1       1.696   3.560  20.511  0.00  0.00    +0.000 C 
ATOM     37  O   UNL     1       0.901   3.409  19.586  0.00  0.00    +0.000 OA
ATOM     38  N   UNL     1       2.726   4.473  20.587  0.00  0.00    +0.000 N 
ATOM     39  H   UNL     1       3.366   4.372  21.366  0.00  0.00    +0.000 HD
ENDBRANCH  28  38
ENDBRANCH  24  30
ENDBRANCH   1  26
TORSDOF 5
ENDMDL
MODEL 2
REMARK VINA RESULT:      -9.6      0.615      1.428
REMARK  Name = 
REMARK  8 active torsions:
REMARK  status: ('A' for Active; 'I' for Inactive)
REMARK    1  A    between atoms: C_1  and  C_2
REMARK    2  A    between atoms: N_4  and  C_5
REMARK    3  A    between atoms: C_7  and  C_8
REMARK    4  A    between atoms: N_10  and  C_11
REMARK    5  A    between atoms: C_15  and  C_16
REMARK    6  A    between atoms: C_20  and  C_21
REMARK    7  A    between atoms: C_27  and  C_28
REMARK    8  A    between atoms: C_35  and  C_36
REMARK                            x       y       z     vdW  Elec       q    Type
REMARK                         _______ _______ _______ _____ _____    ______ ____
ROOT
ATOM      1  C   UNL     1       0.547  10.490  19.111  0.00  0.00    +0.000 A 
ATOM      2  C   UNL     1      -0.845  10.518  18.991  0.00  0.00    +0.000 A 
ATOM      3  C   UNL     1      -1.527  11.723  18.896  0.00  0.00    +0.000 A 
ATOM      4  C   UNL     1      -0.816  12.915  18.905  0.00  0.00    +0.000 A 
ATOM      5  C   UNL     1       0.591  12.934  18.979  0.00  0.00    +0.000 A 
ATOM      6  C   UNL     1       1.255  11.702  19.134  0.00  0.00    +0.000 A 
ENDROOT
BRANCH   5   7
ATOM      7  C   UNL     1       1.319  14.208  18.794  0.00  0.00    +0.000 A 
ATOM      8  C   UNL     1       0.683  15.456  18.766  0.00  0.00    +0.000 A 
ATOM      9  C   UNL     1       1.426  16.628  18.596  0.00  0.00    +0.000 A 
ATOM     10  C   UNL     1       2.812  16.568  18.455  0.00  0.00    +0.000 A 
ATOM     11  C   UNL     1       3.486  15.343  18.491  0.00  0.00    +0.000 A 
ATOM     12  C   UNL     1       2.727  14.183  18.668  0.00  0.00    +0.000 A 
BRANCH  11  13
ATOM     13  C   UNL     1       4.943  15.305  18.325  0.00  0.00    +0.000 A 
ATOM     14  N   UNL     1       5.612  14.294  17.803  0.00  0.00    +0.000 NA
ATOM     15  C   UNL     1       6.936  14.599  17.959  0.00  0.00    +0.000 A 
ATOM     16  C   UNL     1       8.055  13.788  17.748  0.00  0.00    +0.000 A 
ATOM     17  C   UNL     1       9.311  14.305  18.060  0.00  0.00    +0.000 A 
ATOM     18  C   UNL     1       9.464  15.656  18.377  0.00  0.00    +0.000 A 
ATOM     19  C   UNL     1       8.369  16.535  18.464  0.00  0.00    +0.000 A 
ATOM     20  C   UNL     1       8.605  18.014  18.409  0.00  0.00    +0.000 C 
ATOM     21  C   UNL     1       7.102  15.905  18.398  0.00  0.00    +0.000 A 
ATOM     22  N   UNL     1       5.828  16.282  18.744  0.00  0.00    +0.000 N 
ATOM     23  H   UNL     1       5.603  17.051  19.356  0.00  0.00    +0.000 HD
ENDBRANCH  11  13
ENDBRANCH   5   7
BRANCH   1  26
ATOM     24  C   UNL     1       2.055   8.750  18.177  0.00  0.00    +0.000 C 
ATOM     25  O   UNL     1       2.265   9.272  17.088  0.00  0.00    +0.000 OA
ATOM     26  N   UNL     1       1.278   9.284  19.198  0.00  0.00    +0.000 N 
ATOM     27  H   UNL     1       1.258   8.818  20.096  0.00  0.00    +0.000 HD
BRANCH  24  30
ATOM     28  C   UNL     1       2.945   5.337  19.629  0.00  0.00    +0.000 A 
ATOM     29  C   UNL     1       2.300   6.558  19.440  0.00  0.00    +0.000 A 
ATOM     30  C   UNL     1       2.700   7.432  18.423  0.00  0.00    +0.000 A 
ATOM     31  C   UNL     1       3.786   7.095  17.609  0.00  0.00    +0.000 A 
ATOM     32  C   UNL     1       4.461   5.893  17.812  0.00  0.00    +0.000 A 
ATOM     33  C   UNL     1       4.052   5.002  18.814  0.00  0.00    +0.000 A 
ATOM     34  C   UNL     1       4.822   3.731  18.972  0.00  0.00    +0.000 C 
BRANCH  28  38
ATOM     35  C   UNL     1       1.341   2.688  21.790  0.00  0.00    +0.000 C 
ATOM     36  C   UNL     1       1.556   3.455  20.507  0.00  0.00    +0.000 C 
ATOM     37  O   UNL     1       0.898   3.185  19.505  0.00  0.00    +0.000 OA
ATOM     38  N   UNL     1       2.525   4.428  20.633  0.00  0.00    +0.000 N 
ATOM     39  H   UNL     1       3.059   4.428  21.493  0.00  0.00    +0.000 HD
ENDBRANCH  28  38
ENDBRANCH  24  30
ENDBRANCH   1  26
TORSDOF 5
ENDMDL
MODEL 3
REMARK VINA RESULT:      -9.5      1.686      1.940
REMARK  Name = 
REMARK  8 active torsions:
REMARK  status: ('A' for Active; 'I' for Inactive)
REMARK    1  A    between atoms: C_1  and  C_2
REMARK    2  A    between atoms: N_4  and  C_5
REMARK    3  A    between atoms: C_7  and  C_8
REMARK    4  A    between atoms: N_10  and  C_11
REMARK    5  A    between atoms: C_15  and  C_16
REMARK    6  A    between atoms: C_20  and  C_21
REMARK    7  A    between atoms: C_27  and  C_28
REMARK    8  A    between atoms: C_35  and  C_36
REMARK                            x       y       z     vdW  Elec       q    Type
REMARK                         _______ _______ _______ _____ _____    ______ ____
ROOT
ATOM      1  C   UNL     1       1.325  10.233  18.151  0.00  0.00    +0.000 A 
ATOM      2  C   UNL     1      -0.039  10.196  18.454  0.00  0.00    +0.000 A 
ATOM      3  C   UNL     1      -0.703  11.336  18.883  0.00  0.00    +0.000 A 
ATOM      4  C   UNL     1      -0.008  12.532  18.998  0.00  0.00    +0.000 A 
ATOM      5  C   UNL     1       1.356  12.627  18.661  0.00  0.00    +0.000 A 
ATOM      6  C   UNL     1       2.022  11.444  18.285  0.00  0.00    +0.000 A 
ENDROOT
BRANCH   5   7
ATOM      7  C   UNL     1       2.011  13.952  18.615  0.00  0.00    +0.000 A 
ATOM      8  C   UNL     1       1.300  15.159  18.655  0.00  0.00    +0.000 A 
ATOM      9  C   UNL     1       1.975  16.382  18.616  0.00  0.00    +0.000 A 
ATOM     10  C   UNL     1       3.367  16.416  18.540  0.00  0.00    +0.000 A 
ATOM     11  C   UNL     1       4.114  15.233  18.511  0.00  0.00    +0.000 A 
ATOM     12  C   UNL     1       3.422  14.020  18.557  0.00  0.00    +0.000 A 
BRANCH  11  13
ATOM     13  C   UNL     1       5.576  15.294  18.414  0.00  0.00    +0.000 A 
ATOM     14  N   UNL     1       6.303  16.358  18.697  0.00  0.00    +0.000 NA
ATOM     15  C   UNL     1       7.587  16.041  18.348  0.00  0.00    +0.000 A 
ATOM     16  C   UNL     1       8.707  16.873  18.269  0.00  0.00    +0.000 A 
ATOM     17  C   UNL     1       9.902  16.328  17.802  0.00  0.00    +0.000 A 
ATOM     18  C   UNL     1      10.027  14.950  17.614  0.00  0.00    +0.000 A 
ATOM     19  C   UNL     1       8.953  14.064  17.817  0.00  0.00    +0.000 A 
ATOM     20  C   UNL     1       9.227  12.601  17.993  0.00  0.00    +0.000 C 
ATOM     21  C   UNL     1       7.703  14.694  18.033  0.00  0.00    +0.000 A 
ATOM     22  N   UNL     1       6.397  14.278  17.958  0.00  0.00    +0.000 N 
ATOM     23  H   UNL     1       6.087  13.445  17.483  0.00  0.00    +0.000 HD
ENDBRANCH  11  13
ENDBRANCH   5   7
BRANCH   1  26
ATOM     24  C   UNL     1       2.394   8.016  18.493  0.00  0.00    +0.000 C 
ATOM     25  O   UNL     1       2.099   7.864  19.674  0.00  0.00    +0.000 OA
ATOM     26  N   UNL     1       2.034   9.097  17.699  0.00  0.00    +0.000 N 
ATOM     27  H   UNL     1       2.240   9.070  16.709  0.00  0.00    +0.000 HD
BRANCH  24  30
ATOM     28  C   UNL     1       3.807   4.609  17.524  0.00  0.00    +0.000 A 
ATOM     29  C   UNL     1       3.019   5.578  18.141  0.00  0.00    +0.000 A 
ATOM     30  C   UNL     1       3.200   6.937  17.861  0.00  0.00    +0.000 A 
ATOM     31  C   UNL     1       4.211   7.332  16.981  0.00  0.00    +0.000 A 
ATOM     32  C   UNL     1       5.028   6.375  16.385  0.00  0.00    +0.000 A 
ATOM     33  C   UNL     1       4.839   5.010  16.643  0.00  0.00    +0.000 A 
ATOM     34  C   UNL     1       5.752   4.040  15.966  0.00  0.00    +0.000 C 
BRANCH  28  38
ATOM     35  C   UNL     1       3.728   1.043  18.765  0.00  0.00    +0.000 C 
ATOM     36  C   UNL     1       4.113   2.502  18.832  0.00  0.00    +0.000 C 
ATOM     37  O   UNL     1       4.804   2.920  19.758  0.00  0.00    +0.000 OA
ATOM     38  N   UNL     1       3.608   3.227  17.772  0.00  0.00    +0.000 N 
ATOM     39  H   UNL     1       2.949   2.750  17.169  0.00  0.00    +0.000 HD
ENDBRANCH  28  38
ENDBRANCH  24  30
ENDBRANCH   1  26
TORSDOF 5
ENDMDL
MODEL 4
REMARK VINA RESULT:      -9.5      1.837      2.872
REMARK  Name = 
REMARK  8 active torsions:
REMARK  status: ('A' for Active; 'I' for Inactive)
REMARK    1  A    between atoms: C_1  and  C_2
REMARK    2  A    between atoms: N_4  and  C_5
REMARK    3  A    between atoms: C_7  and  C_8
REMARK    4  A    between atoms: N_10  and  C_11
REMARK    5  A    between atoms: C_15  and  C_16
REMARK    6  A    between atoms: C_20  and  C_21
REMARK    7  A    between atoms: C_27  and  C_28
REMARK    8  A    between atoms: C_35  and  C_36
REMARK                            x       y       z     vdW  Elec       q    Type
REMARK                         _______ _______ _______ _____ _____    ______ ____
ROOT
ATOM      1  C   UNL     1       0.928  10.755  18.575  0.00  0.00    +0.000 A 
ATOM      2  C   UNL     1      -0.446  11.012  18.575  0.00  0.00    +0.000 A 
ATOM      3  C   UNL     1      -0.925  12.315  18.613  0.00  0.00    +0.000 A 
ATOM      4  C   UNL     1      -0.029  13.374  18.636  0.00  0.00    +0.000 A 
ATOM      5  C   UNL     1       1.363  13.163  18.591  0.00  0.00    +0.000 A 
ATOM      6  C   UNL     1       1.825  11.833  18.613  0.00  0.00    +0.000 A 
ENDROOT
BRANCH   5   7
ATOM      7  C   UNL     1       2.276  14.316  18.426  0.00  0.00    +0.000 A 
ATOM      8  C   UNL     1       1.827  15.641  18.336  0.00  0.00    +0.000 A 
ATOM      9  C   UNL     1       2.738  16.690  18.188  0.00  0.00    +0.000 A 
ATOM     10  C   UNL     1       4.107  16.430  18.131  0.00  0.00    +0.000 A 
ATOM     11  C   UNL     1       4.596  15.123  18.230  0.00  0.00    +0.000 A 
ATOM     12  C   UNL     1       3.670  14.088  18.384  0.00  0.00    +0.000 A 
BRANCH  11  13
ATOM     13  C   UNL     1       6.039  14.874  18.152  0.00  0.00    +0.000 A 
ATOM     14  N   UNL     1       6.970  15.786  18.357  0.00  0.00    +0.000 NA
ATOM     15  C   UNL     1       8.161  15.184  18.055  0.00  0.00    +0.000 A 
ATOM     16  C   UNL     1       9.428  15.758  17.925  0.00  0.00    +0.000 A 
ATOM     17  C   UNL     1      10.484  14.941  17.524  0.00  0.00    +0.000 A 
ATOM     18  C   UNL     1      10.322  13.556  17.453  0.00  0.00    +0.000 A 
ATOM     19  C   UNL     1       9.089  12.930  17.711  0.00  0.00    +0.000 A 
ATOM     20  C   UNL     1       9.057  11.463  18.012  0.00  0.00    +0.000 C 
ATOM     21  C   UNL     1       7.996  13.820  17.855  0.00  0.00    +0.000 A 
ATOM     22  N   UNL     1       6.632  13.676  17.794  0.00  0.00    +0.000 N 
ATOM     23  H   UNL     1       6.156  12.887  17.385  0.00  0.00    +0.000 HD
ENDBRANCH  11  13
ENDBRANCH   5   7
BRANCH   1  26
ATOM     24  C   UNL     1       1.607   8.605  19.620  0.00  0.00    +0.000 C 
ATOM     25  O   UNL     1       1.255   8.854  20.768  0.00  0.00    +0.000 OA
ATOM     26  N   UNL     1       1.454   9.445  18.523  0.00  0.00    +0.000 N 
ATOM     27  H   UNL     1       1.685   9.097  17.602  0.00  0.00    +0.000 HD
BRANCH  24  30
ATOM     28  C   UNL     1       3.525   5.703  18.055  0.00  0.00    +0.000 A 
ATOM     29  C   UNL     1       2.952   6.962  18.223  0.00  0.00    +0.000 A 
ATOM     30  C   UNL     1       2.245   7.281  19.387  0.00  0.00    +0.000 A 
ATOM     31  C   UNL     1       2.078   6.312  20.381  0.00  0.00    +0.000 A 
ATOM     32  C   UNL     1       2.616   5.039  20.210  0.00  0.00    +0.000 A 
ATOM     33  C   UNL     1       3.343   4.718  19.055  0.00  0.00    +0.000 A 
ATOM     34  C   UNL     1       3.893   3.334  18.940  0.00  0.00    +0.000 C 
BRANCH  28  38
ATOM     35  C   UNL     1       6.045   5.265  15.277  0.00  0.00    +0.000 C 
ATOM     36  C   UNL     1       5.572   5.757  16.625  0.00  0.00    +0.000 C 
ATOM     37  O   UNL     1       6.321   6.418  17.341  0.00  0.00    +0.000 OA
ATOM     38  N   UNL     1       4.273   5.381  16.895  0.00  0.00    +0.000 N 
ATOM     39  H   UNL     1       3.847   4.727  16.250  0.00  0.00    +0.000 HD
ENDBRANCH  28  38
ENDBRANCH  24  30
ENDBRANCH   1  26
TORSDOF 5
ENDMDL
MODEL 5
REMARK VINA RESULT:      -9.5      1.554      2.470
REMARK  Name = 
REMARK  8 active torsions:
REMARK  status: ('A' for Active; 'I' for Inactive)
REMARK    1  A    between atoms: C_1  and  C_2
REMARK    2  A    between atoms: N_4  and  C_5
REMARK    3  A    between atoms: C_7  and  C_8
REMARK    4  A    between atoms: N_10  and  C_11
REMARK    5  A    between atoms: C_15  and  C_16
REMARK    6  A    between atoms: C_20  and  C_21
REMARK    7  A    between atoms: C_27  and  C_28
REMARK    8  A    between atoms: C_35  and  C_36
REMARK                            x       y       z     vdW  Elec       q    Type
REMARK                         _______ _______ _______ _____ _____    ______ ____
ROOT
ATOM      1  C   UNL     1       0.305  10.321  19.049  0.00  0.00    +0.000 A 
ATOM      2  C   UNL     1      -1.080  10.234  18.885  0.00  0.00    +0.000 A 
ATOM      3  C   UNL     1      -1.858  11.379  18.788  0.00  0.00    +0.000 A 
ATOM      4  C   UNL     1      -1.252  12.626  18.840  0.00  0.00    +0.000 A 
ATOM      5  C   UNL     1       0.145  12.762  18.960  0.00  0.00    +0.000 A 
ATOM      6  C   UNL     1       0.907  11.588  19.116  0.00  0.00    +0.000 A 
ENDROOT
BRANCH   5   7
ATOM      7  C   UNL     1       0.769  14.096  18.822  0.00  0.00    +0.000 A 
ATOM      8  C   UNL     1       0.028  15.285  18.763  0.00  0.00    +0.000 A 
ATOM      9  C   UNL     1       0.673  16.518  18.639  0.00  0.00    +0.000 A 
ATOM     10  C   UNL     1       2.065  16.581  18.576  0.00  0.00    +0.000 A 
ATOM     11  C   UNL     1       2.840  15.419  18.645  0.00  0.00    +0.000 A 
ATOM     12  C   UNL     1       2.178  14.196  18.775  0.00  0.00    +0.000 A 
BRANCH  11  13
ATOM     13  C   UNL     1       4.302  15.509  18.561  0.00  0.00    +0.000 A 
ATOM     14  N   UNL     1       5.024  16.488  19.072  0.00  0.00    +0.000 NA
ATOM     15  C   UNL     1       6.308  16.266  18.657  0.00  0.00    +0.000 A 
ATOM     16  C   UNL     1       7.423  17.102  18.764  0.00  0.00    +0.000 A 
ATOM     17  C   UNL     1       8.619  16.682  18.183  0.00  0.00    +0.000 A 
ATOM     18  C   UNL     1       8.751  15.381  17.692  0.00  0.00    +0.000 A 
ATOM     19  C   UNL     1       7.683  14.466  17.695  0.00  0.00    +0.000 A 
ATOM     20  C   UNL     1       7.967  13.002  17.539  0.00  0.00    +0.000 C 
ATOM     21  C   UNL     1       6.431  15.024  18.050  0.00  0.00    +0.000 A 
ATOM     22  N   UNL     1       5.127  14.626  17.887  0.00  0.00    +0.000 N 
ATOM     23  H   UNL     1       4.819  13.918  17.239  0.00  0.00    +0.000 HD
ENDBRANCH  11  13
ENDBRANCH   5   7
BRANCH   1  26
ATOM     24  C   UNL     1       1.982   8.732  18.134  0.00  0.00    +0.000 C 
ATOM     25  O   UNL     1       2.180   9.292  17.061  0.00  0.00    +0.000 OA
ATOM     26  N   UNL     1       1.133   9.179  19.138  0.00  0.00    +0.000 N 
ATOM     27  H   UNL     1       1.124   8.696  20.027  0.00  0.00    +0.000 HD
BRANCH  24  30
ATOM     28  C   UNL     1       4.266   5.706  17.719  0.00  0.00    +0.000 A 
ATOM     29  C   UNL     1       3.596   6.896  17.441  0.00  0.00    +0.000 A 
ATOM     30  C   UNL     1       2.730   7.469  18.378  0.00  0.00    +0.000 A 
ATOM     31  C   UNL     1       2.502   6.821  19.596  0.00  0.00    +0.000 A 
ATOM     32  C   UNL     1       3.139   5.614  19.871  0.00  0.00    +0.000 A 
ATOM     33  C   UNL     1       4.026   5.044  18.947  0.00  0.00    +0.000 A 
ATOM     34  C   UNL     1       4.675   3.748  19.311  0.00  0.00    +0.000 C 
BRANCH  28  38
ATOM     35  C   UNL     1       7.048   4.828  15.321  0.00  0.00    +0.000 C 
ATOM     36  C   UNL     1       6.342   5.704  16.330  0.00  0.00    +0.000 C 
ATOM     37  O   UNL     1       6.819   6.791  16.648  0.00  0.00    +0.000 OA
ATOM     38  N   UNL     1       5.174   5.135  16.792  0.00  0.00    +0.000 N 
ATOM     39  H   UNL     1       4.998   4.175  16.521  0.00  0.00    +0.000 HD
ENDBRANCH  28  38
ENDBRANCH  24  30
ENDBRANCH   1  26
TORSDOF 5
ENDMDL
MODEL 6
REMARK VINA RESULT:      -9.4      1.840      3.082
REMARK  Name = 
REMARK  8 active torsions:
REMARK  status: ('A' for Active; 'I' for Inactive)
REMARK    1  A    between atoms: C_1  and  C_2
REMARK    2  A    between atoms: N_4  and  C_5
REMARK    3  A    between atoms: C_7  and  C_8
REMARK    4  A    between atoms: N_10  and  C_11
REMARK    5  A    between atoms: C_15  and  C_16
REMARK    6  A    between atoms: C_20  and  C_21
REMARK    7  A    between atoms: C_27  and  C_28
REMARK    8  A    between atoms: C_35  and  C_36
REMARK                            x       y       z     vdW  Elec       q    Type
REMARK                         _______ _______ _______ _____ _____    ______ ____
ROOT
ATOM      1  C   UNL     1       0.864  10.837  18.619  0.00  0.00    +0.000 A 
ATOM      2  C   UNL     1      -0.508  11.100  18.575  0.00  0.00    +0.000 A 
ATOM      3  C   UNL     1      -0.983  12.404  18.598  0.00  0.00    +0.000 A 
ATOM      4  C   UNL     1      -0.084  13.460  18.649  0.00  0.00    +0.000 A 
ATOM      5  C   UNL     1       1.309  13.244  18.649  0.00  0.00    +0.000 A 
ATOM      6  C   UNL     1       1.764  11.912  18.686  0.00  0.00    +0.000 A 
ENDROOT
BRANCH   5   7
ATOM      7  C   UNL     1       2.230  14.392  18.512  0.00  0.00    +0.000 A 
ATOM      8  C   UNL     1       1.803  15.727  18.558  0.00  0.00    +0.000 A 
ATOM      9  C   UNL     1       2.723  16.771  18.431  0.00  0.00    +0.000 A 
ATOM     10  C   UNL     1       4.080  16.497  18.260  0.00  0.00    +0.000 A 
ATOM     11  C   UNL     1       4.548  15.180  18.222  0.00  0.00    +0.000 A 
ATOM     12  C   UNL     1       3.614  14.149  18.358  0.00  0.00    +0.000 A 
BRANCH  11  13
ATOM     13  C   UNL     1       5.977  14.917  18.026  0.00  0.00    +0.000 A 
ATOM     14  N   UNL     1       6.482  13.758  17.645  0.00  0.00    +0.000 NA
ATOM     15  C   UNL     1       7.840  13.897  17.718  0.00  0.00    +0.000 A 
ATOM     16  C   UNL     1       8.831  12.917  17.603  0.00  0.00    +0.000 A 
ATOM     17  C   UNL     1      10.158  13.296  17.800  0.00  0.00    +0.000 A 
ATOM     18  C   UNL     1      10.503  14.644  17.905  0.00  0.00    +0.000 A 
ATOM     19  C   UNL     1       9.539  15.670  17.887  0.00  0.00    +0.000 A 
ATOM     20  C   UNL     1       9.966  17.078  17.603  0.00  0.00    +0.000 C 
ATOM     21  C   UNL     1       8.198  15.218  17.950  0.00  0.00    +0.000 A 
ATOM     22  N   UNL     1       7.003  15.813  18.269  0.00  0.00    +0.000 N 
ATOM     23  H   UNL     1       6.911  16.687  18.764  0.00  0.00    +0.000 HD
ENDBRANCH  11  13
ENDBRANCH   5   7
BRANCH   1  26
ATOM     24  C   UNL     1       1.482   8.677  19.681  0.00  0.00    +0.000 C 
ATOM     25  O   UNL     1       1.074   8.920  20.812  0.00  0.00    +0.000 OA
ATOM     26  N   UNL     1       1.387   9.525  18.584  0.00  0.00    +0.000 N 
ATOM     27  H   UNL     1       1.662   9.182  17.673  0.00  0.00    +0.000 HD
BRANCH  24  30
ATOM     28  C   UNL     1       3.397   5.751  18.160  0.00  0.00    +0.000 A 
ATOM     29  C   UNL     1       2.819   7.010  18.305  0.00  0.00    +0.000 A 
ATOM     30  C   UNL     1       2.125   7.351  19.471  0.00  0.00    +0.000 A 
ATOM     31  C   UNL     1       1.975   6.405  20.489  0.00  0.00    +0.000 A 
ATOM     32  C   UNL     1       2.518   5.131  20.340  0.00  0.00    +0.000 A 
ATOM     33  C   UNL     1       3.234   4.788  19.184  0.00  0.00    +0.000 A 
ATOM     34  C   UNL     1       3.790   3.404  19.095  0.00  0.00    +0.000 C 
BRANCH  28  38
ATOM     35  C   UNL     1       5.774   5.421  15.243  0.00  0.00    +0.000 C 
ATOM     36  C   UNL     1       5.270   6.032  16.530  0.00  0.00    +0.000 C 
ATOM     37  O   UNL     1       5.861   6.981  17.040  0.00  0.00    +0.000 OA
ATOM     38  N   UNL     1       4.133   5.406  16.998  0.00  0.00    +0.000 N 
ATOM     39  H   UNL     1       3.855   4.556  16.523  0.00  0.00    +0.000 HD
ENDBRANCH  28  38
ENDBRANCH  24  30
ENDBRANCH   1  26
TORSDOF 5
ENDMDL
MODEL 7
REMARK VINA RESULT:      -9.4      4.270      8.315
REMARK  Name = 
REMARK  8 active torsions:
REMARK  status: ('A' for Active; 'I' for Inactive)
REMARK    1  A    between atoms: C_1  and  C_2
REMARK    2  A    between atoms: N_4  and  C_5
REMARK    3  A    between atoms: C_7  and  C_8
REMARK    4  A    between atoms: N_10  and  C_11
REMARK    5  A    between atoms: C_15  and  C_16
REMARK    6  A    between atoms: C_20  and  C_21
REMARK    7  A    between atoms: C_27  and  C_28
REMARK    8  A    between atoms: C_35  and  C_36
REMARK                            x       y       z     vdW  Elec       q    Type
REMARK                         _______ _______ _______ _____ _____    ______ ____
ROOT
ATOM      1  C   UNL     1       1.082   9.943  18.449  0.00  0.00    +0.000 A 
ATOM      2  C   UNL     1       1.884  11.062  18.691  0.00  0.00    +0.000 A 
ATOM      3  C   UNL     1       1.336  12.337  18.712  0.00  0.00    +0.000 A 
ATOM      4  C   UNL     1      -0.026  12.502  18.506  0.00  0.00    +0.000 A 
ATOM      5  C   UNL     1      -0.879  11.399  18.303  0.00  0.00    +0.000 A 
ATOM      6  C   UNL     1      -0.292  10.122  18.227  0.00  0.00    +0.000 A 
ENDROOT
BRANCH   5   7
ATOM      7  C   UNL     1      -2.345  11.599  18.278  0.00  0.00    +0.000 A 
ATOM      8  C   UNL     1      -3.135  11.330  17.151  0.00  0.00    +0.000 A 
ATOM      9  C   UNL     1      -4.517  11.531  17.189  0.00  0.00    +0.000 A 
ATOM     10  C   UNL     1      -5.128  12.000  18.352  0.00  0.00    +0.000 A 
ATOM     11  C   UNL     1      -4.377  12.268  19.501  0.00  0.00    +0.000 A 
ATOM     12  C   UNL     1      -2.997  12.055  19.446  0.00  0.00    +0.000 A 
BRANCH  11  13
ATOM     13  C   UNL     1      -5.040  12.775  20.707  0.00  0.00    +0.000 A 
ATOM     14  N   UNL     1      -5.870  12.075  21.457  0.00  0.00    +0.000 NA
ATOM     15  C   UNL     1      -6.364  12.948  22.387  0.00  0.00    +0.000 A 
ATOM     16  C   UNL     1      -7.411  12.765  23.294  0.00  0.00    +0.000 A 
ATOM     17  C   UNL     1      -7.789  13.845  24.091  0.00  0.00    +0.000 A 
ATOM     18  C   UNL     1      -7.015  15.006  24.126  0.00  0.00    +0.000 A 
ATOM     19  C   UNL     1      -5.872  15.171  23.322  0.00  0.00    +0.000 A 
ATOM     20  C   UNL     1      -4.871  16.229  23.673  0.00  0.00    +0.000 C 
ATOM     21  C   UNL     1      -5.686  14.159  22.349  0.00  0.00    +0.000 A 
ATOM     22  N   UNL     1      -4.947  14.066  21.196  0.00  0.00    +0.000 N 
ATOM     23  H   UNL     1      -4.555  14.852  20.700  0.00  0.00    +0.000 HD
ENDBRANCH  11  13
ENDBRANCH   5   7
BRANCH   1  26
ATOM     24  C   UNL     1       1.826   7.848  19.560  0.00  0.00    +0.000 C 
ATOM     25  O   UNL     1       1.557   8.161  20.714  0.00  0.00    +0.000 OA
ATOM     26  N   UNL     1       1.600   8.628  18.433  0.00  0.00    +0.000 N 
ATOM     27  H   UNL     1       1.764   8.229  17.517  0.00  0.00    +0.000 HD
BRANCH  24  30
ATOM     28  C   UNL     1       3.597   4.843  18.017  0.00  0.00    +0.000 A 
ATOM     29  C   UNL     1       3.041   6.113  18.155  0.00  0.00    +0.000 A 
ATOM     30  C   UNL     1       2.442   6.508  19.356  0.00  0.00    +0.000 A 
ATOM     31  C   UNL     1       2.365   5.606  20.421  0.00  0.00    +0.000 A 
ATOM     32  C   UNL     1       2.886   4.321  20.283  0.00  0.00    +0.000 A 
ATOM     33  C   UNL     1       3.507   3.924  19.090  0.00  0.00    +0.000 A 
ATOM     34  C   UNL     1       4.045   2.532  19.015  0.00  0.00    +0.000 C 
BRANCH  28  38
ATOM     35  C   UNL     1       5.893   4.134  15.104  0.00  0.00    +0.000 C 
ATOM     36  C   UNL     1       5.555   4.670  16.475  0.00  0.00    +0.000 C 
ATOM     37  O   UNL     1       6.413   5.236  17.149  0.00  0.00    +0.000 OA
ATOM     38  N   UNL     1       4.238   4.444  16.817  0.00  0.00    +0.000 N 
ATOM     39  H   UNL     1       3.704   3.847  16.197  0.00  0.00    +0.000 HD
ENDBRANCH  28  38
ENDBRANCH  24  30
ENDBRANCH   1  26
TORSDOF 5
ENDMDL
MODEL 8
REMARK VINA RESULT:      -9.3      1.635      2.795
REMARK  Name = 
REMARK  8 active torsions:
REMARK  status: ('A' for Active; 'I' for Inactive)
REMARK    1  A    between atoms: C_1  and  C_2
REMARK    2  A    between atoms: N_4  and  C_5
REMARK    3  A    between atoms: C_7  and  C_8
REMARK    4  A    between atoms: N_10  and  C_11
REMARK    5  A    between atoms: C_15  and  C_16
REMARK    6  A    between atoms: C_20  and  C_21
REMARK    7  A    between atoms: C_27  and  C_28
REMARK    8  A    between atoms: C_35  and  C_36
REMARK                            x       y       z     vdW  Elec       q    Type
REMARK                         _______ _______ _______ _____ _____    ______ ____
ROOT
ATOM      1  C   UNL     1       0.622  10.384  19.075  0.00  0.00    +0.000 A 
ATOM      2  C   UNL     1      -0.768  10.416  18.938  0.00  0.00    +0.000 A 
ATOM      3  C   UNL     1      -1.444  11.624  18.832  0.00  0.00    +0.000 A 
ATOM      4  C   UNL     1      -0.729  12.813  18.846  0.00  0.00    +0.000 A 
ATOM      5  C   UNL     1       0.677  12.827  18.937  0.00  0.00    +0.000 A 
ATOM      6  C   UNL     1       1.334  11.593  19.104  0.00  0.00    +0.000 A 
ENDROOT
BRANCH   5   7
ATOM      7  C   UNL     1       1.412  14.098  18.758  0.00  0.00    +0.000 A 
ATOM      8  C   UNL     1       0.782  15.350  18.738  0.00  0.00    +0.000 A 
ATOM      9  C   UNL     1       1.531  16.518  18.573  0.00  0.00    +0.000 A 
ATOM     10  C   UNL     1       2.917  16.452  18.431  0.00  0.00    +0.000 A 
ATOM     11  C   UNL     1       3.584  15.223  18.460  0.00  0.00    +0.000 A 
ATOM     12  C   UNL     1       2.819  14.066  18.631  0.00  0.00    +0.000 A 
BRANCH  11  13
ATOM     13  C   UNL     1       5.041  15.177  18.293  0.00  0.00    +0.000 A 
ATOM     14  N   UNL     1       5.705  14.161  17.777  0.00  0.00    +0.000 NA
ATOM     15  C   UNL     1       7.031  14.461  17.929  0.00  0.00    +0.000 A 
ATOM     16  C   UNL     1       8.146  13.644  17.723  0.00  0.00    +0.000 A 
ATOM     17  C   UNL     1       9.405  14.158  18.029  0.00  0.00    +0.000 A 
ATOM     18  C   UNL     1       9.563  15.511  18.337  0.00  0.00    +0.000 A 
ATOM     19  C   UNL     1       8.472  16.395  18.419  0.00  0.00    +0.000 A 
ATOM     20  C   UNL     1       8.714  17.872  18.353  0.00  0.00    +0.000 C 
ATOM     21  C   UNL     1       7.202  15.769  18.358  0.00  0.00    +0.000 A 
ATOM     22  N   UNL     1       5.930  16.154  18.704  0.00  0.00    +0.000 N 
ATOM     23  H   UNL     1       5.709  16.928  19.311  0.00  0.00    +0.000 HD
ENDBRANCH  11  13
ENDBRANCH   5   7
BRANCH   1  26
ATOM     24  C   UNL     1       2.104   8.616  18.151  0.00  0.00    +0.000 C 
ATOM     25  O   UNL     1       2.299   9.116  17.048  0.00  0.00    +0.000 OA
ATOM     26  N   UNL     1       1.348   9.175  19.173  0.00  0.00    +0.000 N 
ATOM     27  H   UNL     1       1.339   8.727  20.080  0.00  0.00    +0.000 HD
BRANCH  24  30
ATOM     28  C   UNL     1       4.148   5.417  17.784  0.00  0.00    +0.000 A 
ATOM     29  C   UNL     1       3.577   6.654  17.489  0.00  0.00    +0.000 A 
ATOM     30  C   UNL     1       2.747   7.299  18.412  0.00  0.00    +0.000 A 
ATOM     31  C   UNL     1       2.453   6.680  19.629  0.00  0.00    +0.000 A 
ATOM     32  C   UNL     1       2.989   5.428  19.920  0.00  0.00    +0.000 A 
ATOM     33  C   UNL     1       3.840   4.784  19.011  0.00  0.00    +0.000 A 
ATOM     34  C   UNL     1       4.380   3.444  19.391  0.00  0.00    +0.000 C 
BRANCH  28  38
ATOM     35  C   UNL     1       6.426   4.331  14.974  0.00  0.00    +0.000 C 
ATOM     36  C   UNL     1       5.566   5.317  15.729  0.00  0.00    +0.000 C 
ATOM     37  O   UNL     1       5.415   6.461  15.304  0.00  0.00    +0.000 OA
ATOM     38  N   UNL     1       5.020   4.771  16.872  0.00  0.00    +0.000 N 
ATOM     39  H   UNL     1       5.355   3.853  17.141  0.00  0.00    +0.000 HD
ENDBRANCH  28  38
ENDBRANCH  24  30
ENDBRANCH   1  26
TORSDOF 5
ENDMDL
MODEL 9
REMARK VINA RESULT:      -9.1      1.341      2.214
REMARK  Name = 
REMARK  8 active torsions:
REMARK  status: ('A' for Active; 'I' for Inactive)
REMARK    1  A    between atoms: C_1  and  C_2
REMARK    2  A    between atoms: N_4  and  C_5
REMARK    3  A    between atoms: C_7  and  C_8
REMARK    4  A    between atoms: N_10  and  C_11
REMARK    5  A    between atoms: C_15  and  C_16
REMARK    6  A    between atoms: C_20  and  C_21
REMARK    7  A    between atoms: C_27  and  C_28
REMARK    8  A    between atoms: C_35  and  C_36
REMARK                            x       y       z     vdW  Elec       q    Type
REMARK                         _______ _______ _______ _____ _____    ______ ____
ROOT
ATOM      1  C   UNL     1       1.056  11.010  18.505  0.00  0.00    +0.000 A 
ATOM      2  C   UNL     1      -0.309  11.304  18.528  0.00  0.00    +0.000 A 
ATOM      3  C   UNL     1      -0.752  12.618  18.596  0.00  0.00    +0.000 A 
ATOM      4  C   UNL     1       0.173  13.653  18.624  0.00  0.00    +0.000 A 
ATOM      5  C   UNL     1       1.559  13.404  18.557  0.00  0.00    +0.000 A 
ATOM      6  C   UNL     1       1.984  12.062  18.550  0.00  0.00    +0.000 A 
ENDROOT
BRANCH   5   7
ATOM      7  C   UNL     1       2.500  14.534  18.399  0.00  0.00    +0.000 A 
ATOM      8  C   UNL     1       2.086  15.870  18.318  0.00  0.00    +0.000 A 
ATOM      9  C   UNL     1       3.024  16.897  18.176  0.00  0.00    +0.000 A 
ATOM     10  C   UNL     1       4.386  16.603  18.118  0.00  0.00    +0.000 A 
ATOM     11  C   UNL     1       4.840  15.283  18.208  0.00  0.00    +0.000 A 
ATOM     12  C   UNL     1       3.889  14.271  18.356  0.00  0.00    +0.000 A 
BRANCH  11  13
ATOM     13  C   UNL     1       6.277  14.997  18.129  0.00  0.00    +0.000 A 
ATOM     14  N   UNL     1       6.799  13.931  17.554  0.00  0.00    +0.000 NA
ATOM     15  C   UNL     1       8.140  13.978  17.818  0.00  0.00    +0.000 A 
ATOM     16  C   UNL     1       9.114  13.000  17.599  0.00  0.00    +0.000 A 
ATOM     17  C   UNL     1      10.413  13.255  18.035  0.00  0.00    +0.000 A 
ATOM     18  C   UNL     1      10.773  14.525  18.489  0.00  0.00    +0.000 A 
ATOM     19  C   UNL     1       9.844  15.576  18.594  0.00  0.00    +0.000 A 
ATOM     20  C   UNL     1      10.336  16.988  18.695  0.00  0.00    +0.000 C 
ATOM     21  C   UNL     1       8.495  15.192  18.390  0.00  0.00    +0.000 A 
ATOM     22  N   UNL     1       7.283  15.761  18.693  0.00  0.00    +0.000 N 
ATOM     23  H   UNL     1       7.149  16.504  19.361  0.00  0.00    +0.000 HD
ENDBRANCH  11  13
ENDBRANCH   5   7
BRANCH   1  26
ATOM     24  C   UNL     1       1.583   8.785  19.480  0.00  0.00    +0.000 C 
ATOM     25  O   UNL     1       1.145   8.985  20.608  0.00  0.00    +0.000 OA
ATOM     26  N   UNL     1       1.546   9.686  18.424  0.00  0.00    +0.000 N 
ATOM     27  H   UNL     1       1.841   9.380  17.505  0.00  0.00    +0.000 HD
BRANCH  24  30
ATOM     28  C   UNL     1       2.702   5.157  19.835  0.00  0.00    +0.000 A 
ATOM     29  C   UNL     1       2.101   6.381  20.120  0.00  0.00    +0.000 A 
ATOM     30  C   UNL     1       2.198   7.454  19.227  0.00  0.00    +0.000 A 
ATOM     31  C   UNL     1       2.940   7.310  18.051  0.00  0.00    +0.000 A 
ATOM     32  C   UNL     1       3.574   6.102  17.772  0.00  0.00    +0.000 A 
ATOM     33  C   UNL     1       3.464   5.015  18.651  0.00  0.00    +0.000 A 
ATOM     34  C   UNL     1       4.170   3.750  18.286  0.00  0.00    +0.000 C 
BRANCH  28  38
ATOM     35  C   UNL     1       1.712   2.128  21.861  0.00  0.00    +0.000 C 
ATOM     36  C   UNL     1       1.524   3.167  20.781  0.00  0.00    +0.000 C 
ATOM     37  O   UNL     1       0.512   3.161  20.084  0.00  0.00    +0.000 OA
ATOM     38  N   UNL     1       2.580   4.052  20.715  0.00  0.00    +0.000 N 
ATOM     39  H   UNL     1       3.393   3.832  21.278  0.00  0.00    +0.000 HD
ENDBRANCH  28  38
ENDBRANCH  24  30
ENDBRANCH   1  26
TORSDOF 5
ENDMDL
