MODEL 1
REMARK VINA RESULT:      -8.3      0.000      0.000
REMARK  Name = 
REMARK  5 active torsions:
REMARK  status: ('A' for Active; 'I' for Inactive)
REMARK    1  A    between atoms: C_1  and  C_2
REMARK    2  A    between atoms: C_2  and  O_4
REMARK    3  A    between atoms: O_4  and  C_5
REMARK    4  A    between atoms: C_7  and  C_8
REMARK    5  A    between atoms: N_21  and  C_22
REMARK                            x       y       z     vdW  Elec       q    Type
REMARK                         _______ _______ _______ _____ _____    ______ ____
ROOT
ATOM      1  C   UNL     1       5.342   5.908  16.405  0.00  0.00    +0.000 C 
ATOM      2  N   UNL     1       4.311   6.802  16.909  0.00  0.00    +0.000 NA
ATOM      3  C   UNL     1       3.622   6.486  17.949  0.00  0.00    +0.000 C 
ATOM      4  C   UNL     1       3.764   5.210  18.710  0.00  0.00    +0.000 A 
ATOM      5  C   UNL     1       2.581   4.594  19.167  0.00  0.00    +0.000 A 
ATOM      6  C   UNL     1       2.644   3.449  19.957  0.00  0.00    +0.000 A 
ATOM      7 BR   UNL     1       1.054   2.666  20.612  0.00  0.00    +0.000 Br
ATOM      8  C   UNL     1       3.871   2.886  20.276  0.00  0.00    +0.000 A 
ATOM      9  C   UNL     1       5.046   3.489  19.817  0.00  0.00    +0.000 A 
ATOM     10  C   UNL     1       5.020   4.665  19.038  0.00  0.00    +0.000 A 
ATOM     11  N   UNL     1       6.262   5.262  18.660  0.00  0.00    +0.000 N 
ATOM     12  C   UNL     1       7.395   5.189  19.573  0.00  0.00    +0.000 C 
ATOM     13  C   UNL     1       6.490   5.932  17.448  0.00  0.00    +0.000 C 
ATOM     14  O   UNL     1       7.584   6.456  17.210  0.00  0.00    +0.000 OA
ENDROOT
BRANCH   3  15
ATOM     15  C   UNL     1       2.643   7.519  18.405  0.00  0.00    +0.000 A 
ATOM     16  C   UNL     1       2.312   8.562  17.528  0.00  0.00    +0.000 A 
ATOM     17  C   UNL     1       1.516   9.617  17.965  0.00  0.00    +0.000 A 
ATOM     18  C   UNL     1       1.048   9.633  19.279  0.00  0.00    +0.000 A 
ATOM     19  C   UNL     1       1.359   8.588  20.150  0.00  0.00    +0.000 A 
ATOM     20  C   UNL     1       2.161   7.531  19.718  0.00  0.00    +0.000 A 
ENDBRANCH   3  15
BRANCH   1  21
ATOM     21  O   UNL     1       5.895   6.334  15.150  0.00  0.00    +0.000 OA
BRANCH  21  23
ATOM     22  C   UNL     1       5.666   4.163  14.301  0.00  0.00    +0.000 C 
ATOM     23  C   UNL     1       6.545   5.367  14.460  0.00  0.00    +0.000 C 
ATOM     24  O   UNL     1       7.684   5.444  14.011  0.00  0.00    +0.000 OA
ENDBRANCH  21  23
ENDBRANCH   1  21
TORSDOF 3
ENDMDL
MODEL 2
REMARK VINA RESULT:      -8.1      0.167      1.001
REMARK  Name = 
REMARK  5 active torsions:
REMARK  status: ('A' for Active; 'I' for Inactive)
REMARK    1  A    between atoms: C_1  and  C_2
REMARK    2  A    between atoms: C_2  and  O_4
REMARK    3  A    between atoms: O_4  and  C_5
REMARK    4  A    between atoms: C_7  and  C_8
REMARK    5  A    between atoms: N_21  and  C_22
REMARK                            x       y       z     vdW  Elec       q    Type
REMARK                         _______ _______ _______ _____ _____    ______ ____
ROOT
ATOM      1  C   UNL     1       5.299   5.949  16.416  0.00  0.00    +0.000 C 
ATOM      2  N   UNL     1       4.322   6.894  16.934  0.00  0.00    +0.000 NA
ATOM      3  C   UNL     1       3.617   6.605  17.971  0.00  0.00    +0.000 C 
ATOM      4  C   UNL     1       3.686   5.313  18.715  0.00  0.00    +0.000 A 
ATOM      5  C   UNL     1       2.470   4.760  19.167  0.00  0.00    +0.000 A 
ATOM      6  C   UNL     1       2.468   3.604  19.941  0.00  0.00    +0.000 A 
ATOM      7 BR   UNL     1       0.836   2.905  20.589  0.00  0.00    +0.000 Br
ATOM      8  C   UNL     1       3.661   2.966  20.250  0.00  0.00    +0.000 A 
ATOM      9  C   UNL     1       4.868   3.507  19.798  0.00  0.00    +0.000 A 
ATOM     10  C   UNL     1       4.909   4.692  19.033  0.00  0.00    +0.000 A 
ATOM     11  N   UNL     1       6.183   5.222  18.661  0.00  0.00    +0.000 N 
ATOM     12  C   UNL     1       7.311   5.071  19.571  0.00  0.00    +0.000 C 
ATOM     13  C   UNL     1       6.448   5.893  17.458  0.00  0.00    +0.000 C 
ATOM     14  O   UNL     1       7.570   6.356  17.224  0.00  0.00    +0.000 OA
ENDROOT
BRANCH   3  15
ATOM     15  C   UNL     1       2.700   7.687  18.442  0.00  0.00    +0.000 A 
ATOM     16  C   UNL     1       2.238   7.646  19.764  0.00  0.00    +0.000 A 
ATOM     17  C   UNL     1       1.275   8.553  20.198  0.00  0.00    +0.000 A 
ATOM     18  C   UNL     1       0.772   9.505  19.311  0.00  0.00    +0.000 A 
ATOM     19  C   UNL     1       1.243   9.563  17.999  0.00  0.00    +0.000 A 
ATOM     20  C   UNL     1       2.204   8.652  17.559  0.00  0.00    +0.000 A 
ENDBRANCH   3  15
BRANCH   1  21
ATOM     21  O   UNL     1       5.875   6.359  15.166  0.00  0.00    +0.000 OA
BRANCH  21  23
ATOM     22  C   UNL     1       5.559   4.211  14.287  0.00  0.00    +0.000 C 
ATOM     23  C   UNL     1       6.489   5.371  14.475  0.00  0.00    +0.000 C 
ATOM     24  O   UNL     1       7.638   5.399  14.044  0.00  0.00    +0.000 OA
ENDBRANCH  21  23
ENDBRANCH   1  21
TORSDOF 3
ENDMDL
MODEL 3
REMARK VINA RESULT:      -7.5      2.040      4.729
REMARK  Name = 
REMARK  5 active torsions:
REMARK  status: ('A' for Active; 'I' for Inactive)
REMARK    1  A    between atoms: C_1  and  C_2
REMARK    2  A    between atoms: C_2  and  O_4
REMARK    3  A    between atoms: O_4  and  C_5
REMARK    4  A    between atoms: C_7  and  C_8
REMARK    5  A    between atoms: N_21  and  C_22
REMARK                            x       y       z     vdW  Elec       q    Type
REMARK                         _______ _______ _______ _____ _____    ______ ____
ROOT
ATOM      1  C   UNL     1       5.992   5.361  18.631  0.00  0.00    +0.000 C 
ATOM      2  N   UNL     1       4.883   4.518  19.050  0.00  0.00    +0.000 NA
ATOM      3  C   UNL     1       3.684   4.984  19.088  0.00  0.00    +0.000 C 
ATOM      4  C   UNL     1       3.305   6.388  18.754  0.00  0.00    +0.000 A 
ATOM      5  C   UNL     1       2.331   7.007  19.564  0.00  0.00    +0.000 A 
ATOM      6  C   UNL     1       1.868   8.283  19.258  0.00  0.00    +0.000 A 
ATOM      7 BR   UNL     1       0.520   9.078  20.318  0.00  0.00    +0.000 Br
ATOM      8  C   UNL     1       2.382   8.971  18.168  0.00  0.00    +0.000 A 
ATOM      9  C   UNL     1       3.354   8.365  17.367  0.00  0.00    +0.000 A 
ATOM     10  C   UNL     1       3.827   7.062  17.632  0.00  0.00    +0.000 A 
ATOM     11  N   UNL     1       4.772   6.481  16.732  0.00  0.00    +0.000 N 
ATOM     12  C   UNL     1       4.692   6.798  15.312  0.00  0.00    +0.000 C 
ATOM     13  C   UNL     1       5.803   5.608  17.111  0.00  0.00    +0.000 C 
ATOM     14  O   UNL     1       6.560   5.117  16.266  0.00  0.00    +0.000 OA
ENDROOT
BRANCH   3  15
ATOM     15  C   UNL     1       2.627   3.998  19.469  0.00  0.00    +0.000 A 
ATOM     16  C   UNL     1       1.811   3.467  18.461  0.00  0.00    +0.000 A 
ATOM     17  C   UNL     1       0.728   2.658  18.792  0.00  0.00    +0.000 A 
ATOM     18  C   UNL     1       0.459   2.376  20.131  0.00  0.00    +0.000 A 
ATOM     19  C   UNL     1       1.279   2.886  21.137  0.00  0.00    +0.000 A 
ATOM     20  C   UNL     1       2.363   3.702  20.810  0.00  0.00    +0.000 A 
ENDBRANCH   3  15
BRANCH   1  21
ATOM     21  O   UNL     1       7.274   4.737  18.807  0.00  0.00    +0.000 OA
BRANCH  21  23
ATOM     22  C   UNL     1       8.279   6.848  18.941  0.00  0.00    +0.000 C 
ATOM     23  C   UNL     1       8.167   5.468  19.514  0.00  0.00    +0.000 C 
ATOM     24  O   UNL     1       8.798   5.084  20.494  0.00  0.00    +0.000 OA
ENDBRANCH  21  23
ENDBRANCH   1  21
TORSDOF 3
ENDMDL
MODEL 4
REMARK VINA RESULT:      -7.5      2.093      4.890
REMARK  Name = 
REMARK  5 active torsions:
REMARK  status: ('A' for Active; 'I' for Inactive)
REMARK    1  A    between atoms: C_1  and  C_2
REMARK    2  A    between atoms: C_2  and  O_4
REMARK    3  A    between atoms: O_4  and  C_5
REMARK    4  A    between atoms: C_7  and  C_8
REMARK    5  A    between atoms: N_21  and  C_22
REMARK                            x       y       z     vdW  Elec       q    Type
REMARK                         _______ _______ _______ _____ _____    ______ ____
ROOT
ATOM      1  C   UNL     1       5.828   5.458  18.728  0.00  0.00    +0.000 C 
ATOM      2  N   UNL     1       4.683   4.649  19.112  0.00  0.00    +0.000 NA
ATOM      3  C   UNL     1       3.496   5.146  19.100  0.00  0.00    +0.000 C 
ATOM      4  C   UNL     1       3.167   6.556  18.739  0.00  0.00    +0.000 A 
ATOM      5  C   UNL     1       2.180   7.208  19.506  0.00  0.00    +0.000 A 
ATOM      6  C   UNL     1       1.762   8.493  19.171  0.00  0.00    +0.000 A 
ATOM      7 BR   UNL     1       0.397   9.333  20.171  0.00  0.00    +0.000 Br
ATOM      8  C   UNL     1       2.336   9.157  18.095  0.00  0.00    +0.000 A 
ATOM      9  C   UNL     1       3.321   8.517  17.337  0.00  0.00    +0.000 A 
ATOM     10  C   UNL     1       3.748   7.205  17.632  0.00  0.00    +0.000 A 
ATOM     11  N   UNL     1       4.711   6.591  16.774  0.00  0.00    +0.000 N 
ATOM     12  C   UNL     1       4.693   6.895  15.349  0.00  0.00    +0.000 C 
ATOM     13  C   UNL     1       5.704   5.694  17.200  0.00  0.00    +0.000 C 
ATOM     14  O   UNL     1       6.478   5.175  16.389  0.00  0.00    +0.000 OA
ENDROOT
BRANCH   3  15
ATOM     15  C   UNL     1       2.399   4.193  19.450  0.00  0.00    +0.000 A 
ATOM     16  C   UNL     1       2.234   3.825  20.792  0.00  0.00    +0.000 A 
ATOM     17  C   UNL     1       1.318   2.835  21.138  0.00  0.00    +0.000 A 
ATOM     18  C   UNL     1       0.566   2.210  20.144  0.00  0.00    +0.000 A 
ATOM     19  C   UNL     1       0.713   2.586  18.809  0.00  0.00    +0.000 A 
ATOM     20  C   UNL     1       1.633   3.574  18.457  0.00  0.00    +0.000 A 
ENDBRANCH   3  15
BRANCH   1  21
ATOM     21  O   UNL     1       7.086   4.803  18.958  0.00  0.00    +0.000 OA
BRANCH  21  23
ATOM     22  C   UNL     1       8.309   6.800  18.987  0.00  0.00    +0.000 C 
ATOM     23  C   UNL     1       7.972   5.519  19.689  0.00  0.00    +0.000 C 
ATOM     24  O   UNL     1       8.439   5.195  20.776  0.00  0.00    +0.000 OA
ENDBRANCH  21  23
ENDBRANCH   1  21
TORSDOF 3
ENDMDL
MODEL 5
REMARK VINA RESULT:      -7.4      3.421      5.028
REMARK  Name = 
REMARK  5 active torsions:
REMARK  status: ('A' for Active; 'I' for Inactive)
REMARK    1  A    between atoms: C_1  and  C_2
REMARK    2  A    between atoms: C_2  and  O_4
REMARK    3  A    between atoms: O_4  and  C_5
REMARK    4  A    between atoms: C_7  and  C_8
REMARK    5  A    between atoms: N_21  and  C_22
REMARK                            x       y       z     vdW  Elec       q    Type
REMARK                         _______ _______ _______ _____ _____    ______ ____
ROOT
ATOM      1  C   UNL     1       3.879   3.427  19.515  0.00  0.00    +0.000 C 
ATOM      2  N   UNL     1       3.155   4.688  19.506  0.00  0.00    +0.000 NA
ATOM      3  C   UNL     1       3.633   5.713  18.893  0.00  0.00    +0.000 C 
ATOM      4  C   UNL     1       4.943   5.744  18.177  0.00  0.00    +0.000 A 
ATOM      5  C   UNL     1       5.727   6.907  18.311  0.00  0.00    +0.000 A 
ATOM      6  C   UNL     1       6.918   7.039  17.603  0.00  0.00    +0.000 A 
ATOM      7 BR   UNL     1       7.931   8.628  17.747  0.00  0.00    +0.000 Br
ATOM      8  C   UNL     1       7.360   6.012  16.781  0.00  0.00    +0.000 A 
ATOM      9  C   UNL     1       6.589   4.853  16.651  0.00  0.00    +0.000 A 
ATOM     10  C   UNL     1       5.364   4.698  17.334  0.00  0.00    +0.000 A 
ATOM     11  N   UNL     1       4.598   3.514  17.102  0.00  0.00    +0.000 N 
ATOM     12  C   UNL     1       4.615   2.901  15.780  0.00  0.00    +0.000 C 
ATOM     13  C   UNL     1       3.809   2.872  18.068  0.00  0.00    +0.000 C 
ATOM     14  O   UNL     1       3.144   1.870  17.780  0.00  0.00    +0.000 OA
ENDROOT
BRANCH   3  15
ATOM     15  C   UNL     1       2.761   6.927  18.900  0.00  0.00    +0.000 A 
ATOM     16  C   UNL     1       2.709   7.722  17.747  0.00  0.00    +0.000 A 
ATOM     17  C   UNL     1       2.021   8.933  17.763  0.00  0.00    +0.000 A 
ATOM     18  C   UNL     1       1.383   9.351  18.929  0.00  0.00    +0.000 A 
ATOM     19  C   UNL     1       1.415   8.554  20.074  0.00  0.00    +0.000 A 
ATOM     20  C   UNL     1       2.107   7.342  20.065  0.00  0.00    +0.000 A 
ENDBRANCH   3  15
BRANCH   1  21
ATOM     21  O   UNL     1       3.290   2.443  20.380  0.00  0.00    +0.000 OA
BRANCH  21  23
ATOM     22  C   UNL     1       0.994   2.903  20.446  0.00  0.00    +0.000 C 
ATOM     23  C   UNL     1       2.301   2.909  21.179  0.00  0.00    +0.000 C 
ATOM     24  O   UNL     1       2.429   3.281  22.341  0.00  0.00    +0.000 OA
ENDBRANCH  21  23
ENDBRANCH   1  21
TORSDOF 3
ENDMDL
MODEL 6
REMARK VINA RESULT:      -7.3      3.423      5.124
REMARK  Name = 
REMARK  5 active torsions:
REMARK  status: ('A' for Active; 'I' for Inactive)
REMARK    1  A    between atoms: C_1  and  C_2
REMARK    2  A    between atoms: C_2  and  O_4
REMARK    3  A    between atoms: O_4  and  C_5
REMARK    4  A    between atoms: C_7  and  C_8
REMARK    5  A    between atoms: N_21  and  C_22
REMARK                            x       y       z     vdW  Elec       q    Type
REMARK                         _______ _______ _______ _____ _____    ______ ____
ROOT
ATOM      1  C   UNL     1       3.736   3.502  19.413  0.00  0.00    +0.000 C 
ATOM      2  N   UNL     1       3.090   4.803  19.459  0.00  0.00    +0.000 NA
ATOM      3  C   UNL     1       3.623   5.820  18.877  0.00  0.00    +0.000 C 
ATOM      4  C   UNL     1       4.924   5.798  18.146  0.00  0.00    +0.000 A 
ATOM      5  C   UNL     1       5.779   6.906  18.312  0.00  0.00    +0.000 A 
ATOM      6  C   UNL     1       6.968   6.992  17.594  0.00  0.00    +0.000 A 
ATOM      7 BR   UNL     1       8.077   8.511  17.782  0.00  0.00    +0.000 Br
ATOM      8  C   UNL     1       7.339   5.972  16.730  0.00  0.00    +0.000 A 
ATOM      9  C   UNL     1       6.498   4.866  16.569  0.00  0.00    +0.000 A 
ATOM     10  C   UNL     1       5.273   4.760  17.260  0.00  0.00    +0.000 A 
ATOM     11  N   UNL     1       4.434   3.634  16.996  0.00  0.00    +0.000 N 
ATOM     12  C   UNL     1       4.400   3.070  15.653  0.00  0.00    +0.000 C 
ATOM     13  C   UNL     1       3.617   3.005  17.948  0.00  0.00    +0.000 C 
ATOM     14  O   UNL     1       2.891   2.056  17.632  0.00  0.00    +0.000 OA
ENDROOT
BRANCH   3  15
ATOM     15  C   UNL     1       2.826   7.083  18.939  0.00  0.00    +0.000 A 
ATOM     16  C   UNL     1       2.147   7.389  20.126  0.00  0.00    +0.000 A 
ATOM     17  C   UNL     1       1.283   8.479  20.177  0.00  0.00    +0.000 A 
ATOM     18  C   UNL     1       1.096   9.267  19.042  0.00  0.00    +0.000 A 
ATOM     19  C   UNL     1       1.784   8.978  17.863  0.00  0.00    +0.000 A 
ATOM     20  C   UNL     1       2.647   7.883  17.806  0.00  0.00    +0.000 A 
ENDBRANCH   3  15
BRANCH   1  21
ATOM     21  O   UNL     1       3.098   2.524  20.249  0.00  0.00    +0.000 OA
BRANCH  21  23
ATOM     22  C   UNL     1       0.857   3.172  20.454  0.00  0.00    +0.000 C 
ATOM     23  C   UNL     1       2.192   3.027  21.120  0.00  0.00    +0.000 C 
ATOM     24  O   UNL     1       2.404   3.321  22.291  0.00  0.00    +0.000 OA
ENDBRANCH  21  23
ENDBRANCH   1  21
TORSDOF 3
ENDMDL
MODEL 7
REMARK VINA RESULT:      -7.2      3.770      5.382
REMARK  Name = 
REMARK  5 active torsions:
REMARK  status: ('A' for Active; 'I' for Inactive)
REMARK    1  A    between atoms: C_1  and  C_2
REMARK    2  A    between atoms: C_2  and  O_4
REMARK    3  A    between atoms: O_4  and  C_5
REMARK    4  A    between atoms: C_7  and  C_8
REMARK    5  A    between atoms: N_21  and  C_22
REMARK                            x       y       z     vdW  Elec       q    Type
REMARK                         _______ _______ _______ _____ _____    ______ ____
ROOT
ATOM      1  C   UNL     1       1.972   4.004  19.869  0.00  0.00    +0.000 C 
ATOM      2  N   UNL     1       1.762   5.438  19.760  0.00  0.00    +0.000 NA
ATOM      3  C   UNL     1       2.587   6.173  19.100  0.00  0.00    +0.000 C 
ATOM      4  C   UNL     1       3.820   5.674  18.425  0.00  0.00    +0.000 A 
ATOM      5  C   UNL     1       4.976   6.476  18.511  0.00  0.00    +0.000 A 
ATOM      6  C   UNL     1       6.137   6.114  17.834  0.00  0.00    +0.000 A 
ATOM      7 BR   UNL     1       7.661   7.228  17.910  0.00  0.00    +0.000 Br
ATOM      8  C   UNL     1       6.177   4.943  17.090  0.00  0.00    +0.000 A 
ATOM      9  C   UNL     1       5.035   4.140  17.009  0.00  0.00    +0.000 A 
ATOM     10  C   UNL     1       3.834   4.490  17.661  0.00  0.00    +0.000 A 
ATOM     11  N   UNL     1       2.688   3.656  17.479  0.00  0.00    +0.000 N 
ATOM     12  C   UNL     1       2.488   2.990  16.198  0.00  0.00    +0.000 C 
ATOM     13  C   UNL     1       1.712   3.415  18.458  0.00  0.00    +0.000 C 
ATOM     14  O   UNL     1       0.729   2.708  18.211  0.00  0.00    +0.000 OA
ENDROOT
BRANCH   3  15
ATOM     15  C   UNL     1       2.220   7.619  19.005  0.00  0.00    +0.000 A 
ATOM     16  C   UNL     1       1.620   8.232  20.114  0.00  0.00    +0.000 A 
ATOM     17  C   UNL     1       1.137   9.534  20.017  0.00  0.00    +0.000 A 
ATOM     18  C   UNL     1       1.255  10.228  18.813  0.00  0.00    +0.000 A 
ATOM     19  C   UNL     1       1.869   9.629  17.712  0.00  0.00    +0.000 A 
ATOM     20  C   UNL     1       2.349   8.322  17.803  0.00  0.00    +0.000 A 
ENDBRANCH   3  15
BRANCH   1  21
ATOM     21  O   UNL     1       1.058   3.365  20.774  0.00  0.00    +0.000 OA
BRANCH  21  23
ATOM     22  C   UNL     1       3.111   2.457  21.441  0.00  0.00    +0.000 C 
ATOM     23  C   UNL     1       1.642   2.580  21.710  0.00  0.00    +0.000 C 
ATOM     24  O   UNL     1       1.075   2.044  22.656  0.00  0.00    +0.000 OA
ENDBRANCH  21  23
ENDBRANCH   1  21
TORSDOF 3
ENDMDL
MODEL 8
REMARK VINA RESULT:      -7.1      7.776     10.138
REMARK  Name = 
REMARK  5 active torsions:
REMARK  status: ('A' for Active; 'I' for Inactive)
REMARK    1  A    between atoms: C_1  and  C_2
REMARK    2  A    between atoms: C_2  and  O_4
REMARK    3  A    between atoms: O_4  and  C_5
REMARK    4  A    between atoms: C_7  and  C_8
REMARK    5  A    between atoms: N_21  and  C_22
REMARK                            x       y       z     vdW  Elec       q    Type
REMARK                         _______ _______ _______ _____ _____    ______ ____
ROOT
ATOM      1  C   UNL     1      -1.409  11.297  22.055  0.00  0.00    +0.000 C 
ATOM      2  N   UNL     1      -0.393  11.905  21.210  0.00  0.00    +0.000 NA
ATOM      3  C   UNL     1      -0.659  12.222  19.992  0.00  0.00    +0.000 C 
ATOM      4  C   UNL     1      -1.969  11.987  19.316  0.00  0.00    +0.000 A 
ATOM      5  C   UNL     1      -1.938  11.550  17.976  0.00  0.00    +0.000 A 
ATOM      6  C   UNL     1      -3.120  11.394  17.259  0.00  0.00    +0.000 A 
ATOM      7 BR   UNL     1      -3.061  10.864  15.446  0.00  0.00    +0.000 Br
ATOM      8  C   UNL     1      -4.344  11.638  17.866  0.00  0.00    +0.000 A 
ATOM      9  C   UNL     1      -4.380  12.063  19.197  0.00  0.00    +0.000 A 
ATOM     10  C   UNL     1      -3.200  12.257  19.945  0.00  0.00    +0.000 A 
ATOM     11  N   UNL     1      -3.310  12.757  21.279  0.00  0.00    +0.000 N 
ATOM     12  C   UNL     1      -4.371  13.703  21.601  0.00  0.00    +0.000 C 
ATOM     13  C   UNL     1      -2.461  12.402  22.338  0.00  0.00    +0.000 C 
ATOM     14  O   UNL     1      -2.599  12.906  23.458  0.00  0.00    +0.000 OA
ENDROOT
BRANCH   3  15
ATOM     15  C   UNL     1       0.448  12.902  19.252  0.00  0.00    +0.000 A 
ATOM     16  C   UNL     1       1.491  12.119  18.739  0.00  0.00    +0.000 A 
ATOM     17  C   UNL     1       2.607  12.726  18.169  0.00  0.00    +0.000 A 
ATOM     18  C   UNL     1       2.683  14.117  18.110  0.00  0.00    +0.000 A 
ATOM     19  C   UNL     1       1.639  14.901  18.602  0.00  0.00    +0.000 A 
ATOM     20  C   UNL     1       0.521  14.297  19.178  0.00  0.00    +0.000 A 
ENDBRANCH   3  15
BRANCH   1  21
ATOM     21  O   UNL     1      -0.899  10.856  23.323  0.00  0.00    +0.000 OA
BRANCH  21  23
ATOM     22  C   UNL     1      -0.641   8.790  22.251  0.00  0.00    +0.000 C 
ATOM     23  C   UNL     1      -0.112   9.757  23.266  0.00  0.00    +0.000 C 
ATOM     24  O   UNL     1       0.900   9.560  23.931  0.00  0.00    +0.000 OA
ENDBRANCH  21  23
ENDBRANCH   1  21
TORSDOF 3
ENDMDL
MODEL 9
REMARK VINA RESULT:      -6.8      7.764     10.091
REMARK  Name = 
REMARK  5 active torsions:
REMARK  status: ('A' for Active; 'I' for Inactive)
REMARK    1  A    between atoms: C_1  and  C_2
REMARK    2  A    between atoms: C_2  and  O_4
REMARK    3  A    between atoms: O_4  and  C_5
REMARK    4  A    between atoms: C_7  and  C_8
REMARK    5  A    between atoms: N_21  and  C_22
REMARK                            x       y       z     vdW  Elec       q    Type
REMARK                         _______ _______ _______ _____ _____    ______ ____
ROOT
ATOM      1  C   UNL     1      -1.380  11.233  22.168  0.00  0.00    +0.000 C 
ATOM      2  N   UNL     1      -0.326  11.819  21.356  0.00  0.00    +0.000 NA
ATOM      3  C   UNL     1      -0.547  12.147  20.132  0.00  0.00    +0.000 C 
ATOM      4  C   UNL     1      -1.841  11.945  19.416  0.00  0.00    +0.000 A 
ATOM      5  C   UNL     1      -1.779  11.512  18.076  0.00  0.00    +0.000 A 
ATOM      6  C   UNL     1      -2.943  11.386  17.322  0.00  0.00    +0.000 A 
ATOM      7 BR   UNL     1      -2.841  10.861  15.510  0.00  0.00    +0.000 Br
ATOM      8  C   UNL     1      -4.178  11.657  17.893  0.00  0.00    +0.000 A 
ATOM      9  C   UNL     1      -4.245  12.078  19.224  0.00  0.00    +0.000 A 
ATOM     10  C   UNL     1      -3.083  12.242  20.008  0.00  0.00    +0.000 A 
ATOM     11  N   UNL     1      -3.223  12.740  21.340  0.00  0.00    +0.000 N 
ATOM     12  C   UNL     1      -4.270  13.710  21.633  0.00  0.00    +0.000 C 
ATOM     13  C   UNL     1      -2.415  12.361  22.423  0.00  0.00    +0.000 C 
ATOM     14  O   UNL     1      -2.575  12.865  23.540  0.00  0.00    +0.000 OA
ENDROOT
BRANCH   3  15
ATOM     15  C   UNL     1       0.598  12.803  19.429  0.00  0.00    +0.000 A 
ATOM     16  C   UNL     1       0.568  14.193  19.253  0.00  0.00    +0.000 A 
ATOM     17  C   UNL     1       1.543  14.821  18.482  0.00  0.00    +0.000 A 
ATOM     18  C   UNL     1       2.550  14.062  17.887  0.00  0.00    +0.000 A 
ATOM     19  C   UNL     1       2.595  12.680  18.075  0.00  0.00    +0.000 A 
ATOM     20  C   UNL     1       1.617  12.046  18.842  0.00  0.00    +0.000 A 
ENDBRANCH   3  15
BRANCH   1  21
ATOM     21  O   UNL     1      -0.920  10.776  23.449  0.00  0.00    +0.000 OA
BRANCH  21  23
ATOM     22  C   UNL     1      -0.574   8.753  22.322  0.00  0.00    +0.000 C 
ATOM     23  C   UNL     1      -0.124   9.682  23.408  0.00  0.00    +0.000 C 
ATOM     24  O   UNL     1       0.838   9.464  24.136  0.00  0.00    +0.000 OA
ENDBRANCH  21  23
ENDBRANCH   1  21
TORSDOF 3
ENDMDL
