MODEL 1
REMARK VINA RESULT:      -8.1      0.000      0.000
REMARK  Name = 
REMARK  8 active torsions:
REMARK  status: ('A' for Active; 'I' for Inactive)
REMARK    1  A    between atoms: C_1  and  C_2
REMARK    2  A    between atoms: C_2  and  C_3
REMARK    3  A    between atoms: C_2  and  C_4
REMARK    4  A    between atoms: C_7  and  C_8
REMARK    5  A    between atoms: C_10  and  C_11
REMARK    6  A    between atoms: C_11  and  N_12
REMARK    7  A    between atoms: N_15  and  C_16
REMARK    8  A    between atoms: N_20  and  C_21
REMARK                            x       y       z     vdW  Elec       q    Type
REMARK                         _______ _______ _______ _____ _____    ______ ____
ROOT
ATOM      1  C   UNL     1       3.825   6.261  17.797  0.00  0.00    +0.000 A 
ATOM      2  C   UNL     1       4.770   6.378  16.791  0.00  0.00    +0.000 A 
ATOM      3  C   UNL     1       5.555   5.207  16.857  0.00  0.00    +0.000 A 
ATOM      4  N   UNL     1       5.164   4.419  17.865  0.00  0.00    +0.000 NA
ATOM      5  N   UNL     1       3.990   4.960  18.286  0.00  0.00    +0.000 N 
ENDROOT
BRANCH   5   6
ATOM      6  C   UNL     1       3.140   4.188  19.134  0.00  0.00    +0.000 A 
ATOM      7  C   UNL     1       3.664   3.647  20.319  0.00  0.00    +0.000 A 
ATOM      8  C   UNL     1       2.820   3.008  21.224  0.00  0.00    +0.000 A 
ATOM      9  C   UNL     1       1.466   2.878  20.930  0.00  0.00    +0.000 A 
ATOM     10  F   UNL     1       0.651   2.297  21.819  0.00  0.00    +0.000 F 
ATOM     11  C   UNL     1       0.945   3.348  19.730  0.00  0.00    +0.000 A 
ATOM     12  C   UNL     1       1.785   3.993  18.820  0.00  0.00    +0.000 A 
ENDBRANCH   5   6
BRANCH   1  16
ATOM     13  C   UNL     1       1.176   9.310  19.295  0.00  0.00    +0.000 A 
ATOM     14  C   UNL     1       1.581   8.244  20.113  0.00  0.00    +0.000 A 
ATOM     15  C   UNL     1       2.428   7.239  19.625  0.00  0.00    +0.000 A 
ATOM     16  C   UNL     1       2.877   7.268  18.301  0.00  0.00    +0.000 A 
ATOM     17  C   UNL     1       2.392   8.282  17.464  0.00  0.00    +0.000 A 
ATOM     18  C   UNL     1       1.597   9.314  17.963  0.00  0.00    +0.000 A 
BRANCH  13  20
ATOM     19  C   UNL     1      -0.935  10.619  19.058  0.00  0.00    +0.000 C 
ATOM     20  C   UNL     1       0.346  10.439  19.878  0.00  0.00    +0.000 C 
ATOM     21  C   UNL     1       0.008  10.255  21.362  0.00  0.00    +0.000 C 
ENDBRANCH  13  20
ENDBRANCH   1  16
BRANCH   3  22
ATOM     22  C   UNL     1       6.714   4.813  15.984  0.00  0.00    +0.000 C 
BRANCH  22  23
ATOM     23  N   UNL     1       6.348   4.878  14.553  0.00  0.00    +0.000 NA
ATOM     24  C   UNL     1       5.483   3.744  14.157  0.00  0.00    +0.000 C 
ATOM     25  C   UNL     1       5.178   3.727  12.641  0.00  0.00    +0.000 C 
ATOM     26  N   UNL     1       6.365   3.758  11.765  0.00  0.00    +0.000 NA
ATOM     27  C   UNL     1       7.053   2.468  11.749  0.00  0.00    +0.000 C 
ATOM     28  C   UNL     1       7.254   4.851  12.204  0.00  0.00    +0.000 C 
ATOM     29  C   UNL     1       7.569   4.872  13.720  0.00  0.00    +0.000 C 
ENDBRANCH  22  23
ENDBRANCH   3  22
TORSDOF 5
ENDMDL
MODEL 2
REMARK VINA RESULT:      -7.7      0.405      1.297
REMARK  Name = 
REMARK  8 active torsions:
REMARK  status: ('A' for Active; 'I' for Inactive)
REMARK    1  A    between atoms: C_1  and  C_2
REMARK    2  A    between atoms: C_2  and  C_3
REMARK    3  A    between atoms: C_2  and  C_4
REMARK    4  A    between atoms: C_7  and  C_8
REMARK    5  A    between atoms: C_10  and  C_11
REMARK    6  A    between atoms: C_11  and  N_12
REMARK    7  A    between atoms: N_15  and  C_16
REMARK    8  A    between atoms: N_20  and  C_21
REMARK                            x       y       z     vdW  Elec       q    Type
REMARK                         _______ _______ _______ _____ _____    ______ ____
ROOT
ATOM      1  C   UNL     1       3.712   6.414  17.919  0.00  0.00    +0.000 A 
ATOM      2  C   UNL     1       4.656   6.404  16.906  0.00  0.00    +0.000 A 
ATOM      3  C   UNL     1       5.374   5.199  17.055  0.00  0.00    +0.000 A 
ATOM      4  N   UNL     1       4.945   4.509  18.119  0.00  0.00    +0.000 NA
ATOM      5  N   UNL     1       3.806   5.145  18.501  0.00  0.00    +0.000 N 
ENDROOT
BRANCH   5   6
ATOM      6  C   UNL     1       2.919   4.485  19.404  0.00  0.00    +0.000 A 
ATOM      7  C   UNL     1       1.774   3.850  18.897  0.00  0.00    +0.000 A 
ATOM      8  C   UNL     1       0.970   3.087  19.741  0.00  0.00    +0.000 A 
ATOM      9  C   UNL     1       1.289   2.989  21.092  0.00  0.00    +0.000 A 
ATOM     10  F   UNL     1       0.536   2.225  21.893  0.00  0.00    +0.000 F 
ATOM     11  C   UNL     1       2.380   3.667  21.622  0.00  0.00    +0.000 A 
ATOM     12  C   UNL     1       3.192   4.431  20.781  0.00  0.00    +0.000 A 
ENDBRANCH   5   6
BRANCH   1  16
ATOM     13  C   UNL     1       0.987   9.515  19.150  0.00  0.00    +0.000 A 
ATOM     14  C   UNL     1       1.577   9.540  17.876  0.00  0.00    +0.000 A 
ATOM     15  C   UNL     1       2.478   8.544  17.478  0.00  0.00    +0.000 A 
ATOM     16  C   UNL     1       2.825   7.506  18.350  0.00  0.00    +0.000 A 
ATOM     17  C   UNL     1       2.306   7.541  19.651  0.00  0.00    +0.000 A 
ATOM     18  C   UNL     1       1.364   8.499  20.030  0.00  0.00    +0.000 A 
BRANCH  13  20
ATOM     19  C   UNL     1      -1.297  10.370  18.621  0.00  0.00    +0.000 C 
ATOM     20  C   UNL     1      -0.066  10.545  19.517  0.00  0.00    +0.000 C 
ATOM     21  C   UNL     1      -0.473  10.515  20.994  0.00  0.00    +0.000 C 
ENDBRANCH  13  20
ENDBRANCH   1  16
BRANCH   3  22
ATOM     22  C   UNL     1       6.504   4.678  16.212  0.00  0.00    +0.000 C 
BRANCH  22  23
ATOM     23  N   UNL     1       6.206   4.829  14.772  0.00  0.00    +0.000 NA
ATOM     24  C   UNL     1       5.336   3.739  14.276  0.00  0.00    +0.000 C 
ATOM     25  C   UNL     1       5.100   3.811  12.750  0.00  0.00    +0.000 C 
ATOM     26  N   UNL     1       6.327   3.860  11.930  0.00  0.00    +0.000 NA
ATOM     27  C   UNL     1       6.986   2.556  11.875  0.00  0.00    +0.000 C 
ATOM     28  C   UNL     1       7.218   4.905  12.467  0.00  0.00    +0.000 C 
ATOM     29  C   UNL     1       7.464   4.838  13.995  0.00  0.00    +0.000 C 
ENDBRANCH  22  23
ENDBRANCH   3  22
TORSDOF 5
ENDMDL
MODEL 3
REMARK VINA RESULT:      -7.5      2.316      3.472
REMARK  Name = 
REMARK  8 active torsions:
REMARK  status: ('A' for Active; 'I' for Inactive)
REMARK    1  A    between atoms: C_1  and  C_2
REMARK    2  A    between atoms: C_2  and  C_3
REMARK    3  A    between atoms: C_2  and  C_4
REMARK    4  A    between atoms: C_7  and  C_8
REMARK    5  A    between atoms: C_10  and  C_11
REMARK    6  A    between atoms: C_11  and  N_12
REMARK    7  A    between atoms: N_15  and  C_16
REMARK    8  A    between atoms: N_20  and  C_21
REMARK                            x       y       z     vdW  Elec       q    Type
REMARK                         _______ _______ _______ _____ _____    ______ ____
ROOT
ATOM      1  C   UNL     1       2.464   7.525  18.483  0.00  0.00    +0.000 A 
ATOM      2  C   UNL     1       3.165   7.889  17.345  0.00  0.00    +0.000 A 
ATOM      3  C   UNL     1       4.047   6.823  17.074  0.00  0.00    +0.000 A 
ATOM      4  N   UNL     1       3.947   5.863  18.001  0.00  0.00    +0.000 NA
ATOM      5  N   UNL     1       2.843   6.198  18.720  0.00  0.00    +0.000 N 
ENDROOT
BRANCH   5   6
ATOM      6  C   UNL     1       2.260   5.222  19.583  0.00  0.00    +0.000 A 
ATOM      7  C   UNL     1       1.272   4.362  19.076  0.00  0.00    +0.000 A 
ATOM      8  C   UNL     1       0.791   3.317  19.861  0.00  0.00    +0.000 A 
ATOM      9  C   UNL     1       1.267   3.153  21.157  0.00  0.00    +0.000 A 
ATOM     10  F   UNL     1       0.830   2.125  21.896  0.00  0.00    +0.000 F 
ATOM     11  C   UNL     1       2.195   4.036  21.697  0.00  0.00    +0.000 A 
ATOM     12  C   UNL     1       2.684   5.085  20.915  0.00  0.00    +0.000 A 
ENDBRANCH   5   6
BRANCH   1  16
ATOM     13  C   UNL     1      -0.079  10.003  20.923  0.00  0.00    +0.000 A 
ATOM     14  C   UNL     1       0.587   8.895  21.472  0.00  0.00    +0.000 A 
ATOM     15  C   UNL     1       1.400   8.075  20.678  0.00  0.00    +0.000 A 
ATOM     16  C   UNL     1       1.555   8.332  19.312  0.00  0.00    +0.000 A 
ATOM     17  C   UNL     1       0.813   9.382  18.754  0.00  0.00    +0.000 A 
ATOM     18  C   UNL     1       0.049  10.233  19.552  0.00  0.00    +0.000 A 
BRANCH  13  20
ATOM     19  C   UNL     1      -0.913  10.366  23.247  0.00  0.00    +0.000 C 
ATOM     20  C   UNL     1      -0.867  10.935  21.825  0.00  0.00    +0.000 C 
ATOM     21  C   UNL     1      -0.335  12.373  21.844  0.00  0.00    +0.000 C 
ENDBRANCH  13  20
ENDBRANCH   1  16
BRANCH   3  22
ATOM     22  C   UNL     1       5.030   6.693  15.944  0.00  0.00    +0.000 C 
BRANCH  22  23
ATOM     23  N   UNL     1       6.379   6.358  16.447  0.00  0.00    +0.000 NA
ATOM     24  C   UNL     1       6.434   4.982  16.992  0.00  0.00    +0.000 C 
ATOM     25  C   UNL     1       7.803   4.646  17.626  0.00  0.00    +0.000 C 
ATOM     26  N   UNL     1       8.261   5.594  18.661  0.00  0.00    +0.000 NA
ATOM     27  C   UNL     1       7.521   5.423  19.909  0.00  0.00    +0.000 C 
ATOM     28  C   UNL     1       8.146   6.967  18.135  0.00  0.00    +0.000 C 
ATOM     29  C   UNL     1       6.775   7.314  17.502  0.00  0.00    +0.000 C 
ENDBRANCH  22  23
ENDBRANCH   3  22
TORSDOF 5
ENDMDL
MODEL 4
REMARK VINA RESULT:      -7.5      3.618      7.369
REMARK  Name = 
REMARK  8 active torsions:
REMARK  status: ('A' for Active; 'I' for Inactive)
REMARK    1  A    between atoms: C_1  and  C_2
REMARK    2  A    between atoms: C_2  and  C_3
REMARK    3  A    between atoms: C_2  and  C_4
REMARK    4  A    between atoms: C_7  and  C_8
REMARK    5  A    between atoms: C_10  and  C_11
REMARK    6  A    between atoms: C_11  and  N_12
REMARK    7  A    between atoms: N_15  and  C_16
REMARK    8  A    between atoms: N_20  and  C_21
REMARK                            x       y       z     vdW  Elec       q    Type
REMARK                         _______ _______ _______ _____ _____    ______ ____
ROOT
ATOM      1  C   UNL     1       5.745   4.621  17.718  0.00  0.00    +0.000 A 
ATOM      2  C   UNL     1       5.226   3.789  18.697  0.00  0.00    +0.000 A 
ATOM      3  C   UNL     1       4.466   2.814  18.017  0.00  0.00    +0.000 A 
ATOM      4  N   UNL     1       4.466   3.035  16.697  0.00  0.00    +0.000 NA
ATOM      5  N   UNL     1       5.411   3.994  16.511  0.00  0.00    +0.000 N 
ENDROOT
BRANCH   5   6
ATOM      6  C   UNL     1       5.897   4.236  15.191  0.00  0.00    +0.000 A 
ATOM      7  C   UNL     1       7.107   4.929  15.023  0.00  0.00    +0.000 A 
ATOM      8  C   UNL     1       7.665   5.056  13.753  0.00  0.00    +0.000 A 
ATOM      9  C   UNL     1       7.000   4.525  12.653  0.00  0.00    +0.000 A 
ATOM     10  F   UNL     1       7.557   4.616  11.439  0.00  0.00    +0.000 F 
ATOM     11  C   UNL     1       5.768   3.896  12.794  0.00  0.00    +0.000 A 
ATOM     12  C   UNL     1       5.204   3.763  14.064  0.00  0.00    +0.000 A 
ENDBRANCH   5   6
BRANCH   1  16
ATOM     13  C   UNL     1       7.883   8.349  18.011  0.00  0.00    +0.000 A 
ATOM     14  C   UNL     1       8.331   7.208  18.695  0.00  0.00    +0.000 A 
ATOM     15  C   UNL     1       7.628   5.997  18.618  0.00  0.00    +0.000 A 
ATOM     16  C   UNL     1       6.451   5.902  17.868  0.00  0.00    +0.000 A 
ATOM     17  C   UNL     1       5.960   7.070  17.267  0.00  0.00    +0.000 A 
ATOM     18  C   UNL     1       6.687   8.260  17.295  0.00  0.00    +0.000 A 
BRANCH  13  20
ATOM     19  C   UNL     1       7.890  10.790  17.493  0.00  0.00    +0.000 C 
ATOM     20  C   UNL     1       8.719   9.616  18.026  0.00  0.00    +0.000 C 
ATOM     21  C   UNL     1       9.302   9.957  19.401  0.00  0.00    +0.000 C 
ENDBRANCH  13  20
ENDBRANCH   1  16
BRANCH   3  22
ATOM     22  C   UNL     1       3.698   1.661  18.599  0.00  0.00    +0.000 C 
BRANCH  22  23
ATOM     23  N   UNL     1       2.581   2.137  19.442  0.00  0.00    +0.000 NA
ATOM     24  C   UNL     1       1.741   3.127  18.731  0.00  0.00    +0.000 C 
ATOM     25  C   UNL     1       0.633   3.724  19.630  0.00  0.00    +0.000 C 
ATOM     26  N   UNL     1       1.107   4.314  20.897  0.00  0.00    +0.000 NA
ATOM     27  C   UNL     1       1.767   5.598  20.676  0.00  0.00    +0.000 C 
ATOM     28  C   UNL     1       1.993   3.347  21.572  0.00  0.00    +0.000 C 
ATOM     29  C   UNL     1       3.109   2.748  20.681  0.00  0.00    +0.000 C 
ENDBRANCH  22  23
ENDBRANCH   3  22
TORSDOF 5
ENDMDL
MODEL 5
REMARK VINA RESULT:      -7.3      5.621      9.831
REMARK  Name = 
REMARK  8 active torsions:
REMARK  status: ('A' for Active; 'I' for Inactive)
REMARK    1  A    between atoms: C_1  and  C_2
REMARK    2  A    between atoms: C_2  and  C_3
REMARK    3  A    between atoms: C_2  and  C_4
REMARK    4  A    between atoms: C_7  and  C_8
REMARK    5  A    between atoms: C_10  and  C_11
REMARK    6  A    between atoms: C_11  and  N_12
REMARK    7  A    between atoms: N_15  and  C_16
REMARK    8  A    between atoms: N_20  and  C_21
REMARK                            x       y       z     vdW  Elec       q    Type
REMARK                         _______ _______ _______ _____ _____    ______ ____
ROOT
ATOM      1  C   UNL     1       1.063  11.638  18.958  0.00  0.00    +0.000 A 
ATOM      2  C   UNL     1       1.914  12.704  19.200  0.00  0.00    +0.000 A 
ATOM      3  C   UNL     1       1.224  13.857  18.771  0.00  0.00    +0.000 A 
ATOM      4  N   UNL     1       0.033  13.542  18.250  0.00  0.00    +0.000 NA
ATOM      5  N   UNL     1      -0.142  12.231  18.564  0.00  0.00    +0.000 N 
ENDROOT
BRANCH   5   6
ATOM      6  C   UNL     1      -1.444  11.661  18.441  0.00  0.00    +0.000 A 
ATOM      7  C   UNL     1      -2.515  12.243  19.139  0.00  0.00    +0.000 A 
ATOM      8  C   UNL     1      -3.814  11.786  18.926  0.00  0.00    +0.000 A 
ATOM      9  C   UNL     1      -4.037  10.729  18.049  0.00  0.00    +0.000 A 
ATOM     10  F   UNL     1      -5.290  10.317  17.819  0.00  0.00    +0.000 F 
ATOM     11  C   UNL     1      -2.981  10.098  17.403  0.00  0.00    +0.000 A 
ATOM     12  C   UNL     1      -1.676  10.553  17.609  0.00  0.00    +0.000 A 
ENDBRANCH   5   6
BRANCH   1  16
ATOM     13  C   UNL     1       2.014   7.447  19.257  0.00  0.00    +0.000 A 
ATOM     14  C   UNL     1       2.126   8.124  18.032  0.00  0.00    +0.000 A 
ATOM     15  C   UNL     1       1.800   9.483  17.925  0.00  0.00    +0.000 A 
ATOM     16  C   UNL     1       1.338  10.194  19.038  0.00  0.00    +0.000 A 
ATOM     17  C   UNL     1       1.139   9.488  20.232  0.00  0.00    +0.000 A 
ATOM     18  C   UNL     1       1.517   8.151  20.355  0.00  0.00    +0.000 A 
BRANCH  13  20
ATOM     19  C   UNL     1       1.751   5.318  20.531  0.00  0.00    +0.000 C 
ATOM     20  C   UNL     1       2.475   6.005  19.368  0.00  0.00    +0.000 C 
ATOM     21  C   UNL     1       2.296   5.197  18.078  0.00  0.00    +0.000 C 
ENDBRANCH  13  20
ENDBRANCH   1  16
BRANCH   3  22
ATOM     22  C   UNL     1       1.684  15.288  18.817  0.00  0.00    +0.000 C 
BRANCH  22  23
ATOM     23  N   UNL     1       3.109  15.376  19.200  0.00  0.00    +0.000 NA
ATOM     24  C   UNL     1       3.272  15.642  20.647  0.00  0.00    +0.000 C 
ATOM     25  C   UNL     1       4.750  15.850  21.053  0.00  0.00    +0.000 C 
ATOM     26  N   UNL     1       5.467  16.888  20.287  0.00  0.00    +0.000 NA
ATOM     27  C   UNL     1       5.057  18.231  20.691  0.00  0.00    +0.000 C 
ATOM     28  C   UNL     1       5.250  16.654  18.847  0.00  0.00    +0.000 C 
ATOM     29  C   UNL     1       3.773  16.450  18.431  0.00  0.00    +0.000 C 
ENDBRANCH  22  23
ENDBRANCH   3  22
TORSDOF 5
ENDMDL
MODEL 6
REMARK VINA RESULT:      -7.3      5.572     10.874
REMARK  Name = 
REMARK  8 active torsions:
REMARK  status: ('A' for Active; 'I' for Inactive)
REMARK    1  A    between atoms: C_1  and  C_2
REMARK    2  A    between atoms: C_2  and  C_3
REMARK    3  A    between atoms: C_2  and  C_4
REMARK    4  A    between atoms: C_7  and  C_8
REMARK    5  A    between atoms: C_10  and  C_11
REMARK    6  A    between atoms: C_11  and  N_12
REMARK    7  A    between atoms: N_15  and  C_16
REMARK    8  A    between atoms: N_20  and  C_21
REMARK                            x       y       z     vdW  Elec       q    Type
REMARK                         _______ _______ _______ _____ _____    ______ ____
ROOT
ATOM      1  C   UNL     1      -0.424  10.490  18.629  0.00  0.00    +0.000 A 
ATOM      2  C   UNL     1      -1.714  10.335  18.149  0.00  0.00    +0.000 A 
ATOM      3  C   UNL     1      -2.354  11.577  18.345  0.00  0.00    +0.000 A 
ATOM      4  N   UNL     1      -1.540  12.451  18.950  0.00  0.00    +0.000 NA
ATOM      5  N   UNL     1      -0.318  11.856  18.921  0.00  0.00    +0.000 N 
ENDROOT
BRANCH   5   6
ATOM      6  C   UNL     1       0.839  12.646  19.191  0.00  0.00    +0.000 A 
ATOM      7  C   UNL     1       1.100  13.048  20.511  0.00  0.00    +0.000 A 
ATOM      8  C   UNL     1       2.293  13.701  20.816  0.00  0.00    +0.000 A 
ATOM      9  C   UNL     1       3.202  13.983  19.801  0.00  0.00    +0.000 A 
ATOM     10  F   UNL     1       4.363  14.577  20.104  0.00  0.00    +0.000 F 
ATOM     11  C   UNL     1       2.928  13.652  18.479  0.00  0.00    +0.000 A 
ATOM     12  C   UNL     1       1.736  12.994  18.167  0.00  0.00    +0.000 A 
ENDBRANCH   5   6
BRANCH   1  16
ATOM     13  C   UNL     1       2.511   7.392  19.211  0.00  0.00    +0.000 A 
ATOM     14  C   UNL     1       1.795   7.917  20.298  0.00  0.00    +0.000 A 
ATOM     15  C   UNL     1       0.853   8.939  20.117  0.00  0.00    +0.000 A 
ATOM     16  C   UNL     1       0.615   9.471  18.845  0.00  0.00    +0.000 A 
ATOM     17  C   UNL     1       1.401   9.007  17.782  0.00  0.00    +0.000 A 
ATOM     18  C   UNL     1       2.297   7.952  17.950  0.00  0.00    +0.000 A 
BRANCH  13  20
ATOM     19  C   UNL     1       2.678   5.045  20.042  0.00  0.00    +0.000 C 
ATOM     20  C   UNL     1       3.447   6.214  19.419  0.00  0.00    +0.000 C 
ATOM     21  C   UNL     1       4.164   5.761  18.143  0.00  0.00    +0.000 C 
ENDBRANCH  13  20
ENDBRANCH   1  16
BRANCH   3  22
ATOM     22  C   UNL     1      -3.763  11.965  17.990  0.00  0.00    +0.000 C 
BRANCH  22  23
ATOM     23  N   UNL     1      -4.698  11.633  19.086  0.00  0.00    +0.000 NA
ATOM     24  C   UNL     1      -6.067  11.384  18.581  0.00  0.00    +0.000 C 
ATOM     25  C   UNL     1      -7.087  11.145  19.718  0.00  0.00    +0.000 C 
ATOM     26  N   UNL     1      -7.137  12.203  20.745  0.00  0.00    +0.000 NA
ATOM     27  C   UNL     1      -7.810  13.401  20.248  0.00  0.00    +0.000 C 
ATOM     28  C   UNL     1      -5.764  12.492  21.200  0.00  0.00    +0.000 C 
ATOM     29  C   UNL     1      -4.736  12.737  20.068  0.00  0.00    +0.000 C 
ENDBRANCH  22  23
ENDBRANCH   3  22
TORSDOF 5
ENDMDL
MODEL 7
REMARK VINA RESULT:      -7.3      5.459     10.989
REMARK  Name = 
REMARK  8 active torsions:
REMARK  status: ('A' for Active; 'I' for Inactive)
REMARK    1  A    between atoms: C_1  and  C_2
REMARK    2  A    between atoms: C_2  and  C_3
REMARK    3  A    between atoms: C_2  and  C_4
REMARK    4  A    between atoms: C_7  and  C_8
REMARK    5  A    between atoms: C_10  and  C_11
REMARK    6  A    between atoms: C_11  and  N_12
REMARK    7  A    between atoms: N_15  and  C_16
REMARK    8  A    between atoms: N_20  and  C_21
REMARK                            x       y       z     vdW  Elec       q    Type
REMARK                         _______ _______ _______ _____ _____    ______ ____
ROOT
ATOM      1  C   UNL     1       0.312  10.786  20.156  0.00  0.00    +0.000 A 
ATOM      2  C   UNL     1       0.596  11.522  21.295  0.00  0.00    +0.000 A 
ATOM      3  C   UNL     1      -0.169  12.703  21.195  0.00  0.00    +0.000 A 
ATOM      4  N   UNL     1      -0.860  12.737  20.050  0.00  0.00    +0.000 NA
ATOM      5  N   UNL     1      -0.730  11.486  19.535  0.00  0.00    +0.000 N 
ENDROOT
BRANCH   5   6
ATOM      6  C   UNL     1      -1.604  11.079  18.483  0.00  0.00    +0.000 A 
ATOM      7  C   UNL     1      -1.670  11.849  17.311  0.00  0.00    +0.000 A 
ATOM      8  C   UNL     1      -2.412  11.396  16.222  0.00  0.00    +0.000 A 
ATOM      9  C   UNL     1      -3.113  10.199  16.317  0.00  0.00    +0.000 A 
ATOM     10  F   UNL     1      -3.794   9.748  15.256  0.00  0.00    +0.000 F 
ATOM     11  C   UNL     1      -3.113   9.459  17.493  0.00  0.00    +0.000 A 
ATOM     12  C   UNL     1      -2.369   9.905  18.588  0.00  0.00    +0.000 A 
ENDBRANCH   5   6
BRANCH   1  16
ATOM     13  C   UNL     1       2.366   7.276  18.737  0.00  0.00    +0.000 A 
ATOM     14  C   UNL     1       2.036   8.320  17.858  0.00  0.00    +0.000 A 
ATOM     15  C   UNL     1       1.351   9.456  18.312  0.00  0.00    +0.000 A 
ATOM     16  C   UNL     1       0.965   9.568  19.651  0.00  0.00    +0.000 A 
ATOM     17  C   UNL     1       1.214   8.480  20.500  0.00  0.00    +0.000 A 
ATOM     18  C   UNL     1       1.946   7.375  20.065  0.00  0.00    +0.000 A 
BRANCH  13  20
ATOM     19  C   UNL     1       4.205   5.694  19.324  0.00  0.00    +0.000 C 
ATOM     20  C   UNL     1       3.201   6.107  18.244  0.00  0.00    +0.000 C 
ATOM     21  C   UNL     1       2.370   4.899  17.798  0.00  0.00    +0.000 C 
ENDBRANCH  13  20
ENDBRANCH   1  16
BRANCH   3  22
ATOM     22  C   UNL     1      -0.248  13.845  22.170  0.00  0.00    +0.000 C 
BRANCH  22  23
ATOM     23  N   UNL     1      -1.215  13.556  23.250  0.00  0.00    +0.000 NA
ATOM     24  C   UNL     1      -2.384  12.797  22.751  0.00  0.00    +0.000 C 
ATOM     25  C   UNL     1      -3.462  12.579  23.838  0.00  0.00    +0.000 C 
ATOM     26  N   UNL     1      -3.934  13.808  24.505  0.00  0.00    +0.000 NA
ATOM     27  C   UNL     1      -4.815  14.585  23.635  0.00  0.00    +0.000 C 
ATOM     28  C   UNL     1      -2.764  14.592  24.945  0.00  0.00    +0.000 C 
ATOM     29  C   UNL     1      -1.681  14.819  23.861  0.00  0.00    +0.000 C 
ENDBRANCH  22  23
ENDBRANCH   3  22
TORSDOF 5
ENDMDL
MODEL 8
REMARK VINA RESULT:      -7.3      5.294     10.809
REMARK  Name = 
REMARK  8 active torsions:
REMARK  status: ('A' for Active; 'I' for Inactive)
REMARK    1  A    between atoms: C_1  and  C_2
REMARK    2  A    between atoms: C_2  and  C_3
REMARK    3  A    between atoms: C_2  and  C_4
REMARK    4  A    between atoms: C_7  and  C_8
REMARK    5  A    between atoms: C_10  and  C_11
REMARK    6  A    between atoms: C_11  and  N_12
REMARK    7  A    between atoms: N_15  and  C_16
REMARK    8  A    between atoms: N_20  and  C_21
REMARK                            x       y       z     vdW  Elec       q    Type
REMARK                         _______ _______ _______ _____ _____    ______ ____
ROOT
ATOM      1  C   UNL     1       0.265  10.900  20.176  0.00  0.00    +0.000 A 
ATOM      2  C   UNL     1       0.525  11.648  21.312  0.00  0.00    +0.000 A 
ATOM      3  C   UNL     1      -0.272  12.808  21.205  0.00  0.00    +0.000 A 
ATOM      4  N   UNL     1      -0.959  12.818  20.057  0.00  0.00    +0.000 NA
ATOM      5  N   UNL     1      -0.793  11.569  19.548  0.00  0.00    +0.000 N 
ENDROOT
BRANCH   5   6
ATOM      6  C   UNL     1      -1.652  11.135  18.494  0.00  0.00    +0.000 A 
ATOM      7  C   UNL     1      -1.708  11.880  17.305  0.00  0.00    +0.000 A 
ATOM      8  C   UNL     1      -2.434  11.399  16.217  0.00  0.00    +0.000 A 
ATOM      9  C   UNL     1      -3.129  10.200  16.329  0.00  0.00    +0.000 A 
ATOM     10  F   UNL     1      -3.794   9.722  15.270  0.00  0.00    +0.000 F 
ATOM     11  C   UNL     1      -3.139   9.485  17.521  0.00  0.00    +0.000 A 
ATOM     12  C   UNL     1      -2.411   9.959  18.615  0.00  0.00    +0.000 A 
ENDBRANCH   5   6
BRANCH   1  16
ATOM     13  C   UNL     1       2.416   7.437  18.785  0.00  0.00    +0.000 A 
ATOM     14  C   UNL     1       2.103   8.489  17.909  0.00  0.00    +0.000 A 
ATOM     15  C   UNL     1       1.387   9.609  18.352  0.00  0.00    +0.000 A 
ATOM     16  C   UNL     1       0.952   9.698  19.679  0.00  0.00    +0.000 A 
ATOM     17  C   UNL     1       1.186   8.602  20.521  0.00  0.00    +0.000 A 
ATOM     18  C   UNL     1       1.947   7.513  20.098  0.00  0.00    +0.000 A 
BRANCH  13  20
ATOM     19  C   UNL     1       2.398   5.111  17.881  0.00  0.00    +0.000 C 
ATOM     20  C   UNL     1       3.284   6.287  18.306  0.00  0.00    +0.000 C 
ATOM     21  C   UNL     1       4.245   6.667  17.175  0.00  0.00    +0.000 C 
ENDBRANCH  13  20
ENDBRANCH   1  16
BRANCH   3  22
ATOM     22  C   UNL     1      -0.385  13.951  22.174  0.00  0.00    +0.000 C 
BRANCH  22  23
ATOM     23  N   UNL     1      -1.613  13.837  22.990  0.00  0.00    +0.000 NA
ATOM     24  C   UNL     1      -2.136  12.452  23.002  0.00  0.00    +0.000 C 
ATOM     25  C   UNL     1      -3.480  12.329  23.756  0.00  0.00    +0.000 C 
ATOM     26  N   UNL     1      -4.543  13.242  23.292  0.00  0.00    +0.000 NA
ATOM     27  C   UNL     1      -5.099  12.810  22.012  0.00  0.00    +0.000 C 
ATOM     28  C   UNL     1      -3.998  14.611  23.222  0.00  0.00    +0.000 C 
ATOM     29  C   UNL     1      -2.654  14.745  22.464  0.00  0.00    +0.000 C 
ENDBRANCH  22  23
ENDBRANCH   3  22
TORSDOF 5
ENDMDL
MODEL 9
REMARK VINA RESULT:      -7.3      5.969     11.559
REMARK  Name = 
REMARK  8 active torsions:
REMARK  status: ('A' for Active; 'I' for Inactive)
REMARK    1  A    between atoms: C_1  and  C_2
REMARK    2  A    between atoms: C_2  and  C_3
REMARK    3  A    between atoms: C_2  and  C_4
REMARK    4  A    between atoms: C_7  and  C_8
REMARK    5  A    between atoms: C_10  and  C_11
REMARK    6  A    between atoms: C_11  and  N_12
REMARK    7  A    between atoms: N_15  and  C_16
REMARK    8  A    between atoms: N_20  and  C_21
REMARK                            x       y       z     vdW  Elec       q    Type
REMARK                         _______ _______ _______ _____ _____    ______ ____
ROOT
ATOM      1  C   UNL     1      -0.158  11.005  19.469  0.00  0.00    +0.000 A 
ATOM      2  C   UNL     1      -1.543  10.995  19.500  0.00  0.00    +0.000 A 
ATOM      3  C   UNL     1      -1.931  12.266  19.973  0.00  0.00    +0.000 A 
ATOM      4  N   UNL     1      -0.864  13.020  20.266  0.00  0.00    +0.000 NA
ATOM      5  N   UNL     1       0.191  12.330  19.757  0.00  0.00    +0.000 N 
ENDROOT
BRANCH   5   6
ATOM      6  C   UNL     1       1.443  12.998  19.608  0.00  0.00    +0.000 A 
ATOM      7  C   UNL     1       1.889  13.339  18.321  0.00  0.00    +0.000 A 
ATOM      8  C   UNL     1       3.039  14.110  18.165  0.00  0.00    +0.000 A 
ATOM      9  C   UNL     1       3.760  14.506  19.286  0.00  0.00    +0.000 A 
ATOM     10  F   UNL     1       4.844  15.278  19.135  0.00  0.00    +0.000 F 
ATOM     11  C   UNL     1       3.370  14.119  20.563  0.00  0.00    +0.000 A 
ATOM     12  C   UNL     1       2.217  13.349  20.727  0.00  0.00    +0.000 A 
ENDBRANCH   5   6
BRANCH   1  16
ATOM     13  C   UNL     1       2.446   7.656  18.724  0.00  0.00    +0.000 A 
ATOM     14  C   UNL     1       1.899   7.871  19.998  0.00  0.00    +0.000 A 
ATOM     15  C   UNL     1       1.065   8.970  20.250  0.00  0.00    +0.000 A 
ATOM     16  C   UNL     1       0.773   9.890  19.238  0.00  0.00    +0.000 A 
ATOM     17  C   UNL     1       1.400   9.720  17.996  0.00  0.00    +0.000 A 
ATOM     18  C   UNL     1       2.182   8.597  17.726  0.00  0.00    +0.000 A 
BRANCH  13  20
ATOM     19  C   UNL     1       2.315   5.225  18.174  0.00  0.00    +0.000 C 
ATOM     20  C   UNL     1       3.257   6.402  18.451  0.00  0.00    +0.000 C 
ATOM     21  C   UNL     1       4.267   6.555  17.308  0.00  0.00    +0.000 C 
ENDBRANCH  13  20
ENDBRANCH   1  16
BRANCH   3  22
ATOM     22  C   UNL     1      -3.321  12.795  20.187  0.00  0.00    +0.000 C 
BRANCH  22  23
ATOM     23  N   UNL     1      -3.417  13.540  21.460  0.00  0.00    +0.000 NA
ATOM     24  C   UNL     1      -3.901  12.679  22.563  0.00  0.00    +0.000 C 
ATOM     25  C   UNL     1      -4.117  13.462  23.879  0.00  0.00    +0.000 C 
ATOM     26  N   UNL     1      -4.995  14.642  23.767  0.00  0.00    +0.000 NA
ATOM     27  C   UNL     1      -6.398  14.256  23.643  0.00  0.00    +0.000 C 
ATOM     28  C   UNL     1      -4.546  15.465  22.628  0.00  0.00    +0.000 C 
ATOM     29  C   UNL     1      -4.332  14.691  21.304  0.00  0.00    +0.000 C 
ENDBRANCH  22  23
ENDBRANCH   3  22
TORSDOF 5
ENDMDL
