MODEL 1
REMARK VINA RESULT:      -6.8      0.000      0.000
REMARK  Name = 
REMARK  7 active torsions:
REMARK  status: ('A' for Active; 'I' for Inactive)
REMARK    1  A    between atoms: C_1  and  O_2
REMARK    2  A    between atoms: O_2  and  C_3
REMARK    3  A    between atoms: C_3  and  C_5
REMARK    4  A    between atoms: C_9  and  N_10
REMARK    5  A    between atoms: C_11  and  C_13
REMARK    6  A    between atoms: C_13  and  S_14
REMARK    7  A    between atoms: S_14  and  C_15
REMARK                            x       y       z     vdW  Elec       q    Type
REMARK                         _______ _______ _______ _____ _____    ______ ____
ROOT
ATOM      1  N   UNL     1       2.395   4.784  18.522  0.00  0.00    +0.000 N 
ATOM      2  C   UNL     1       1.980   5.074  19.819  0.00  0.00    +0.000 C 
ATOM      3  O   UNL     1       2.458   5.950  20.541  0.00  0.00    +0.000 OA
ATOM      4  H   UNL     1       1.792   4.176  17.975  0.00  0.00    +0.000 HD
ENDROOT
BRANCH   1   9
ATOM      5  C   UNL     1       5.568   5.237  16.614  0.00  0.00    +0.000 A 
ATOM      6  C   UNL     1       5.569   6.623  16.407  0.00  0.00    +0.000 A 
ATOM      7  C   UNL     1       4.543   7.401  16.922  0.00  0.00    +0.000 A 
ATOM      8  C   UNL     1       3.503   6.802  17.633  0.00  0.00    +0.000 A 
ATOM      9  C   UNL     1       3.456   5.419  17.828  0.00  0.00    +0.000 A 
ATOM     10  C   UNL     1       4.507   4.637  17.326  0.00  0.00    +0.000 A 
BRANCH   5  11
ATOM     11  C   UNL     1       6.672   4.387  16.089  0.00  0.00    +0.000 C 
ATOM     12  O   UNL     1       7.839   4.501  16.433  0.00  0.00    +0.000 OA
BRANCH  11  14
ATOM     13  C   UNL     1       6.133   3.958  13.837  0.00  0.00    +0.000 C 
ATOM     14  O   UNL     1       6.189   3.496  15.187  0.00  0.00    +0.000 OA
ENDBRANCH  11  14
ENDBRANCH   5  11
ENDBRANCH   1   9
BRANCH   2  15
ATOM     15  C   UNL     1       0.840   4.202  20.328  0.00  0.00    +0.000 C 
BRANCH  15  16
ATOM     16  S   UNL     1       1.480   2.790  21.272  0.00  0.00    +0.000 S 
BRANCH  16  17
ATOM     17  C   UNL     1       2.713   2.270  20.162  0.00  0.00    +0.000 A 
ATOM     18  N   UNL     1       2.426   1.682  18.958  0.00  0.00    +0.000 NA
ATOM     19  C   UNL     1       3.615   1.392  18.488  0.00  0.00    +0.000 A 
ATOM     20  N   UNL     1       4.565   1.773  19.383  0.00  0.00    +0.000 N 
ATOM     21  N   UNL     1       4.011   2.367  20.450  0.00  0.00    +0.000 NA
ATOM     22  H   UNL     1       5.571   1.660  19.342  0.00  0.00    +0.000 HD
ENDBRANCH  16  17
ENDBRANCH  15  16
ENDBRANCH   2  15
TORSDOF 6
ENDMDL
MODEL 2
REMARK VINA RESULT:      -6.7      2.348      3.722
REMARK  Name = 
REMARK  7 active torsions:
REMARK  status: ('A' for Active; 'I' for Inactive)
REMARK    1  A    between atoms: C_1  and  O_2
REMARK    2  A    between atoms: O_2  and  C_3
REMARK    3  A    between atoms: C_3  and  C_5
REMARK    4  A    between atoms: C_9  and  N_10
REMARK    5  A    between atoms: C_11  and  C_13
REMARK    6  A    between atoms: C_13  and  S_14
REMARK    7  A    between atoms: S_14  and  C_15
REMARK                            x       y       z     vdW  Elec       q    Type
REMARK                         _______ _______ _______ _____ _____    ______ ____
ROOT
ATOM      1  N   UNL     1       4.039   3.390  17.588  0.00  0.00    +0.000 N 
ATOM      2  C   UNL     1       4.057   2.856  18.874  0.00  0.00    +0.000 C 
ATOM      3  O   UNL     1       5.003   2.920  19.659  0.00  0.00    +0.000 OA
ATOM      4  H   UNL     1       3.136   3.437  17.126  0.00  0.00    +0.000 HD
ENDROOT
BRANCH   1   9
ATOM      5  C   UNL     1       6.914   5.709  17.071  0.00  0.00    +0.000 A 
ATOM      6  C   UNL     1       7.286   5.397  15.757  0.00  0.00    +0.000 A 
ATOM      7  C   UNL     1       6.571   4.449  15.041  0.00  0.00    +0.000 A 
ATOM      8  C   UNL     1       5.490   3.796  15.634  0.00  0.00    +0.000 A 
ATOM      9  C   UNL     1       5.115   4.062  16.954  0.00  0.00    +0.000 A 
ATOM     10  C   UNL     1       5.827   5.037  17.668  0.00  0.00    +0.000 A 
BRANCH   5  11
ATOM     11  C   UNL     1       7.656   6.739  17.849  0.00  0.00    +0.000 C 
ATOM     12  O   UNL     1       8.028   6.580  19.003  0.00  0.00    +0.000 OA
BRANCH  11  14
ATOM     13  C   UNL     1       7.993   9.069  17.828  0.00  0.00    +0.000 C 
ATOM     14  O   UNL     1       7.843   7.852  17.096  0.00  0.00    +0.000 OA
ENDBRANCH  11  14
ENDBRANCH   5  11
ENDBRANCH   1   9
BRANCH   2  15
ATOM     15  C   UNL     1       2.770   2.149  19.282  0.00  0.00    +0.000 C 
BRANCH  15  16
ATOM     16  S   UNL     1       1.317   3.122  18.796  0.00  0.00    +0.000 S 
BRANCH  16  17
ATOM     17  C   UNL     1       1.775   4.645  19.500  0.00  0.00    +0.000 A 
ATOM     18  N   UNL     1       2.248   5.693  18.756  0.00  0.00    +0.000 NA
ATOM     19  C   UNL     1       2.531   6.590  19.669  0.00  0.00    +0.000 A 
ATOM     20  N   UNL     1       2.256   6.089  20.902  0.00  0.00    +0.000 N 
ATOM     21  N   UNL     1       1.741   4.854  20.816  0.00  0.00    +0.000 NA
ATOM     22  H   UNL     1       2.394   6.510  21.814  0.00  0.00    +0.000 HD
ENDBRANCH  16  17
ENDBRANCH  15  16
ENDBRANCH   2  15
TORSDOF 6
ENDMDL
MODEL 3
REMARK VINA RESULT:      -6.6      2.071      2.921
REMARK  Name = 
REMARK  7 active torsions:
REMARK  status: ('A' for Active; 'I' for Inactive)
REMARK    1  A    between atoms: C_1  and  O_2
REMARK    2  A    between atoms: O_2  and  C_3
REMARK    3  A    between atoms: C_3  and  C_5
REMARK    4  A    between atoms: C_9  and  N_10
REMARK    5  A    between atoms: C_11  and  C_13
REMARK    6  A    between atoms: C_13  and  S_14
REMARK    7  A    between atoms: S_14  and  C_15
REMARK                            x       y       z     vdW  Elec       q    Type
REMARK                         _______ _______ _______ _____ _____    ______ ____
ROOT
ATOM      1  N   UNL     1       4.486   3.253  18.461  0.00  0.00    +0.000 N 
ATOM      2  C   UNL     1       3.297   2.823  17.876  0.00  0.00    +0.000 C 
ATOM      3  O   UNL     1       2.882   3.169  16.770  0.00  0.00    +0.000 OA
ATOM      4  H   UNL     1       4.801   2.743  19.282  0.00  0.00    +0.000 HD
ENDROOT
BRANCH   1   9
ATOM      5  C   UNL     1       6.649   4.982  15.963  0.00  0.00    +0.000 A 
ATOM      6  C   UNL     1       7.169   6.033  16.729  0.00  0.00    +0.000 A 
ATOM      7  C   UNL     1       6.828   6.148  18.069  0.00  0.00    +0.000 A 
ATOM      8  C   UNL     1       5.956   5.225  18.648  0.00  0.00    +0.000 A 
ATOM      9  C   UNL     1       5.396   4.185  17.902  0.00  0.00    +0.000 A 
ATOM     10  C   UNL     1       5.761   4.059  16.553  0.00  0.00    +0.000 A 
BRANCH   5  11
ATOM     11  C   UNL     1       7.020   4.829  14.529  0.00  0.00    +0.000 C 
ATOM     12  O   UNL     1       7.841   5.535  13.961  0.00  0.00    +0.000 OA
BRANCH  11  14
ATOM     13  C   UNL     1       6.493   3.649  12.561  0.00  0.00    +0.000 C 
ATOM     14  O   UNL     1       6.316   3.814  13.968  0.00  0.00    +0.000 OA
ENDBRANCH  11  14
ENDBRANCH   5  11
ENDBRANCH   1   9
BRANCH   2  15
ATOM     15  C   UNL     1       2.492   1.847  18.724  0.00  0.00    +0.000 C 
BRANCH  15  16
ATOM     16  S   UNL     1       0.929   2.597  19.262  0.00  0.00    +0.000 S 
BRANCH  16  17
ATOM     17  C   UNL     1       1.561   4.081  19.911  0.00  0.00    +0.000 A 
ATOM     18  N   UNL     1       1.758   5.200  19.145  0.00  0.00    +0.000 NA
ATOM     19  C   UNL     1       2.300   6.039  19.994  0.00  0.00    +0.000 A 
ATOM     20  N   UNL     1       2.439   5.437  21.205  0.00  0.00    +0.000 N 
ATOM     21  N   UNL     1       1.943   4.192  21.184  0.00  0.00    +0.000 NA
ATOM     22  H   UNL     1       2.852   5.795  22.059  0.00  0.00    +0.000 HD
ENDBRANCH  16  17
ENDBRANCH  15  16
ENDBRANCH   2  15
TORSDOF 6
ENDMDL
MODEL 4
REMARK VINA RESULT:      -6.5      2.771      4.453
REMARK  Name = 
REMARK  7 active torsions:
REMARK  status: ('A' for Active; 'I' for Inactive)
REMARK    1  A    between atoms: C_1  and  O_2
REMARK    2  A    between atoms: O_2  and  C_3
REMARK    3  A    between atoms: C_3  and  C_5
REMARK    4  A    between atoms: C_9  and  N_10
REMARK    5  A    between atoms: C_11  and  C_13
REMARK    6  A    between atoms: C_13  and  S_14
REMARK    7  A    between atoms: S_14  and  C_15
REMARK                            x       y       z     vdW  Elec       q    Type
REMARK                         _______ _______ _______ _____ _____    ______ ____
ROOT
ATOM      1  N   UNL     1       6.073   4.939  15.946  0.00  0.00    +0.000 N 
ATOM      2  C   UNL     1       5.425   6.075  16.425  0.00  0.00    +0.000 C 
ATOM      3  O   UNL     1       5.049   7.024  15.736  0.00  0.00    +0.000 OA
ATOM      4  H   UNL     1       6.151   4.154  16.586  0.00  0.00    +0.000 HD
ENDROOT
BRANCH   1   9
ATOM      5  C   UNL     1       6.006   3.570  12.477  0.00  0.00    +0.000 A 
ATOM      6  C   UNL     1       7.106   4.220  11.903  0.00  0.00    +0.000 A 
ATOM      7  C   UNL     1       7.879   5.080  12.669  0.00  0.00    +0.000 A 
ATOM      8  C   UNL     1       7.552   5.308  14.006  0.00  0.00    +0.000 A 
ATOM      9  C   UNL     1       6.443   4.700  14.598  0.00  0.00    +0.000 A 
ATOM     10  C   UNL     1       5.676   3.813  13.827  0.00  0.00    +0.000 A 
BRANCH   5  11
ATOM     11  C   UNL     1       5.176   2.626  11.678  0.00  0.00    +0.000 C 
ATOM     12  O   UNL     1       5.602   1.582  11.205  0.00  0.00    +0.000 OA
BRANCH  11  14
ATOM     13  C   UNL     1       3.561   3.592  10.264  0.00  0.00    +0.000 C 
ATOM     14  O   UNL     1       3.911   3.100  11.558  0.00  0.00    +0.000 OA
ENDBRANCH  11  14
ENDBRANCH   5  11
ENDBRANCH   1   9
BRANCH   2  15
ATOM     15  C   UNL     1       5.191   6.082  17.930  0.00  0.00    +0.000 C 
BRANCH  15  16
ATOM     16  S   UNL     1       3.433   5.838  18.310  0.00  0.00    +0.000 S 
BRANCH  16  17
ATOM     17  C   UNL     1       3.440   4.108  18.483  0.00  0.00    +0.000 A 
ATOM     18  N   UNL     1       3.615   3.258  17.423  0.00  0.00    +0.000 NA
ATOM     19  C   UNL     1       3.482   2.077  17.975  0.00  0.00    +0.000 A 
ATOM     20  N   UNL     1       3.219   2.220  19.301  0.00  0.00    +0.000 N 
ATOM     21  N   UNL     1       3.219   3.513  19.655  0.00  0.00    +0.000 NA
ATOM     22  H   UNL     1       3.029   1.511  20.001  0.00  0.00    +0.000 HD
ENDBRANCH  16  17
ENDBRANCH  15  16
ENDBRANCH   2  15
TORSDOF 6
ENDMDL
MODEL 5
REMARK VINA RESULT:      -6.5      3.298      6.139
REMARK  Name = 
REMARK  7 active torsions:
REMARK  status: ('A' for Active; 'I' for Inactive)
REMARK    1  A    between atoms: C_1  and  O_2
REMARK    2  A    between atoms: O_2  and  C_3
REMARK    3  A    between atoms: C_3  and  C_5
REMARK    4  A    between atoms: C_9  and  N_10
REMARK    5  A    between atoms: C_11  and  C_13
REMARK    6  A    between atoms: C_13  and  S_14
REMARK    7  A    between atoms: S_14  and  C_15
REMARK                            x       y       z     vdW  Elec       q    Type
REMARK                         _______ _______ _______ _____ _____    ______ ____
ROOT
ATOM      1  N   UNL     1       5.751   3.863  18.800  0.00  0.00    +0.000 N 
ATOM      2  C   UNL     1       6.038   5.158  19.225  0.00  0.00    +0.000 C 
ATOM      3  O   UNL     1       5.218   5.956  19.680  0.00  0.00    +0.000 OA
ATOM      4  H   UNL     1       6.546   3.251  18.634  0.00  0.00    +0.000 HD
ENDROOT
BRANCH   1   9
ATOM      5  C   UNL     1       2.310   2.900  19.866  0.00  0.00    +0.000 A 
ATOM      6  C   UNL     1       1.893   2.120  18.779  0.00  0.00    +0.000 A 
ATOM      7  C   UNL     1       2.757   1.894  17.718  0.00  0.00    +0.000 A 
ATOM      8  C   UNL     1       4.035   2.452  17.727  0.00  0.00    +0.000 A 
ATOM      9  C   UNL     1       4.469   3.260  18.782  0.00  0.00    +0.000 A 
ATOM     10  C   UNL     1       3.601   3.470  19.864  0.00  0.00    +0.000 A 
BRANCH   5  11
ATOM     11  C   UNL     1       1.405   3.137  21.025  0.00  0.00    +0.000 C 
ATOM     12  O   UNL     1       1.383   2.433  22.024  0.00  0.00    +0.000 OA
BRANCH  11  14
ATOM     13  C   UNL     1       1.326   5.466  20.687  0.00  0.00    +0.000 C 
ATOM     14  O   UNL     1       0.628   4.226  20.797  0.00  0.00    +0.000 OA
ENDBRANCH  11  14
ENDBRANCH   5  11
ENDBRANCH   1   9
BRANCH   2  15
ATOM     15  C   UNL     1       7.502   5.558  19.093  0.00  0.00    +0.000 C 
BRANCH  15  16
ATOM     16  S   UNL     1       7.707   6.845  17.830  0.00  0.00    +0.000 S 
BRANCH  16  17
ATOM     17  C   UNL     1       6.977   6.014  16.489  0.00  0.00    +0.000 A 
ATOM     18  N   UNL     1       7.454   4.823  16.007  0.00  0.00    +0.000 NA
ATOM     19  C   UNL     1       6.675   4.596  14.977  0.00  0.00    +0.000 A 
ATOM     20  N   UNL     1       5.789   5.618  14.842  0.00  0.00    +0.000 N 
ATOM     21  N   UNL     1       5.944   6.523  15.819  0.00  0.00    +0.000 NA
ATOM     22  H   UNL     1       5.080   5.766  14.132  0.00  0.00    +0.000 HD
ENDBRANCH  16  17
ENDBRANCH  15  16
ENDBRANCH   2  15
TORSDOF 6
ENDMDL
MODEL 6
REMARK VINA RESULT:      -6.5      2.685      4.412
REMARK  Name = 
REMARK  7 active torsions:
REMARK  status: ('A' for Active; 'I' for Inactive)
REMARK    1  A    between atoms: C_1  and  O_2
REMARK    2  A    between atoms: O_2  and  C_3
REMARK    3  A    between atoms: C_3  and  C_5
REMARK    4  A    between atoms: C_9  and  N_10
REMARK    5  A    between atoms: C_11  and  C_13
REMARK    6  A    between atoms: C_13  and  S_14
REMARK    7  A    between atoms: S_14  and  C_15
REMARK                            x       y       z     vdW  Elec       q    Type
REMARK                         _______ _______ _______ _____ _____    ______ ____
ROOT
ATOM      1  N   UNL     1       5.969   4.892  16.079  0.00  0.00    +0.000 N 
ATOM      2  C   UNL     1       5.843   6.130  16.705  0.00  0.00    +0.000 C 
ATOM      3  O   UNL     1       6.034   7.222  16.169  0.00  0.00    +0.000 OA
ATOM      4  H   UNL     1       5.594   4.090  16.577  0.00  0.00    +0.000 HD
ENDROOT
BRANCH   1   9
ATOM      5  C   UNL     1       6.002   3.575  12.590  0.00  0.00    +0.000 A 
ATOM      6  C   UNL     1       7.109   4.246  12.053  0.00  0.00    +0.000 A 
ATOM      7  C   UNL     1       7.853   5.104  12.851  0.00  0.00    +0.000 A 
ATOM      8  C   UNL     1       7.491   5.308  14.182  0.00  0.00    +0.000 A 
ATOM      9  C   UNL     1       6.374   4.678  14.738  0.00  0.00    +0.000 A 
ATOM     10  C   UNL     1       5.636   3.795  13.935  0.00  0.00    +0.000 A 
BRANCH   5  11
ATOM     11  C   UNL     1       5.204   2.635  11.756  0.00  0.00    +0.000 C 
ATOM     12  O   UNL     1       5.652   1.602  11.280  0.00  0.00    +0.000 OA
BRANCH  11  14
ATOM     13  C   UNL     1       3.646   3.697  10.346  0.00  0.00    +0.000 C 
ATOM     14  O   UNL     1       3.937   3.098  11.609  0.00  0.00    +0.000 OA
ENDBRANCH  11  14
ENDBRANCH   5  11
ENDBRANCH   1   9
BRANCH   2  15
ATOM     15  C   UNL     1       5.430   6.059  18.170  0.00  0.00    +0.000 C 
BRANCH  15  16
ATOM     16  S   UNL     1       3.712   5.497  18.329  0.00  0.00    +0.000 S 
BRANCH  16  17
ATOM     17  C   UNL     1       4.003   3.993  19.152  0.00  0.00    +0.000 A 
ATOM     18  N   UNL     1       3.079   3.411  19.979  0.00  0.00    +0.000 NA
ATOM     19  C   UNL     1       3.720   2.361  20.433  0.00  0.00    +0.000 A 
ATOM     20  N   UNL     1       4.976   2.333  19.914  0.00  0.00    +0.000 N 
ATOM     21  N   UNL     1       5.169   3.353  19.065  0.00  0.00    +0.000 NA
ATOM     22  H   UNL     1       5.731   1.680  20.089  0.00  0.00    +0.000 HD
ENDBRANCH  16  17
ENDBRANCH  15  16
ENDBRANCH   2  15
TORSDOF 6
ENDMDL
MODEL 7
REMARK VINA RESULT:      -6.5      3.269      5.876
REMARK  Name = 
REMARK  7 active torsions:
REMARK  status: ('A' for Active; 'I' for Inactive)
REMARK    1  A    between atoms: C_1  and  O_2
REMARK    2  A    between atoms: O_2  and  C_3
REMARK    3  A    between atoms: C_3  and  C_5
REMARK    4  A    between atoms: C_9  and  N_10
REMARK    5  A    between atoms: C_11  and  C_13
REMARK    6  A    between atoms: C_13  and  S_14
REMARK    7  A    between atoms: S_14  and  C_15
REMARK                            x       y       z     vdW  Elec       q    Type
REMARK                         _______ _______ _______ _____ _____    ______ ____
ROOT
ATOM      1  N   UNL     1       2.684   5.809  20.290  0.00  0.00    +0.000 N 
ATOM      2  C   UNL     1       1.873   4.719  20.596  0.00  0.00    +0.000 C 
ATOM      3  O   UNL     1       0.659   4.659  20.404  0.00  0.00    +0.000 OA
ATOM      4  H   UNL     1       3.688   5.653  20.318  0.00  0.00    +0.000 HD
ENDROOT
BRANCH   1   9
ATOM      5  C   UNL     1       1.072   9.163  20.043  0.00  0.00    +0.000 A 
ATOM      6  C   UNL     1       1.386   9.523  18.726  0.00  0.00    +0.000 A 
ATOM      7  C   UNL     1       2.099   8.648  17.920  0.00  0.00    +0.000 A 
ATOM      8  C   UNL     1       2.516   7.416  18.425  0.00  0.00    +0.000 A 
ATOM      9  C   UNL     1       2.246   7.042  19.745  0.00  0.00    +0.000 A 
ATOM     10  C   UNL     1       1.506   7.920  20.550  0.00  0.00    +0.000 A 
BRANCH   5  11
ATOM     11  C   UNL     1       0.289  10.080  20.917  0.00  0.00    +0.000 C 
ATOM     12  O   UNL     1       0.270  11.295  20.782  0.00  0.00    +0.000 OA
BRANCH  11  14
ATOM     13  C   UNL     1      -0.531  10.026  23.123  0.00  0.00    +0.000 C 
ATOM     14  O   UNL     1      -0.375   9.371  21.865  0.00  0.00    +0.000 OA
ENDBRANCH  11  14
ENDBRANCH   5  11
ENDBRANCH   1   9
BRANCH   2  15
ATOM     15  C   UNL     1       2.609   3.537  21.214  0.00  0.00    +0.000 C 
BRANCH  15  16
ATOM     16  S   UNL     1       3.029   2.306  19.947  0.00  0.00    +0.000 S 
BRANCH  16  17
ATOM     17  C   UNL     1       4.192   3.237  19.051  0.00  0.00    +0.000 A 
ATOM     18  N   UNL     1       3.931   3.748  17.807  0.00  0.00    +0.000 NA
ATOM     19  C   UNL     1       5.073   4.302  17.478  0.00  0.00    +0.000 A 
ATOM     20  N   UNL     1       5.977   4.111  18.475  0.00  0.00    +0.000 N 
ATOM     21  N   UNL     1       5.425   3.457  19.507  0.00  0.00    +0.000 NA
ATOM     22  H   UNL     1       6.953   4.380  18.520  0.00  0.00    +0.000 HD
ENDBRANCH  16  17
ENDBRANCH  15  16
ENDBRANCH   2  15
TORSDOF 6
ENDMDL
MODEL 8
REMARK VINA RESULT:      -6.5      3.813      6.523
REMARK  Name = 
REMARK  7 active torsions:
REMARK  status: ('A' for Active; 'I' for Inactive)
REMARK    1  A    between atoms: C_1  and  O_2
REMARK    2  A    between atoms: O_2  and  C_3
REMARK    3  A    between atoms: C_3  and  C_5
REMARK    4  A    between atoms: C_9  and  N_10
REMARK    5  A    between atoms: C_11  and  C_13
REMARK    6  A    between atoms: C_13  and  S_14
REMARK    7  A    between atoms: S_14  and  C_15
REMARK                            x       y       z     vdW  Elec       q    Type
REMARK                         _______ _______ _______ _____ _____    ______ ____
ROOT
ATOM      1  N   UNL     1       4.642   5.009  18.182  0.00  0.00    +0.000 N 
ATOM      2  C   UNL     1       6.005   4.971  18.468  0.00  0.00    +0.000 C 
ATOM      3  O   UNL     1       6.502   5.094  19.587  0.00  0.00    +0.000 OA
ATOM      4  H   UNL     1       4.362   4.701  17.256  0.00  0.00    +0.000 HD
ENDROOT
BRANCH   1   9
ATOM      5  C   UNL     1       2.040   6.782  20.181  0.00  0.00    +0.000 A 
ATOM      6  C   UNL     1       1.512   5.730  20.941  0.00  0.00    +0.000 A 
ATOM      7  C   UNL     1       2.036   4.452  20.812  0.00  0.00    +0.000 A 
ATOM      8  C   UNL     1       3.078   4.212  19.916  0.00  0.00    +0.000 A 
ATOM      9  C   UNL     1       3.604   5.234  19.121  0.00  0.00    +0.000 A 
ATOM     10  C   UNL     1       3.087   6.530  19.269  0.00  0.00    +0.000 A 
BRANCH   5  11
ATOM     11  C   UNL     1       1.506   8.165  20.320  0.00  0.00    +0.000 C 
ATOM     12  O   UNL     1       1.059   8.617  21.364  0.00  0.00    +0.000 OA
BRANCH  11  14
ATOM     13  C   UNL     1       0.940  10.093  19.093  0.00  0.00    +0.000 C 
ATOM     14  O   UNL     1       1.586   8.821  19.135  0.00  0.00    +0.000 OA
ENDBRANCH  11  14
ENDBRANCH   5  11
ENDBRANCH   1   9
BRANCH   2  15
ATOM     15  C   UNL     1       6.900   4.754  17.254  0.00  0.00    +0.000 C 
BRANCH  15  16
ATOM     16  S   UNL     1       6.002   3.882  15.939  0.00  0.00    +0.000 S 
BRANCH  16  17
ATOM     17  C   UNL     1       6.825   4.559  14.566  0.00  0.00    +0.000 A 
ATOM     18  N   UNL     1       6.633   4.103  13.288  0.00  0.00    +0.000 NA
ATOM     19  C   UNL     1       7.480   4.824  12.595  0.00  0.00    +0.000 A 
ATOM     20  N   UNL     1       8.159   5.657  13.427  0.00  0.00    +0.000 N 
ATOM     21  N   UNL     1       7.733   5.527  14.692  0.00  0.00    +0.000 NA
ATOM     22  H   UNL     1       8.903   6.313  13.216  0.00  0.00    +0.000 HD
ENDBRANCH  16  17
ENDBRANCH  15  16
ENDBRANCH   2  15
TORSDOF 6
ENDMDL
MODEL 9
REMARK VINA RESULT:      -6.5      2.060      3.057
REMARK  Name = 
REMARK  7 active torsions:
REMARK  status: ('A' for Active; 'I' for Inactive)
REMARK    1  A    between atoms: C_1  and  O_2
REMARK    2  A    between atoms: O_2  and  C_3
REMARK    3  A    between atoms: C_3  and  C_5
REMARK    4  A    between atoms: C_9  and  N_10
REMARK    5  A    between atoms: C_11  and  C_13
REMARK    6  A    between atoms: C_13  and  S_14
REMARK    7  A    between atoms: S_14  and  C_15
REMARK                            x       y       z     vdW  Elec       q    Type
REMARK                         _______ _______ _______ _____ _____    ______ ____
ROOT
ATOM      1  N   UNL     1       3.931   3.250  17.808  0.00  0.00    +0.000 N 
ATOM      2  C   UNL     1       3.873   2.533  19.001  0.00  0.00    +0.000 C 
ATOM      3  O   UNL     1       4.733   2.545  19.882  0.00  0.00    +0.000 OA
ATOM      4  H   UNL     1       3.074   3.302  17.265  0.00  0.00    +0.000 HD
ENDROOT
BRANCH   1   9
ATOM      5  C   UNL     1       6.511   4.816  15.617  0.00  0.00    +0.000 A 
ATOM      6  C   UNL     1       7.097   5.736  16.496  0.00  0.00    +0.000 A 
ATOM      7  C   UNL     1       6.660   5.813  17.810  0.00  0.00    +0.000 A 
ATOM      8  C   UNL     1       5.628   4.985  18.252  0.00  0.00    +0.000 A 
ATOM      9  C   UNL     1       5.001   4.080  17.391  0.00  0.00    +0.000 A 
ATOM     10  C   UNL     1       5.460   3.989  16.068  0.00  0.00    +0.000 A 
BRANCH   5  11
ATOM     11  C   UNL     1       6.980   4.703  14.208  0.00  0.00    +0.000 C 
ATOM     12  O   UNL     1       6.481   3.949  13.385  0.00  0.00    +0.000 OA
BRANCH  11  14
ATOM     13  C   UNL     1       8.319   5.815  12.623  0.00  0.00    +0.000 C 
ATOM     14  O   UNL     1       8.024   5.543  13.993  0.00  0.00    +0.000 OA
ENDBRANCH  11  14
ENDBRANCH   5  11
ENDBRANCH   1   9
BRANCH   2  15
ATOM     15  C   UNL     1       2.618   1.686  19.169  0.00  0.00    +0.000 C 
BRANCH  15  16
ATOM     16  S   UNL     1       1.126   2.681  18.886  0.00  0.00    +0.000 S 
BRANCH  16  17
ATOM     17  C   UNL     1       1.629   4.140  19.687  0.00  0.00    +0.000 A 
ATOM     18  N   UNL     1       2.008   5.266  19.005  0.00  0.00    +0.000 NA
ATOM     19  C   UNL     1       2.368   6.079  19.968  0.00  0.00    +0.000 A 
ATOM     20  N   UNL     1       2.229   5.455  21.168  0.00  0.00    +0.000 N 
ATOM     21  N   UNL     1       1.727   4.221  21.014  0.00  0.00    +0.000 NA
ATOM     22  H   UNL     1       2.454   5.790  22.098  0.00  0.00    +0.000 HD
ENDBRANCH  16  17
ENDBRANCH  15  16
ENDBRANCH   2  15
TORSDOF 6
ENDMDL
