MODEL 1
REMARK VINA RESULT:      -7.2      0.000      0.000
REMARK  Name = 
REMARK  4 active torsions:
REMARK  status: ('A' for Active; 'I' for Inactive)
REMARK    1  A    between atoms: C_1  and  C_2
REMARK    2  A    between atoms: C_2  and  C_3
REMARK    3  A    between atoms: C_8  and  N_9
REMARK    4  A    between atoms: C_10  and  C_12
REMARK                            x       y       z     vdW  Elec       q    Type
REMARK                         _______ _______ _______ _____ _____    ______ ____
ROOT
ATOM      1  N   UNL     1       3.757   6.319  18.907  0.00  0.00    +0.000 N 
ATOM      2  C   UNL     1       3.823   5.187  18.113  0.00  0.00    +0.000 C 
ATOM      3  O   UNL     1       3.066   4.897  17.188  0.00  0.00    +0.000 OA
ATOM      4  H   UNL     1       4.522   6.442  19.562  0.00  0.00    +0.000 HD
ENDROOT
BRANCH   2   5
ATOM      5  C   UNL     1       4.957   4.222  18.452  0.00  0.00    +0.000 C 
ATOM      6  C   UNL     1       6.029   4.859  19.357  0.00  0.00    +0.000 C 
ATOM      7  C   UNL     1       7.204   5.507  18.620  0.00  0.00    +0.000 C 
ATOM      8  C   UNL     1       7.684   4.644  17.459  0.00  0.00    +0.000 C 
ATOM      9  N   UNL     1       6.531   4.408  16.604  0.00  0.00    +0.000 N 
ATOM     10  C   UNL     1       6.729   4.373  15.238  0.00  0.00    +0.000 A 
ATOM     11  N   UNL     1       5.934   3.605  14.477  0.00  0.00    +0.000 NA
ATOM     12  C   UNL     1       6.052   3.709  13.140  0.00  0.00    +0.000 A 
ATOM     13  C   UNL     1       6.929   4.560  12.523  0.00  0.00    +0.000 A 
ATOM     14  C   UNL     1       7.712   5.297  13.372  0.00  0.00    +0.000 A 
ATOM     15  N   UNL     1       7.634   5.215  14.714  0.00  0.00    +0.000 NA
ATOM     16  C   UNL     1       5.487   3.565  17.176  0.00  0.00    +0.000 C 
ENDBRANCH   2   5
BRANCH   1  22
ATOM     17  C   UNL     1       1.859   7.569  19.851  0.00  0.00    +0.000 A 
ATOM     18  C   UNL     1       0.989   8.678  19.764  0.00  0.00    +0.000 A 
ATOM     19  C   UNL     1       1.041   9.568  18.694  0.00  0.00    +0.000 A 
ATOM     20  C   UNL     1       1.957   9.363  17.674  0.00  0.00    +0.000 A 
ATOM     21  C   UNL     1       2.838   8.279  17.744  0.00  0.00    +0.000 A 
ATOM     22  C   UNL     1       2.822   7.385  18.823  0.00  0.00    +0.000 A 
BRANCH  17  24
ATOM     23  C   UNL     1       1.278   5.156  20.652  0.00  0.00    +0.000 C 
ATOM     24  C   UNL     1       1.722   6.579  20.998  0.00  0.00    +0.000 C 
ENDBRANCH  17  24
ENDBRANCH   1  22
TORSDOF 3
ENDMDL
MODEL 2
REMARK VINA RESULT:      -7.0      2.253      3.218
REMARK  Name = 
REMARK  4 active torsions:
REMARK  status: ('A' for Active; 'I' for Inactive)
REMARK    1  A    between atoms: C_1  and  C_2
REMARK    2  A    between atoms: C_2  and  C_3
REMARK    3  A    between atoms: C_8  and  N_9
REMARK    4  A    between atoms: C_10  and  C_12
REMARK                            x       y       z     vdW  Elec       q    Type
REMARK                         _______ _______ _______ _____ _____    ______ ____
ROOT
ATOM      1  N   UNL     1       2.693   5.654  18.206  0.00  0.00    +0.000 N 
ATOM      2  C   UNL     1       2.031   4.620  17.566  0.00  0.00    +0.000 C 
ATOM      3  O   UNL     1       0.857   4.619  17.200  0.00  0.00    +0.000 OA
ATOM      4  H   UNL     1       3.688   5.517  18.349  0.00  0.00    +0.000 HD
ENDROOT
BRANCH   2   5
ATOM      5  C   UNL     1       2.871   3.370  17.313  0.00  0.00    +0.000 C 
ATOM      6  C   UNL     1       2.687   2.301  18.407  0.00  0.00    +0.000 C 
ATOM      7  C   UNL     1       3.686   2.374  19.565  0.00  0.00    +0.000 C 
ATOM      8  C   UNL     1       5.103   2.638  19.070  0.00  0.00    +0.000 C 
ATOM      9  N   UNL     1       5.052   3.858  18.279  0.00  0.00    +0.000 N 
ATOM     10  C   UNL     1       6.123   4.727  18.351  0.00  0.00    +0.000 A 
ATOM     11  N   UNL     1       6.431   5.483  17.286  0.00  0.00    +0.000 NA
ATOM     12  C   UNL     1       7.380   6.426  17.437  0.00  0.00    +0.000 A 
ATOM     13  C   UNL     1       8.034   6.656  18.617  0.00  0.00    +0.000 A 
ATOM     14  C   UNL     1       7.670   5.832  19.649  0.00  0.00    +0.000 A 
ATOM     15  N   UNL     1       6.734   4.871  19.538  0.00  0.00    +0.000 NA
ATOM     16  C   UNL     1       4.321   3.762  17.021  0.00  0.00    +0.000 C 
ENDBRANCH   2   5
BRANCH   1  22
ATOM     17  C   UNL     1       1.812   7.194  19.911  0.00  0.00    +0.000 A 
ATOM     18  C   UNL     1       1.361   8.491  20.240  0.00  0.00    +0.000 A 
ATOM     19  C   UNL     1       1.245   9.492  19.277  0.00  0.00    +0.000 A 
ATOM     20  C   UNL     1       1.565   9.216  17.957  0.00  0.00    +0.000 A 
ATOM     21  C   UNL     1       2.026   7.943  17.610  0.00  0.00    +0.000 A 
ATOM     22  C   UNL     1       2.174   6.927  18.564  0.00  0.00    +0.000 A 
BRANCH  17  24
ATOM     23  C   UNL     1       1.068   4.824  20.705  0.00  0.00    +0.000 C 
ATOM     24  C   UNL     1       1.854   6.108  20.975  0.00  0.00    +0.000 C 
ENDBRANCH  17  24
ENDBRANCH   1  22
TORSDOF 3
ENDMDL
MODEL 3
REMARK VINA RESULT:      -6.9      7.743     10.851
REMARK  Name = 
REMARK  4 active torsions:
REMARK  status: ('A' for Active; 'I' for Inactive)
REMARK    1  A    between atoms: C_1  and  C_2
REMARK    2  A    between atoms: C_2  and  C_3
REMARK    3  A    between atoms: C_8  and  N_9
REMARK    4  A    between atoms: C_10  and  C_12
REMARK                            x       y       z     vdW  Elec       q    Type
REMARK                         _______ _______ _______ _____ _____    ______ ____
ROOT
ATOM      1  N   UNL     1      -1.258  10.553  19.187  0.00  0.00    +0.000 N 
ATOM      2  C   UNL     1      -0.098  11.288  19.361  0.00  0.00    +0.000 C 
ATOM      3  O   UNL     1       0.362  12.124  18.585  0.00  0.00    +0.000 OA
ATOM      4  H   UNL     1      -1.535   9.977  19.975  0.00  0.00    +0.000 HD
ENDROOT
BRANCH   2   5
ATOM      5  C   UNL     1       0.667  10.999  20.652  0.00  0.00    +0.000 C 
ATOM      6  C   UNL     1       0.643   9.506  21.034  0.00  0.00    +0.000 C 
ATOM      7  C   UNL     1      -0.496   9.091  21.969  0.00  0.00    +0.000 C 
ATOM      8  C   UNL     1      -0.707  10.108  23.085  0.00  0.00    +0.000 C 
ATOM      9  N   UNL     1      -0.932  11.395  22.445  0.00  0.00    +0.000 N 
ATOM     10  C   UNL     1      -1.844  12.258  23.019  0.00  0.00    +0.000 A 
ATOM     11  N   UNL     1      -1.669  13.583  22.889  0.00  0.00    +0.000 NA
ATOM     12  C   UNL     1      -2.652  14.392  23.326  0.00  0.00    +0.000 A 
ATOM     13  C   UNL     1      -3.815  13.935  23.884  0.00  0.00    +0.000 A 
ATOM     14  C   UNL     1      -3.906  12.572  23.993  0.00  0.00    +0.000 A 
ATOM     15  N   UNL     1      -2.943  11.728  23.578  0.00  0.00    +0.000 NA
ATOM     16  C   UNL     1       0.220  11.962  21.754  0.00  0.00    +0.000 C 
ENDBRANCH   2   5
BRANCH   1  22
ATOM     17  C   UNL     1      -3.321  11.435  18.178  0.00  0.00    +0.000 A 
ATOM     18  C   UNL     1      -4.166  11.516  17.049  0.00  0.00    +0.000 A 
ATOM     19  C   UNL     1      -3.905  10.797  15.885  0.00  0.00    +0.000 A 
ATOM     20  C   UNL     1      -2.797   9.966  15.825  0.00  0.00    +0.000 A 
ATOM     21  C   UNL     1      -1.939   9.879  16.925  0.00  0.00    +0.000 A 
ATOM     22  C   UNL     1      -2.167  10.611  18.098  0.00  0.00    +0.000 A 
BRANCH  17  24
ATOM     23  C   UNL     1      -5.129  12.639  19.620  0.00  0.00    +0.000 C 
ATOM     24  C   UNL     1      -3.680  12.177  19.456  0.00  0.00    +0.000 C 
ENDBRANCH  17  24
ENDBRANCH   1  22
TORSDOF 3
ENDMDL
MODEL 4
REMARK VINA RESULT:      -6.8      2.570      6.342
REMARK  Name = 
REMARK  4 active torsions:
REMARK  status: ('A' for Active; 'I' for Inactive)
REMARK    1  A    between atoms: C_1  and  C_2
REMARK    2  A    between atoms: C_2  and  C_3
REMARK    3  A    between atoms: C_8  and  N_9
REMARK    4  A    between atoms: C_10  and  C_12
REMARK                            x       y       z     vdW  Elec       q    Type
REMARK                         _______ _______ _______ _____ _____    ______ ____
ROOT
ATOM      1  N   UNL     1       6.942   5.698  15.557  0.00  0.00    +0.000 N 
ATOM      2  C   UNL     1       6.028   6.644  15.992  0.00  0.00    +0.000 C 
ATOM      3  O   UNL     1       5.068   7.079  15.358  0.00  0.00    +0.000 OA
ATOM      4  H   UNL     1       7.615   5.388  16.250  0.00  0.00    +0.000 HD
ENDROOT
BRANCH   2   5
ATOM      5  C   UNL     1       6.273   7.185  17.399  0.00  0.00    +0.000 C 
ATOM      6  C   UNL     1       7.724   6.973  17.872  0.00  0.00    +0.000 C 
ATOM      7  C   UNL     1       7.974   5.678  18.650  0.00  0.00    +0.000 C 
ATOM      8  C   UNL     1       6.858   5.399  19.651  0.00  0.00    +0.000 C 
ATOM      9  N   UNL     1       5.612   5.385  18.900  0.00  0.00    +0.000 N 
ATOM     10  C   UNL     1       4.638   4.480  19.271  0.00  0.00    +0.000 A 
ATOM     11  N   UNL     1       3.346   4.788  19.081  0.00  0.00    +0.000 NA
ATOM     12  C   UNL     1       2.430   3.828  19.310  0.00  0.00    +0.000 A 
ATOM     13  C   UNL     1       2.749   2.561  19.715  0.00  0.00    +0.000 A 
ATOM     14  C   UNL     1       4.088   2.334  19.899  0.00  0.00    +0.000 A 
ATOM     15  N   UNL     1       5.035   3.268  19.692  0.00  0.00    +0.000 NA
ATOM     16  C   UNL     1       5.193   6.670  18.354  0.00  0.00    +0.000 C 
ENDBRANCH   2   5
BRANCH   1  22
ATOM     17  C   UNL     1       6.250   3.806  14.145  0.00  0.00    +0.000 A 
ATOM     18  C   UNL     1       6.243   3.199  12.870  0.00  0.00    +0.000 A 
ATOM     19  C   UNL     1       6.933   3.751  11.792  0.00  0.00    +0.000 A 
ATOM     20  C   UNL     1       7.659   4.919  11.966  0.00  0.00    +0.000 A 
ATOM     21  C   UNL     1       7.670   5.545  13.216  0.00  0.00    +0.000 A 
ATOM     22  C   UNL     1       6.964   5.023  14.308  0.00  0.00    +0.000 A 
BRANCH  17  24
ATOM     23  C   UNL     1       4.237   3.757  15.802  0.00  0.00    +0.000 C 
ATOM     24  C   UNL     1       5.547   3.135  15.314  0.00  0.00    +0.000 C 
ENDBRANCH  17  24
ENDBRANCH   1  22
TORSDOF 3
ENDMDL
MODEL 5
REMARK VINA RESULT:      -6.7      4.726      8.568
REMARK  Name = 
REMARK  4 active torsions:
REMARK  status: ('A' for Active; 'I' for Inactive)
REMARK    1  A    between atoms: C_1  and  C_2
REMARK    2  A    between atoms: C_2  and  C_3
REMARK    3  A    between atoms: C_8  and  N_9
REMARK    4  A    between atoms: C_10  and  C_12
REMARK                            x       y       z     vdW  Elec       q    Type
REMARK                         _______ _______ _______ _____ _____    ______ ____
ROOT
ATOM      1  N   UNL     1       1.864   7.489  21.013  0.00  0.00    +0.000 N 
ATOM      2  C   UNL     1       0.751   8.174  21.470  0.00  0.00    +0.000 C 
ATOM      3  O   UNL     1      -0.419   7.967  21.150  0.00  0.00    +0.000 OA
ATOM      4  H   UNL     1       2.742   7.732  21.458  0.00  0.00    +0.000 HD
ENDROOT
BRANCH   2   5
ATOM      5  C   UNL     1       1.043   9.298  22.462  0.00  0.00    +0.000 C 
ATOM      6  C   UNL     1      -0.041   9.426  23.550  0.00  0.00    +0.000 C 
ATOM      7  C   UNL     1      -1.173  10.407  23.231  0.00  0.00    +0.000 C 
ATOM      8  C   UNL     1      -0.643  11.694  22.609  0.00  0.00    +0.000 C 
ATOM      9  N   UNL     1       0.129  11.309  21.438  0.00  0.00    +0.000 N 
ATOM     10  C   UNL     1       0.074  12.123  20.324  0.00  0.00    +0.000 A 
ATOM     11  N   UNL     1       1.136  12.197  19.508  0.00  0.00    +0.000 NA
ATOM     12  C   UNL     1       0.998  12.877  18.354  0.00  0.00    +0.000 A 
ATOM     13  C   UNL     1      -0.168  13.484  17.971  0.00  0.00    +0.000 A 
ATOM     14  C   UNL     1      -1.198  13.373  18.868  0.00  0.00    +0.000 A 
ATOM     15  N   UNL     1      -1.098  12.712  20.036  0.00  0.00    +0.000 NA
ATOM     16  C   UNL     1       1.368  10.591  21.710  0.00  0.00    +0.000 C 
ENDBRANCH   2   5
BRANCH   1  22
ATOM     17  C   UNL     1       2.353   6.610  18.768  0.00  0.00    +0.000 A 
ATOM     18  C   UNL     1       2.435   5.493  17.907  0.00  0.00    +0.000 A 
ATOM     19  C   UNL     1       2.063   4.217  18.325  0.00  0.00    +0.000 A 
ATOM     20  C   UNL     1       1.586   4.027  19.612  0.00  0.00    +0.000 A 
ATOM     21  C   UNL     1       1.508   5.115  20.487  0.00  0.00    +0.000 A 
ATOM     22  C   UNL     1       1.899   6.403  20.098  0.00  0.00    +0.000 A 
BRANCH  17  24
ATOM     23  C   UNL     1       1.536   8.912  17.855  0.00  0.00    +0.000 C 
ATOM     24  C   UNL     1       2.697   7.998  18.252  0.00  0.00    +0.000 C 
ENDBRANCH  17  24
ENDBRANCH   1  22
TORSDOF 3
ENDMDL
MODEL 6
REMARK VINA RESULT:      -6.7      2.814      7.055
REMARK  Name = 
REMARK  4 active torsions:
REMARK  status: ('A' for Active; 'I' for Inactive)
REMARK    1  A    between atoms: C_1  and  C_2
REMARK    2  A    between atoms: C_2  and  C_3
REMARK    3  A    between atoms: C_8  and  N_9
REMARK    4  A    between atoms: C_10  and  C_12
REMARK                            x       y       z     vdW  Elec       q    Type
REMARK                         _______ _______ _______ _____ _____    ______ ____
ROOT
ATOM      1  N   UNL     1       6.030   5.279  14.622  0.00  0.00    +0.000 N 
ATOM      2  C   UNL     1       6.794   5.227  15.775  0.00  0.00    +0.000 C 
ATOM      3  O   UNL     1       7.685   4.417  16.027  0.00  0.00    +0.000 OA
ATOM      4  H   UNL     1       5.406   6.074  14.545  0.00  0.00    +0.000 HD
ENDROOT
BRANCH   2   5
ATOM      5  C   UNL     1       6.466   6.292  16.820  0.00  0.00    +0.000 C 
ATOM      6  C   UNL     1       7.490   6.330  17.971  0.00  0.00    +0.000 C 
ATOM      7  C   UNL     1       7.141   5.461  19.182  0.00  0.00    +0.000 C 
ATOM      8  C   UNL     1       5.666   5.571  19.548  0.00  0.00    +0.000 C 
ATOM      9  N   UNL     1       4.909   5.221  18.356  0.00  0.00    +0.000 N 
ATOM     10  C   UNL     1       3.735   4.511  18.514  0.00  0.00    +0.000 A 
ATOM     11  N   UNL     1       2.740   4.679  17.630  0.00  0.00    +0.000 NA
ATOM     12  C   UNL     1       1.672   3.864  17.722  0.00  0.00    +0.000 A 
ATOM     13  C   UNL     1       1.558   2.873  18.660  0.00  0.00    +0.000 A 
ATOM     14  C   UNL     1       2.611   2.779  19.531  0.00  0.00    +0.000 A 
ATOM     15  N   UNL     1       3.691   3.581  19.481  0.00  0.00    +0.000 NA
ATOM     16  C   UNL     1       5.003   6.169  17.252  0.00  0.00    +0.000 C 
ENDBRANCH   2   5
BRANCH   1  22
ATOM     17  C   UNL     1       7.242   4.498  12.628  0.00  0.00    +0.000 A 
ATOM     18  C   UNL     1       7.319   3.591  11.548  0.00  0.00    +0.000 A 
ATOM     19  C   UNL     1       6.312   2.661  11.299  0.00  0.00    +0.000 A 
ATOM     20  C   UNL     1       5.194   2.622  12.119  0.00  0.00    +0.000 A 
ATOM     21  C   UNL     1       5.102   3.501  13.203  0.00  0.00    +0.000 A 
ATOM     22  C   UNL     1       6.113   4.429  13.487  0.00  0.00    +0.000 A 
BRANCH  17  24
ATOM     23  C   UNL     1       8.481   6.610  11.733  0.00  0.00    +0.000 C 
ATOM     24  C   UNL     1       8.326   5.547  12.822  0.00  0.00    +0.000 C 
ENDBRANCH  17  24
ENDBRANCH   1  22
TORSDOF 3
ENDMDL
MODEL 7
REMARK VINA RESULT:      -6.7      6.450     11.255
REMARK  Name = 
REMARK  4 active torsions:
REMARK  status: ('A' for Active; 'I' for Inactive)
REMARK    1  A    between atoms: C_1  and  C_2
REMARK    2  A    between atoms: C_2  and  C_3
REMARK    3  A    between atoms: C_8  and  N_9
REMARK    4  A    between atoms: C_10  and  C_12
REMARK                            x       y       z     vdW  Elec       q    Type
REMARK                         _______ _______ _______ _____ _____    ______ ____
ROOT
ATOM      1  N   UNL     1       0.237  11.371  20.468  0.00  0.00    +0.000 N 
ATOM      2  C   UNL     1      -1.062  11.806  20.268  0.00  0.00    +0.000 C 
ATOM      3  O   UNL     1      -1.871  11.349  19.461  0.00  0.00    +0.000 OA
ATOM      4  H   UNL     1       0.730  11.803  21.242  0.00  0.00    +0.000 HD
ENDROOT
BRANCH   2   5
ATOM      5  C   UNL     1      -1.497  12.978  21.147  0.00  0.00    +0.000 C 
ATOM      6  C   UNL     1      -1.379  12.667  22.651  0.00  0.00    +0.000 C 
ATOM      7  C   UNL     1      -2.644  12.098  23.301  0.00  0.00    +0.000 C 
ATOM      8  C   UNL     1      -3.896  12.828  22.828  0.00  0.00    +0.000 C 
ATOM      9  N   UNL     1      -3.910  12.743  21.376  0.00  0.00    +0.000 N 
ATOM     10  C   UNL     1      -5.128  12.589  20.744  0.00  0.00    +0.000 A 
ATOM     11  N   UNL     1      -5.300  13.093  19.512  0.00  0.00    +0.000 NA
ATOM     12  C   UNL     1      -6.441  12.796  18.864  0.00  0.00    +0.000 A 
ATOM     13  C   UNL     1      -7.424  12.003  19.391  0.00  0.00    +0.000 A 
ATOM     14  C   UNL     1      -7.176  11.541  20.657  0.00  0.00    +0.000 A 
ATOM     15  N   UNL     1      -6.053  11.824  21.345  0.00  0.00    +0.000 NA
ATOM     16  C   UNL     1      -2.864  13.495  20.692  0.00  0.00    +0.000 C 
ENDBRANCH   2   5
BRANCH   1  22
ATOM     17  C   UNL     1       1.196   9.106  20.503  0.00  0.00    +0.000 A 
ATOM     18  C   UNL     1       1.806   8.049  19.792  0.00  0.00    +0.000 A 
ATOM     19  C   UNL     1       2.146   8.171  18.446  0.00  0.00    +0.000 A 
ATOM     20  C   UNL     1       1.896   9.360  17.780  0.00  0.00    +0.000 A 
ATOM     21  C   UNL     1       1.281  10.416  18.459  0.00  0.00    +0.000 A 
ATOM     22  C   UNL     1       0.908  10.309  19.806  0.00  0.00    +0.000 A 
BRANCH  17  24
ATOM     23  C   UNL     1      -0.545   8.726  22.407  0.00  0.00    +0.000 C 
ATOM     24  C   UNL     1       0.908   8.960  21.989  0.00  0.00    +0.000 C 
ENDBRANCH  17  24
ENDBRANCH   1  22
TORSDOF 3
ENDMDL
MODEL 8
REMARK VINA RESULT:      -6.7      2.785      3.967
REMARK  Name = 
REMARK  4 active torsions:
REMARK  status: ('A' for Active; 'I' for Inactive)
REMARK    1  A    between atoms: C_1  and  C_2
REMARK    2  A    between atoms: C_2  and  C_3
REMARK    3  A    between atoms: C_8  and  N_9
REMARK    4  A    between atoms: C_10  and  C_12
REMARK                            x       y       z     vdW  Elec       q    Type
REMARK                         _______ _______ _______ _____ _____    ______ ____
ROOT
ATOM      1  N   UNL     1       1.704   6.792  19.550  0.00  0.00    +0.000 N 
ATOM      2  C   UNL     1       1.841   5.537  20.117  0.00  0.00    +0.000 C 
ATOM      3  O   UNL     1       1.744   5.259  21.311  0.00  0.00    +0.000 OA
ATOM      4  H   UNL     1       1.723   6.821  18.536  0.00  0.00    +0.000 HD
ENDROOT
BRANCH   2   5
ATOM      5  C   UNL     1       2.153   4.411  19.133  0.00  0.00    +0.000 C 
ATOM      6  C   UNL     1       2.333   3.048  19.829  0.00  0.00    +0.000 C 
ATOM      7  C   UNL     1       3.773   2.701  20.220  0.00  0.00    +0.000 C 
ATOM      8  C   UNL     1       4.759   3.064  19.115  0.00  0.00    +0.000 C 
ATOM      9  N   UNL     1       4.568   4.478  18.828  0.00  0.00    +0.000 N 
ATOM     10  C   UNL     1       5.680   5.236  18.521  0.00  0.00    +0.000 A 
ATOM     11  N   UNL     1       5.553   6.289  17.700  0.00  0.00    +0.000 NA
ATOM     12  C   UNL     1       6.618   7.097  17.541  0.00  0.00    +0.000 A 
ATOM     13  C   UNL     1       7.813   6.903  18.180  0.00  0.00    +0.000 A 
ATOM     14  C   UNL     1       7.863   5.798  18.988  0.00  0.00    +0.000 A 
ATOM     15  N   UNL     1       6.825   4.960  19.166  0.00  0.00    +0.000 NA
ATOM     16  C   UNL     1       3.297   4.826  18.205  0.00  0.00    +0.000 C 
ENDBRANCH   2   5
BRANCH   1  22
ATOM     17  C   UNL     1       1.235   9.206  19.456  0.00  0.00    +0.000 A 
ATOM     18  C   UNL     1       0.882  10.388  20.143  0.00  0.00    +0.000 A 
ATOM     19  C   UNL     1       0.729  10.413  21.527  0.00  0.00    +0.000 A 
ATOM     20  C   UNL     1       0.940   9.257  22.263  0.00  0.00    +0.000 A 
ATOM     21  C   UNL     1       1.277   8.071  21.604  0.00  0.00    +0.000 A 
ATOM     22  C   UNL     1       1.412   8.015  20.210  0.00  0.00    +0.000 A 
BRANCH  17  24
ATOM     23  C   UNL     1       2.776   8.649  17.427  0.00  0.00    +0.000 C 
ATOM     24  C   UNL     1       1.464   9.235  17.953  0.00  0.00    +0.000 C 
ENDBRANCH  17  24
ENDBRANCH   1  22
TORSDOF 3
ENDMDL
MODEL 9
REMARK VINA RESULT:      -6.6      2.535      6.825
REMARK  Name = 
REMARK  4 active torsions:
REMARK  status: ('A' for Active; 'I' for Inactive)
REMARK    1  A    between atoms: C_1  and  C_2
REMARK    2  A    between atoms: C_2  and  C_3
REMARK    3  A    between atoms: C_8  and  N_9
REMARK    4  A    between atoms: C_10  and  C_12
REMARK                            x       y       z     vdW  Elec       q    Type
REMARK                         _______ _______ _______ _____ _____    ______ ____
ROOT
ATOM      1  N   UNL     1       5.995   5.070  15.230  0.00  0.00    +0.000 N 
ATOM      2  C   UNL     1       5.490   6.319  15.548  0.00  0.00    +0.000 C 
ATOM      3  O   UNL     1       4.940   7.104  14.776  0.00  0.00    +0.000 OA
ATOM      4  H   UNL     1       6.331   4.520  16.014  0.00  0.00    +0.000 HD
ENDROOT
BRANCH   2   5
ATOM      5  C   UNL     1       5.657   6.736  17.008  0.00  0.00    +0.000 C 
ATOM      6  C   UNL     1       7.032   6.344  17.583  0.00  0.00    +0.000 C 
ATOM      7  C   UNL     1       7.084   4.980  18.277  0.00  0.00    +0.000 C 
ATOM      8  C   UNL     1       5.860   4.750  19.157  0.00  0.00    +0.000 C 
ATOM      9  N   UNL     1       4.692   4.916  18.306  0.00  0.00    +0.000 N 
ATOM     10  C   UNL     1       3.605   4.093  18.524  0.00  0.00    +0.000 A 
ATOM     11  N   UNL     1       2.371   4.544  18.251  0.00  0.00    +0.000 NA
ATOM     12  C   UNL     1       1.350   3.671  18.329  0.00  0.00    +0.000 A 
ATOM     13  C   UNL     1       1.508   2.353  18.661  0.00  0.00    +0.000 A 
ATOM     14  C   UNL     1       2.796   1.978  18.938  0.00  0.00    +0.000 A 
ATOM     15  N   UNL     1       3.844   2.821  18.883  0.00  0.00    +0.000 NA
ATOM     16  C   UNL     1       4.451   6.271  17.827  0.00  0.00    +0.000 C 
ENDBRANCH   2   5
BRANCH   1  22
ATOM     17  C   UNL     1       7.098   4.533  13.097  0.00  0.00    +0.000 A 
ATOM     18  C   UNL     1       7.070   3.821  11.877  0.00  0.00    +0.000 A 
ATOM     19  C   UNL     1       5.974   3.045  11.506  0.00  0.00    +0.000 A 
ATOM     20  C   UNL     1       4.870   2.972  12.340  0.00  0.00    +0.000 A 
ATOM     21  C   UNL     1       4.879   3.656  13.559  0.00  0.00    +0.000 A 
ATOM     22  C   UNL     1       5.979   4.423  13.966  0.00  0.00    +0.000 A 
BRANCH  17  24
ATOM     23  C   UNL     1       8.834   6.315  12.316  0.00  0.00    +0.000 C 
ATOM     24  C   UNL     1       8.280   5.428  13.433  0.00  0.00    +0.000 C 
ENDBRANCH  17  24
ENDBRANCH   1  22
TORSDOF 3
ENDMDL
