MODEL 1
REMARK VINA RESULT:      -7.7      0.000      0.000
REMARK  Name = 
REMARK  9 active torsions:
REMARK  status: ('A' for Active; 'I' for Inactive)
REMARK    1  A    between atoms: C_1  and  C_2
REMARK    2  A    between atoms: C_3  and  C_4
REMARK    3  A    between atoms: C_10  and  C_11
REMARK    4  A    between atoms: C_14  and  O_15
REMARK    5  A    between atoms: O_15  and  C_16
REMARK    6  A    between atoms: C_16  and  C_17
REMARK    7  A    between atoms: C_17  and  N_18
REMARK    8  A    between atoms: N_18  and  C_19
REMARK    9  A    between atoms: N_18  and  C_20
REMARK                            x       y       z     vdW  Elec       q    Type
REMARK                         _______ _______ _______ _____ _____    ______ ____
ROOT
ATOM      1  C   UNL     1       4.394   1.683  17.427  0.00  0.00    +0.000 C 
ATOM      2  C   UNL     1       4.293   3.171  17.375  0.00  0.00    +0.000 A 
ATOM      3  C   UNL     1       3.532   4.053  18.217  0.00  0.00    +0.000 A 
ATOM      4  C   UNL     1       3.739   5.369  17.758  0.00  0.00    +0.000 A 
ATOM      5  N   UNL     1       4.625   5.297  16.679  0.00  0.00    +0.000 N 
ATOM      6  C   UNL     1       5.175   6.322  15.894  0.00  0.00    +0.000 A 
ATOM      7  C   UNL     1       5.976   6.027  14.855  0.00  0.00    +0.000 A 
ATOM      8  C   UNL     1       6.289   4.638  14.582  0.00  0.00    +0.000 A 
ATOM      9  C   UNL     1       5.800   3.650  15.352  0.00  0.00    +0.000 A 
ATOM     10  C   UNL     1       4.934   3.962  16.443  0.00  0.00    +0.000 A 
ENDROOT
BRANCH   3  11
ATOM     11  C   UNL     1       2.663   3.664  19.348  0.00  0.00    +0.000 A 
ATOM     12  C   UNL     1       3.219   3.406  20.612  0.00  0.00    +0.000 A 
ATOM     13  C   UNL     1       2.423   2.984  21.683  0.00  0.00    +0.000 A 
ATOM     14  C   UNL     1       1.044   2.884  21.528  0.00  0.00    +0.000 A 
ATOM     15  C   UNL     1       0.468   3.173  20.295  0.00  0.00    +0.000 A 
ATOM     16  C   UNL     1       1.275   3.519  19.206  0.00  0.00    +0.000 A 
ENDBRANCH   3  11
BRANCH   4  17
ATOM     17  C   UNL     1       3.183   6.642  18.277  0.00  0.00    +0.000 A 
ATOM     18  C   UNL     1       2.705   6.690  19.589  0.00  0.00    +0.000 A 
ATOM     19  C   UNL     1       1.927   7.759  20.030  0.00  0.00    +0.000 A 
ATOM     20  C   UNL     1       1.686   8.861  19.206  0.00  0.00    +0.000 A 
ATOM     21  C   UNL     1       2.270   8.888  17.941  0.00  0.00    +0.000 A 
ATOM     22  C   UNL     1       2.986   7.774  17.471  0.00  0.00    +0.000 A 
BRANCH  20  23
ATOM     23  O   UNL     1       0.883   9.929  19.538  0.00  0.00    +0.000 OA
BRANCH  23  24
ATOM     24  C   UNL     1      -0.144   9.593  20.481  0.00  0.00    +0.000 C 
BRANCH  24  25
ATOM     25  C   UNL     1      -0.823  10.822  21.095  0.00  0.00    +0.000 C 
BRANCH  25  26
ATOM     26  N   UNL     1      -0.475  10.978  22.529  0.00  0.00    +0.000 NA
ATOM     27  C   UNL     1      -1.524  11.649  23.295  0.00  0.00    +0.000 C 
ATOM     28  C   UNL     1      -0.198   9.661  23.122  0.00  0.00    +0.000 C 
ENDBRANCH  25  26
ENDBRANCH  24  25
ENDBRANCH  23  24
ENDBRANCH  20  23
ENDBRANCH   4  17
TORSDOF 6
ENDMDL
MODEL 2
REMARK VINA RESULT:      -7.6      1.565      1.863
REMARK  Name = 
REMARK  9 active torsions:
REMARK  status: ('A' for Active; 'I' for Inactive)
REMARK    1  A    between atoms: C_1  and  C_2
REMARK    2  A    between atoms: C_3  and  C_4
REMARK    3  A    between atoms: C_10  and  C_11
REMARK    4  A    between atoms: C_14  and  O_15
REMARK    5  A    between atoms: O_15  and  C_16
REMARK    6  A    between atoms: C_16  and  C_17
REMARK    7  A    between atoms: C_17  and  N_18
REMARK    8  A    between atoms: N_18  and  C_19
REMARK    9  A    between atoms: N_18  and  C_20
REMARK                            x       y       z     vdW  Elec       q    Type
REMARK                         _______ _______ _______ _____ _____    ______ ____
ROOT
ATOM      1  C   UNL     1       4.452   1.788  17.431  0.00  0.00    +0.000 C 
ATOM      2  C   UNL     1       4.291   3.271  17.416  0.00  0.00    +0.000 A 
ATOM      3  C   UNL     1       3.494   4.100  18.280  0.00  0.00    +0.000 A 
ATOM      4  C   UNL     1       3.649   5.435  17.856  0.00  0.00    +0.000 A 
ATOM      5  N   UNL     1       4.538   5.427  16.776  0.00  0.00    +0.000 N 
ATOM      6  C   UNL     1       5.045   6.493  16.019  0.00  0.00    +0.000 A 
ATOM      7  C   UNL     1       5.857   6.257  14.973  0.00  0.00    +0.000 A 
ATOM      8  C   UNL     1       6.226   4.889  14.665  0.00  0.00    +0.000 A 
ATOM      9  C   UNL     1       5.778   3.863  15.408  0.00  0.00    +0.000 A 
ATOM     10  C   UNL     1       4.899   4.111  16.506  0.00  0.00    +0.000 A 
ENDROOT
BRANCH   3  11
ATOM     11  C   UNL     1       2.642   3.648  19.400  0.00  0.00    +0.000 A 
ATOM     12  C   UNL     1       3.221   3.269  20.623  0.00  0.00    +0.000 A 
ATOM     13  C   UNL     1       2.439   2.786  21.678  0.00  0.00    +0.000 A 
ATOM     14  C   UNL     1       1.053   2.743  21.554  0.00  0.00    +0.000 A 
ATOM     15  C   UNL     1       0.457   3.152  20.365  0.00  0.00    +0.000 A 
ATOM     16  C   UNL     1       1.247   3.561  19.286  0.00  0.00    +0.000 A 
ENDBRANCH   3  11
BRANCH   4  17
ATOM     17  C   UNL     1       3.042   6.671  18.407  0.00  0.00    +0.000 A 
ATOM     18  C   UNL     1       2.696   6.713  19.759  0.00  0.00    +0.000 A 
ATOM     19  C   UNL     1       1.879   7.726  20.259  0.00  0.00    +0.000 A 
ATOM     20  C   UNL     1       1.464   8.782  19.445  0.00  0.00    +0.000 A 
ATOM     21  C   UNL     1       1.913   8.825  18.126  0.00  0.00    +0.000 A 
ATOM     22  C   UNL     1       2.670   7.762  17.605  0.00  0.00    +0.000 A 
BRANCH  20  23
ATOM     23  O   UNL     1       0.610   9.789  19.839  0.00  0.00    +0.000 OA
BRANCH  23  24
ATOM     24  C   UNL     1       0.171  10.615  18.753  0.00  0.00    +0.000 C 
BRANCH  24  25
ATOM     25  C   UNL     1       0.329  12.113  19.034  0.00  0.00    +0.000 C 
BRANCH  25  26
ATOM     26  N   UNL     1       1.758  12.496  19.156  0.00  0.00    +0.000 NA
ATOM     27  C   UNL     1       2.157  13.509  18.180  0.00  0.00    +0.000 C 
ATOM     28  C   UNL     1       2.029  12.988  20.515  0.00  0.00    +0.000 C 
ENDBRANCH  25  26
ENDBRANCH  24  25
ENDBRANCH  23  24
ENDBRANCH  20  23
ENDBRANCH   4  17
TORSDOF 6
ENDMDL
MODEL 3
REMARK VINA RESULT:      -7.5      1.516      1.965
REMARK  Name = 
REMARK  9 active torsions:
REMARK  status: ('A' for Active; 'I' for Inactive)
REMARK    1  A    between atoms: C_1  and  C_2
REMARK    2  A    between atoms: C_3  and  C_4
REMARK    3  A    between atoms: C_10  and  C_11
REMARK    4  A    between atoms: C_14  and  O_15
REMARK    5  A    between atoms: O_15  and  C_16
REMARK    6  A    between atoms: C_16  and  C_17
REMARK    7  A    between atoms: C_17  and  N_18
REMARK    8  A    between atoms: N_18  and  C_19
REMARK    9  A    between atoms: N_18  and  C_20
REMARK                            x       y       z     vdW  Elec       q    Type
REMARK                         _______ _______ _______ _____ _____    ______ ____
ROOT
ATOM      1  C   UNL     1       4.407   1.744  17.421  0.00  0.00    +0.000 C 
ATOM      2  C   UNL     1       4.276   3.230  17.389  0.00  0.00    +0.000 A 
ATOM      3  C   UNL     1       3.501   4.085  18.246  0.00  0.00    +0.000 A 
ATOM      4  C   UNL     1       3.680   5.411  17.805  0.00  0.00    +0.000 A 
ATOM      5  N   UNL     1       4.563   5.371  16.721  0.00  0.00    +0.000 N 
ATOM      6  C   UNL     1       5.088   6.418  15.948  0.00  0.00    +0.000 A 
ATOM      7  C   UNL     1       5.890   6.153  14.902  0.00  0.00    +0.000 A 
ATOM      8  C   UNL     1       6.230   4.774  14.609  0.00  0.00    +0.000 A 
ATOM      9  C   UNL     1       5.764   3.766  15.366  0.00  0.00    +0.000 A 
ATOM     10  C   UNL     1       4.897   4.046  16.466  0.00  0.00    +0.000 A 
ENDROOT
BRANCH   3  11
ATOM     11  C   UNL     1       2.645   3.663  19.375  0.00  0.00    +0.000 A 
ATOM     12  C   UNL     1       3.219   3.329  20.613  0.00  0.00    +0.000 A 
ATOM     13  C   UNL     1       2.434   2.876  21.679  0.00  0.00    +0.000 A 
ATOM     14  C   UNL     1       1.050   2.819  21.549  0.00  0.00    +0.000 A 
ATOM     15  C   UNL     1       0.457   3.184  20.344  0.00  0.00    +0.000 A 
ATOM     16  C   UNL     1       1.251   3.562  19.256  0.00  0.00    +0.000 A 
ENDBRANCH   3  11
BRANCH   4  17
ATOM     17  C   UNL     1       3.100   6.666  18.343  0.00  0.00    +0.000 A 
ATOM     18  C   UNL     1       2.684   6.704  19.676  0.00  0.00    +0.000 A 
ATOM     19  C   UNL     1       1.888   7.746  20.148  0.00  0.00    +0.000 A 
ATOM     20  C   UNL     1       1.566   8.832  19.331  0.00  0.00    +0.000 A 
ATOM     21  C   UNL     1       2.088   8.873  18.039  0.00  0.00    +0.000 A 
ATOM     22  C   UNL     1       2.822   7.784  17.541  0.00  0.00    +0.000 A 
BRANCH  20  23
ATOM     23  O   UNL     1       0.739   9.871  19.696  0.00  0.00    +0.000 OA
BRANCH  23  24
ATOM     24  C   UNL     1      -0.448   9.958  18.896  0.00  0.00    +0.000 C 
BRANCH  24  25
ATOM     25  C   UNL     1      -1.280  11.211  19.187  0.00  0.00    +0.000 C 
BRANCH  25  26
ATOM     26  N   UNL     1      -2.180  11.543  18.055  0.00  0.00    +0.000 NA
ATOM     27  C   UNL     1      -2.143  10.542  16.990  0.00  0.00    +0.000 C 
ATOM     28  C   UNL     1      -3.560  11.695  18.540  0.00  0.00    +0.000 C 
ENDBRANCH  25  26
ENDBRANCH  24  25
ENDBRANCH  23  24
ENDBRANCH  20  23
ENDBRANCH   4  17
TORSDOF 6
ENDMDL
MODEL 4
REMARK VINA RESULT:      -7.5      1.532      2.085
REMARK  Name = 
REMARK  9 active torsions:
REMARK  status: ('A' for Active; 'I' for Inactive)
REMARK    1  A    between atoms: C_1  and  C_2
REMARK    2  A    between atoms: C_3  and  C_4
REMARK    3  A    between atoms: C_10  and  C_11
REMARK    4  A    between atoms: C_14  and  O_15
REMARK    5  A    between atoms: O_15  and  C_16
REMARK    6  A    between atoms: C_16  and  C_17
REMARK    7  A    between atoms: C_17  and  N_18
REMARK    8  A    between atoms: N_18  and  C_19
REMARK    9  A    between atoms: N_18  and  C_20
REMARK                            x       y       z     vdW  Elec       q    Type
REMARK                         _______ _______ _______ _____ _____    ______ ____
ROOT
ATOM      1  C   UNL     1       4.496   1.763  17.408  0.00  0.00    +0.000 C 
ATOM      2  C   UNL     1       4.330   3.245  17.382  0.00  0.00    +0.000 A 
ATOM      3  C   UNL     1       3.530   4.078  18.238  0.00  0.00    +0.000 A 
ATOM      4  C   UNL     1       3.680   5.410  17.803  0.00  0.00    +0.000 A 
ATOM      5  N   UNL     1       4.570   5.396  16.724  0.00  0.00    +0.000 N 
ATOM      6  C   UNL     1       5.075   6.458  15.959  0.00  0.00    +0.000 A 
ATOM      7  C   UNL     1       5.889   6.216  14.916  0.00  0.00    +0.000 A 
ATOM      8  C   UNL     1       6.263   4.848  14.620  0.00  0.00    +0.000 A 
ATOM      9  C   UNL     1       5.817   3.826  15.370  0.00  0.00    +0.000 A 
ATOM     10  C   UNL     1       4.937   4.080  16.466  0.00  0.00    +0.000 A 
ENDROOT
BRANCH   3  11
ATOM     11  C   UNL     1       2.678   3.632  19.360  0.00  0.00    +0.000 A 
ATOM     12  C   UNL     1       1.284   3.555  19.204  0.00  0.00    +0.000 A 
ATOM     13  C   UNL     1       0.453   3.187  20.269  0.00  0.00    +0.000 A 
ATOM     14  C   UNL     1       1.009   2.818  21.489  0.00  0.00    +0.000 A 
ATOM     15  C   UNL     1       2.391   2.848  21.653  0.00  0.00    +0.000 A 
ATOM     16  C   UNL     1       3.212   3.291  20.611  0.00  0.00    +0.000 A 
ENDBRANCH   3  11
BRANCH   4  17
ATOM     17  C   UNL     1       3.068   6.649  18.343  0.00  0.00    +0.000 A 
ATOM     18  C   UNL     1       2.714   6.698  19.693  0.00  0.00    +0.000 A 
ATOM     19  C   UNL     1       1.892   7.712  20.182  0.00  0.00    +0.000 A 
ATOM     20  C   UNL     1       1.480   8.763  19.360  0.00  0.00    +0.000 A 
ATOM     21  C   UNL     1       1.938   8.799  18.044  0.00  0.00    +0.000 A 
ATOM     22  C   UNL     1       2.699   7.734  17.533  0.00  0.00    +0.000 A 
BRANCH  20  23
ATOM     23  O   UNL     1       0.624   9.771  19.743  0.00  0.00    +0.000 OA
BRANCH  23  24
ATOM     24  C   UNL     1       0.097  10.517  18.637  0.00  0.00    +0.000 C 
BRANCH  24  25
ATOM     25  C   UNL     1      -1.104  11.389  19.017  0.00  0.00    +0.000 C 
BRANCH  25  26
ATOM     26  N   UNL     1      -2.359  10.883  18.407  0.00  0.00    +0.000 NA
ATOM     27  C   UNL     1      -3.515  11.725  18.711  0.00  0.00    +0.000 C 
ATOM     28  C   UNL     1      -2.198  10.775  16.948  0.00  0.00    +0.000 C 
ENDBRANCH  25  26
ENDBRANCH  24  25
ENDBRANCH  23  24
ENDBRANCH  20  23
ENDBRANCH   4  17
TORSDOF 6
ENDMDL
MODEL 5
REMARK VINA RESULT:      -7.4      1.143      1.567
REMARK  Name = 
REMARK  9 active torsions:
REMARK  status: ('A' for Active; 'I' for Inactive)
REMARK    1  A    between atoms: C_1  and  C_2
REMARK    2  A    between atoms: C_3  and  C_4
REMARK    3  A    between atoms: C_10  and  C_11
REMARK    4  A    between atoms: C_14  and  O_15
REMARK    5  A    between atoms: O_15  and  C_16
REMARK    6  A    between atoms: C_16  and  C_17
REMARK    7  A    between atoms: C_17  and  N_18
REMARK    8  A    between atoms: N_18  and  C_19
REMARK    9  A    between atoms: N_18  and  C_20
REMARK                            x       y       z     vdW  Elec       q    Type
REMARK                         _______ _______ _______ _____ _____    ______ ____
ROOT
ATOM      1  C   UNL     1       4.501   1.862  17.445  0.00  0.00    +0.000 C 
ATOM      2  C   UNL     1       4.305   3.341  17.426  0.00  0.00    +0.000 A 
ATOM      3  C   UNL     1       3.487   4.153  18.285  0.00  0.00    +0.000 A 
ATOM      4  C   UNL     1       3.611   5.491  17.858  0.00  0.00    +0.000 A 
ATOM      5  N   UNL     1       4.503   5.500  16.781  0.00  0.00    +0.000 N 
ATOM      6  C   UNL     1       4.988   6.576  16.022  0.00  0.00    +0.000 A 
ATOM      7  C   UNL     1       5.808   6.356  14.979  0.00  0.00    +0.000 A 
ATOM      8  C   UNL     1       6.210   4.997  14.676  0.00  0.00    +0.000 A 
ATOM      9  C   UNL     1       5.784   3.962  15.421  0.00  0.00    +0.000 A 
ATOM     10  C   UNL     1       4.896   4.193  16.516  0.00  0.00    +0.000 A 
ENDROOT
BRANCH   3  11
ATOM     11  C   UNL     1       2.642   3.684  19.404  0.00  0.00    +0.000 A 
ATOM     12  C   UNL     1       1.255   3.541  19.233  0.00  0.00    +0.000 A 
ATOM     13  C   UNL     1       0.429   3.150  20.293  0.00  0.00    +0.000 A 
ATOM     14  C   UNL     1       0.987   2.824  21.525  0.00  0.00    +0.000 A 
ATOM     15  C   UNL     1       2.363   2.920  21.705  0.00  0.00    +0.000 A 
ATOM     16  C   UNL     1       3.176   3.385  20.666  0.00  0.00    +0.000 A 
ENDBRANCH   3  11
BRANCH   4  17
ATOM     17  C   UNL     1       2.973   6.713  18.404  0.00  0.00    +0.000 A 
ATOM     18  C   UNL     1       2.653   6.763  19.762  0.00  0.00    +0.000 A 
ATOM     19  C   UNL     1       1.812   7.755  20.264  0.00  0.00    +0.000 A 
ATOM     20  C   UNL     1       1.345   8.785  19.444  0.00  0.00    +0.000 A 
ATOM     21  C   UNL     1       1.768   8.823  18.116  0.00  0.00    +0.000 A 
ATOM     22  C   UNL     1       2.549   7.779  17.594  0.00  0.00    +0.000 A 
BRANCH  20  23
ATOM     23  O   UNL     1       0.467   9.768  19.841  0.00  0.00    +0.000 OA
BRANCH  23  24
ATOM     24  C   UNL     1       0.966  10.572  20.919  0.00  0.00    +0.000 C 
BRANCH  24  25
ATOM     25  C   UNL     1       1.166  12.040  20.531  0.00  0.00    +0.000 C 
BRANCH  25  26
ATOM     26  N   UNL     1       0.860  12.949  21.664  0.00  0.00    +0.000 NA
ATOM     27  C   UNL     1       1.128  14.352  21.351  0.00  0.00    +0.000 C 
ATOM     28  C   UNL     1      -0.546  12.794  22.065  0.00  0.00    +0.000 C 
ENDBRANCH  25  26
ENDBRANCH  24  25
ENDBRANCH  23  24
ENDBRANCH  20  23
ENDBRANCH   4  17
TORSDOF 6
ENDMDL
MODEL 6
REMARK VINA RESULT:      -7.0      1.438      1.991
REMARK  Name = 
REMARK  9 active torsions:
REMARK  status: ('A' for Active; 'I' for Inactive)
REMARK    1  A    between atoms: C_1  and  C_2
REMARK    2  A    between atoms: C_3  and  C_4
REMARK    3  A    between atoms: C_10  and  C_11
REMARK    4  A    between atoms: C_14  and  O_15
REMARK    5  A    between atoms: O_15  and  C_16
REMARK    6  A    between atoms: C_16  and  C_17
REMARK    7  A    between atoms: C_17  and  N_18
REMARK    8  A    between atoms: N_18  and  C_19
REMARK    9  A    between atoms: N_18  and  C_20
REMARK                            x       y       z     vdW  Elec       q    Type
REMARK                         _______ _______ _______ _____ _____    ______ ____
ROOT
ATOM      1  C   UNL     1       4.590   1.964  17.630  0.00  0.00    +0.000 C 
ATOM      2  C   UNL     1       4.261   3.418  17.573  0.00  0.00    +0.000 A 
ATOM      3  C   UNL     1       3.350   4.169  18.394  0.00  0.00    +0.000 A 
ATOM      4  C   UNL     1       3.364   5.503  17.940  0.00  0.00    +0.000 A 
ATOM      5  N   UNL     1       4.280   5.573  16.885  0.00  0.00    +0.000 N 
ATOM      6  C   UNL     1       4.686   6.673  16.115  0.00  0.00    +0.000 A 
ATOM      7  C   UNL     1       5.550   6.509  15.098  0.00  0.00    +0.000 A 
ATOM      8  C   UNL     1       6.081   5.186  14.835  0.00  0.00    +0.000 A 
ATOM      9  C   UNL     1       5.731   4.132  15.592  0.00  0.00    +0.000 A 
ATOM     10  C   UNL     1       4.797   4.302  16.659  0.00  0.00    +0.000 A 
ENDROOT
BRANCH   3  11
ATOM     11  C   UNL     1       2.522   3.647  19.501  0.00  0.00    +0.000 A 
ATOM     12  C   UNL     1       3.101   3.378  20.753  0.00  0.00    +0.000 A 
ATOM     13  C   UNL     1       2.348   2.832  21.798  0.00  0.00    +0.000 A 
ATOM     14  C   UNL     1       0.983   2.615  21.633  0.00  0.00    +0.000 A 
ATOM     15  C   UNL     1       0.382   2.912  20.414  0.00  0.00    +0.000 A 
ATOM     16  C   UNL     1       1.153   3.384  19.347  0.00  0.00    +0.000 A 
ENDBRANCH   3  11
BRANCH   4  17
ATOM     17  C   UNL     1       2.604   6.674  18.442  0.00  0.00    +0.000 A 
ATOM     18  C   UNL     1       2.246   7.685  17.548  0.00  0.00    +0.000 A 
ATOM     19  C   UNL     1       1.787   8.918  18.009  0.00  0.00    +0.000 A 
ATOM     20  C   UNL     1       1.577   9.145  19.370  0.00  0.00    +0.000 A 
ATOM     21  C   UNL     1       1.801   8.098  20.263  0.00  0.00    +0.000 A 
ATOM     22  C   UNL     1       2.340   6.884  19.805  0.00  0.00    +0.000 A 
BRANCH  20  23
ATOM     23  O   UNL     1       1.184  10.347  19.915  0.00  0.00    +0.000 OA
BRANCH  23  24
ATOM     24  C   UNL     1       0.301  11.092  19.065  0.00  0.00    +0.000 C 
BRANCH  24  25
ATOM     25  C   UNL     1      -1.180  10.846  19.374  0.00  0.00    +0.000 C 
BRANCH  25  26
ATOM     26  N   UNL     1      -2.038  11.923  18.821  0.00  0.00    +0.000 NA
ATOM     27  C   UNL     1      -2.854  11.474  17.694  0.00  0.00    +0.000 C 
ATOM     28  C   UNL     1      -2.910  12.460  19.877  0.00  0.00    +0.000 C 
ENDBRANCH  25  26
ENDBRANCH  24  25
ENDBRANCH  23  24
ENDBRANCH  20  23
ENDBRANCH   4  17
TORSDOF 6
ENDMDL
MODEL 7
REMARK VINA RESULT:      -6.9      0.877      1.416
REMARK  Name = 
REMARK  9 active torsions:
REMARK  status: ('A' for Active; 'I' for Inactive)
REMARK    1  A    between atoms: C_1  and  C_2
REMARK    2  A    between atoms: C_3  and  C_4
REMARK    3  A    between atoms: C_10  and  C_11
REMARK    4  A    between atoms: C_14  and  O_15
REMARK    5  A    between atoms: O_15  and  C_16
REMARK    6  A    between atoms: C_16  and  C_17
REMARK    7  A    between atoms: C_17  and  N_18
REMARK    8  A    between atoms: N_18  and  C_19
REMARK    9  A    between atoms: N_18  and  C_20
REMARK                            x       y       z     vdW  Elec       q    Type
REMARK                         _______ _______ _______ _____ _____    ______ ____
ROOT
ATOM      1  C   UNL     1       4.608   2.040  17.624  0.00  0.00    +0.000 C 
ATOM      2  C   UNL     1       4.258   3.490  17.587  0.00  0.00    +0.000 A 
ATOM      3  C   UNL     1       3.339   4.217  18.420  0.00  0.00    +0.000 A 
ATOM      4  C   UNL     1       3.333   5.557  17.984  0.00  0.00    +0.000 A 
ATOM      5  N   UNL     1       4.244   5.653  16.928  0.00  0.00    +0.000 N 
ATOM      6  C   UNL     1       4.631   6.770  16.171  0.00  0.00    +0.000 A 
ATOM      7  C   UNL     1       5.495   6.631  15.150  0.00  0.00    +0.000 A 
ATOM      8  C   UNL     1       6.044   5.319  14.867  0.00  0.00    +0.000 A 
ATOM      9  C   UNL     1       5.711   4.250  15.611  0.00  0.00    +0.000 A 
ATOM     10  C   UNL     1       4.778   4.393  16.683  0.00  0.00    +0.000 A 
ENDROOT
BRANCH   3  11
ATOM     11  C   UNL     1       2.522   3.668  19.523  0.00  0.00    +0.000 A 
ATOM     12  C   UNL     1       3.111   3.376  20.764  0.00  0.00    +0.000 A 
ATOM     13  C   UNL     1       2.369   2.806  21.804  0.00  0.00    +0.000 A 
ATOM     14  C   UNL     1       1.005   2.586  21.646  0.00  0.00    +0.000 A 
ATOM     15  C   UNL     1       0.393   2.905  20.438  0.00  0.00    +0.000 A 
ATOM     16  C   UNL     1       1.153   3.403  19.375  0.00  0.00    +0.000 A 
ENDBRANCH   3  11
BRANCH   4  17
ATOM     17  C   UNL     1       2.557   6.710  18.505  0.00  0.00    +0.000 A 
ATOM     18  C   UNL     1       2.177   7.725  17.624  0.00  0.00    +0.000 A 
ATOM     19  C   UNL     1       1.702   8.945  18.101  0.00  0.00    +0.000 A 
ATOM     20  C   UNL     1       1.498   9.154  19.466  0.00  0.00    +0.000 A 
ATOM     21  C   UNL     1       1.745   8.102  20.346  0.00  0.00    +0.000 A 
ATOM     22  C   UNL     1       2.299   6.901  19.871  0.00  0.00    +0.000 A 
BRANCH  20  23
ATOM     23  O   UNL     1       1.089  10.344  20.026  0.00  0.00    +0.000 OA
BRANCH  23  24
ATOM     24  C   UNL     1      -0.212  10.271  20.624  0.00  0.00    +0.000 C 
BRANCH  24  25
ATOM     25  C   UNL     1      -0.281  10.944  21.999  0.00  0.00    +0.000 C 
BRANCH  25  26
ATOM     26  N   UNL     1      -0.906  12.287  21.917  0.00  0.00    +0.000 NA
ATOM     27  C   UNL     1       0.073  13.356  21.723  0.00  0.00    +0.000 C 
ATOM     28  C   UNL     1      -1.890  12.316  20.824  0.00  0.00    +0.000 C 
ENDBRANCH  25  26
ENDBRANCH  24  25
ENDBRANCH  23  24
ENDBRANCH  20  23
ENDBRANCH   4  17
TORSDOF 6
ENDMDL
MODEL 8
REMARK VINA RESULT:      -6.8      1.728      2.399
REMARK  Name = 
REMARK  9 active torsions:
REMARK  status: ('A' for Active; 'I' for Inactive)
REMARK    1  A    between atoms: C_1  and  C_2
REMARK    2  A    between atoms: C_3  and  C_4
REMARK    3  A    between atoms: C_10  and  C_11
REMARK    4  A    between atoms: C_14  and  O_15
REMARK    5  A    between atoms: O_15  and  C_16
REMARK    6  A    between atoms: C_16  and  C_17
REMARK    7  A    between atoms: C_17  and  N_18
REMARK    8  A    between atoms: N_18  and  C_19
REMARK    9  A    between atoms: N_18  and  C_20
REMARK                            x       y       z     vdW  Elec       q    Type
REMARK                         _______ _______ _______ _____ _____    ______ ____
ROOT
ATOM      1  C   UNL     1       4.653   1.944  17.595  0.00  0.00    +0.000 C 
ATOM      2  C   UNL     1       4.309   3.395  17.547  0.00  0.00    +0.000 A 
ATOM      3  C   UNL     1       3.392   4.133  18.373  0.00  0.00    +0.000 A 
ATOM      4  C   UNL     1       3.392   5.469  17.926  0.00  0.00    +0.000 A 
ATOM      5  N   UNL     1       4.305   5.554  16.870  0.00  0.00    +0.000 N 
ATOM      6  C   UNL     1       4.698   6.662  16.106  0.00  0.00    +0.000 A 
ATOM      7  C   UNL     1       5.562   6.512  15.087  0.00  0.00    +0.000 A 
ATOM      8  C   UNL     1       6.107   5.196  14.815  0.00  0.00    +0.000 A 
ATOM      9  C   UNL     1       5.768   4.134  15.567  0.00  0.00    +0.000 A 
ATOM     10  C   UNL     1       4.835   4.289  16.636  0.00  0.00    +0.000 A 
ENDROOT
BRANCH   3  11
ATOM     11  C   UNL     1       2.571   3.596  19.479  0.00  0.00    +0.000 A 
ATOM     12  C   UNL     1       1.203   3.344  19.288  0.00  0.00    +0.000 A 
ATOM     13  C   UNL     1       0.395   2.887  20.335  0.00  0.00    +0.000 A 
ATOM     14  C   UNL     1       0.958   2.604  21.575  0.00  0.00    +0.000 A 
ATOM     15  C   UNL     1       2.320   2.809  21.775  0.00  0.00    +0.000 A 
ATOM     16  C   UNL     1       3.109   3.338  20.749  0.00  0.00    +0.000 A 
ENDBRANCH   3  11
BRANCH   4  17
ATOM     17  C   UNL     1       2.620   6.629  18.436  0.00  0.00    +0.000 A 
ATOM     18  C   UNL     1       2.246   7.639  17.547  0.00  0.00    +0.000 A 
ATOM     19  C   UNL     1       1.775   8.865  18.014  0.00  0.00    +0.000 A 
ATOM     20  C   UNL     1       1.569   9.085  19.377  0.00  0.00    +0.000 A 
ATOM     21  C   UNL     1       1.810   8.038  20.265  0.00  0.00    +0.000 A 
ATOM     22  C   UNL     1       2.361   6.832  19.801  0.00  0.00    +0.000 A 
BRANCH  20  23
ATOM     23  O   UNL     1       1.165  10.281  19.927  0.00  0.00    +0.000 OA
BRANCH  23  24
ATOM     24  C   UNL     1       0.777  11.253  18.947  0.00  0.00    +0.000 C 
BRANCH  24  25
ATOM     25  C   UNL     1       1.779  12.405  18.813  0.00  0.00    +0.000 C 
BRANCH  25  26
ATOM     26  N   UNL     1       1.091  13.710  18.657  0.00  0.00    +0.000 NA
ATOM     27  C   UNL     1      -0.364  13.581  18.610  0.00  0.00    +0.000 C 
ATOM     28  C   UNL     1       1.471  14.610  19.756  0.00  0.00    +0.000 C 
ENDBRANCH  25  26
ENDBRANCH  24  25
ENDBRANCH  23  24
ENDBRANCH  20  23
ENDBRANCH   4  17
TORSDOF 6
ENDMDL
MODEL 9
REMARK VINA RESULT:      -6.8      1.380      2.180
REMARK  Name = 
REMARK  9 active torsions:
REMARK  status: ('A' for Active; 'I' for Inactive)
REMARK    1  A    between atoms: C_1  and  C_2
REMARK    2  A    between atoms: C_3  and  C_4
REMARK    3  A    between atoms: C_10  and  C_11
REMARK    4  A    between atoms: C_14  and  O_15
REMARK    5  A    between atoms: O_15  and  C_16
REMARK    6  A    between atoms: C_16  and  C_17
REMARK    7  A    between atoms: C_17  and  N_18
REMARK    8  A    between atoms: N_18  and  C_19
REMARK    9  A    between atoms: N_18  and  C_20
REMARK                            x       y       z     vdW  Elec       q    Type
REMARK                         _______ _______ _______ _____ _____    ______ ____
ROOT
ATOM      1  C   UNL     1       4.639   1.958  17.615  0.00  0.00    +0.000 C 
ATOM      2  C   UNL     1       4.301   3.410  17.564  0.00  0.00    +0.000 A 
ATOM      3  C   UNL     1       3.386   4.152  18.387  0.00  0.00    +0.000 A 
ATOM      4  C   UNL     1       3.391   5.488  17.938  0.00  0.00    +0.000 A 
ATOM      5  N   UNL     1       4.305   5.567  16.883  0.00  0.00    +0.000 N 
ATOM      6  C   UNL     1       4.703   6.673  16.117  0.00  0.00    +0.000 A 
ATOM      7  C   UNL     1       5.568   6.517  15.099  0.00  0.00    +0.000 A 
ATOM      8  C   UNL     1       6.107   5.199  14.830  0.00  0.00    +0.000 A 
ATOM      9  C   UNL     1       5.764   4.140  15.583  0.00  0.00    +0.000 A 
ATOM     10  C   UNL     1       4.830   4.300  16.652  0.00  0.00    +0.000 A 
ENDROOT
BRANCH   3  11
ATOM     11  C   UNL     1       2.562   3.621  19.493  0.00  0.00    +0.000 A 
ATOM     12  C   UNL     1       1.188   3.396  19.309  0.00  0.00    +0.000 A 
ATOM     13  C   UNL     1       0.378   2.945  20.357  0.00  0.00    +0.000 A 
ATOM     14  C   UNL     1       0.944   2.639  21.591  0.00  0.00    +0.000 A 
ATOM     15  C   UNL     1       2.310   2.816  21.783  0.00  0.00    +0.000 A 
ATOM     16  C   UNL     1       3.103   3.340  20.757  0.00  0.00    +0.000 A 
ENDBRANCH   3  11
BRANCH   4  17
ATOM     17  C   UNL     1       2.623   6.651  18.446  0.00  0.00    +0.000 A 
ATOM     18  C   UNL     1       2.309   7.692  17.568  0.00  0.00    +0.000 A 
ATOM     19  C   UNL     1       1.844   8.916  18.046  0.00  0.00    +0.000 A 
ATOM     20  C   UNL     1       1.586   9.106  19.405  0.00  0.00    +0.000 A 
ATOM     21  C   UNL     1       1.766   8.032  20.275  0.00  0.00    +0.000 A 
ATOM     22  C   UNL     1       2.310   6.826  19.803  0.00  0.00    +0.000 A 
BRANCH  20  23
ATOM     23  O   UNL     1       1.184  10.297  19.969  0.00  0.00    +0.000 OA
BRANCH  23  24
ATOM     24  C   UNL     1      -0.241  10.453  20.006  0.00  0.00    +0.000 C 
BRANCH  24  25
ATOM     25  C   UNL     1      -0.865  10.610  18.615  0.00  0.00    +0.000 C 
BRANCH  25  26
ATOM     26  N   UNL     1      -2.279  11.052  18.699  0.00  0.00    +0.000 NA
ATOM     27  C   UNL     1      -2.467  12.172  19.620  0.00  0.00    +0.000 C 
ATOM     28  C   UNL     1      -2.767  11.426  17.363  0.00  0.00    +0.000 C 
ENDBRANCH  25  26
ENDBRANCH  24  25
ENDBRANCH  23  24
ENDBRANCH  20  23
ENDBRANCH   4  17
TORSDOF 6
ENDMDL
