MODEL 1
REMARK VINA RESULT:      -7.3      0.000      0.000
REMARK  Name = 
REMARK  4 active torsions:
REMARK  status: ('A' for Active; 'I' for Inactive)
REMARK    1  A    between atoms: C_1  and  C_2
REMARK    2  A    between atoms: C_4  and  C_5
REMARK    3  A    between atoms: N_8  and  C_9
REMARK    4  A    between atoms: C_10  and  C_11
REMARK                            x       y       z     vdW  Elec       q    Type
REMARK                         _______ _______ _______ _____ _____    ______ ____
ROOT
ATOM      1  C   UNL     1      -4.777  11.218  17.381  0.00  0.00    +0.000 C 
ATOM      2  C   UNL     1      -4.834  11.829  18.729  0.00  0.00    +0.000 A 
ATOM      3  N   UNL     1      -3.944  12.652  19.248  0.00  0.00    +0.000 NA
ATOM      4  C   UNL     1      -4.411  12.950  20.509  0.00  0.00    +0.000 A 
ATOM      5  C   UNL     1      -5.609  12.309  20.741  0.00  0.00    +0.000 A 
ATOM      6  C   UNL     1      -6.554  12.228  21.819  0.00  0.00    +0.000 A 
ATOM      7  N   UNL     1      -6.410  13.011  22.957  0.00  0.00    +0.000 N 
ATOM      8  C   UNL     1      -7.164  12.707  24.141  0.00  0.00    +0.000 C 
ATOM      9  C   UNL     1      -7.718  14.124  24.135  0.00  0.00    +0.000 C 
ATOM     10  C   UNL     1      -6.912  14.357  22.867  0.00  0.00    +0.000 C 
ATOM     11  N   UNL     1      -7.526  11.369  21.678  0.00  0.00    +0.000 NA
ATOM     12  C   UNL     1      -7.621  10.622  20.534  0.00  0.00    +0.000 A 
ATOM     13  N   UNL     1      -6.851  10.679  19.492  0.00  0.00    +0.000 NA
ATOM     14  N   UNL     1      -5.838  11.559  19.628  0.00  0.00    +0.000 N 
ENDROOT
BRANCH   4  15
ATOM     15  C   UNL     1      -3.593  13.782  21.388  0.00  0.00    +0.000 A 
ATOM     16  C   UNL     1      -3.999  15.049  21.843  0.00  0.00    +0.000 A 
ATOM     17  N   UNL     1      -3.118  15.601  22.668  0.00  0.00    +0.000 NA
ATOM     18  N   UNL     1      -2.174  14.649  22.806  0.00  0.00    +0.000 N 
ATOM     19  C   UNL     1      -1.130  14.928  23.765  0.00  0.00    +0.000 C 
ATOM     20  C   UNL     1      -2.386  13.515  22.033  0.00  0.00    +0.000 A 
BRANCH  20  21
ATOM     21  C   UNL     1      -1.529  12.307  21.998  0.00  0.00    +0.000 A 
ATOM     22  C   UNL     1      -1.512  11.387  23.061  0.00  0.00    +0.000 A 
ATOM     23  C   UNL     1      -0.775  10.198  22.989  0.00  0.00    +0.000 A 
ATOM     24  C   UNL     1      -0.077   9.884  21.828  0.00  0.00    +0.000 A 
ATOM     25 CL   UNL     1       0.759   8.385  21.715  0.00  0.00    +0.000 Cl
ATOM     26  C   UNL     1      -0.060  10.775  20.765  0.00  0.00    +0.000 A 
ATOM     27  C   UNL     1      -0.753  11.983  20.869  0.00  0.00    +0.000 A 
ATOM     28  F   UNL     1      -0.638  12.844  19.845  0.00  0.00    +0.000 F 
ENDBRANCH  20  21
ENDBRANCH   4  15
TORSDOF 2
ENDMDL
MODEL 2
REMARK VINA RESULT:      -7.0      1.040      1.378
REMARK  Name = 
REMARK  4 active torsions:
REMARK  status: ('A' for Active; 'I' for Inactive)
REMARK    1  A    between atoms: C_1  and  C_2
REMARK    2  A    between atoms: C_4  and  C_5
REMARK    3  A    between atoms: N_8  and  C_9
REMARK    4  A    between atoms: C_10  and  C_11
REMARK                            x       y       z     vdW  Elec       q    Type
REMARK                         _______ _______ _______ _____ _____    ______ ____
ROOT
ATOM      1  C   UNL     1      -4.846  10.486  17.234  0.00  0.00    +0.000 C 
ATOM      2  C   UNL     1      -4.931  11.274  18.486  0.00  0.00    +0.000 A 
ATOM      3  N   UNL     1      -4.080  12.201  18.880  0.00  0.00    +0.000 NA
ATOM      4  C   UNL     1      -4.560  12.648  20.091  0.00  0.00    +0.000 A 
ATOM      5  C   UNL     1      -5.726  11.990  20.418  0.00  0.00    +0.000 A 
ATOM      6  C   UNL     1      -6.666  12.014  21.504  0.00  0.00    +0.000 A 
ATOM      7  N   UNL     1      -6.558  12.952  22.522  0.00  0.00    +0.000 N 
ATOM      8  C   UNL     1      -7.296  12.779  23.742  0.00  0.00    +0.000 C 
ATOM      9  C   UNL     1      -7.916  14.154  23.546  0.00  0.00    +0.000 C 
ATOM     10  C   UNL     1      -7.122  14.248  22.251  0.00  0.00    +0.000 C 
ATOM     11  N   UNL     1      -7.597  11.099  21.488  0.00  0.00    +0.000 NA
ATOM     12  C   UNL     1      -7.657  10.199  20.459  0.00  0.00    +0.000 A 
ATOM     13  N   UNL     1      -6.890  10.147  19.414  0.00  0.00    +0.000 NA
ATOM     14  N   UNL     1      -5.920  11.084  19.420  0.00  0.00    +0.000 N 
ENDROOT
BRANCH   4  15
ATOM     15  C   UNL     1      -3.781  13.630  20.842  0.00  0.00    +0.000 A 
ATOM     16  C   UNL     1      -4.229  14.940  21.087  0.00  0.00    +0.000 A 
ATOM     17  N   UNL     1      -3.379  15.639  21.829  0.00  0.00    +0.000 NA
ATOM     18  N   UNL     1      -2.414  14.748  22.128  0.00  0.00    +0.000 N 
ATOM     19  C   UNL     1      -1.397  15.204  23.047  0.00  0.00    +0.000 C 
ATOM     20  C   UNL     1      -2.580  13.502  21.540  0.00  0.00    +0.000 A 
BRANCH  20  21
ATOM     21  C   UNL     1      -1.692  12.329  21.707  0.00  0.00    +0.000 A 
ATOM     22  C   UNL     1      -0.705  12.013  20.757  0.00  0.00    +0.000 A 
ATOM     23  C   UNL     1       0.197  10.961  20.960  0.00  0.00    +0.000 A 
ATOM     24  C   UNL     1       0.157  10.232  22.142  0.00  0.00    +0.000 A 
ATOM     25 CL   UNL     1       1.319   8.994  22.421  0.00  0.00    +0.000 Cl
ATOM     26  C   UNL     1      -0.812  10.506  23.096  0.00  0.00    +0.000 A 
ATOM     27  C   UNL     1      -1.742  11.522  22.859  0.00  0.00    +0.000 A 
ATOM     28  F   UNL     1      -2.707  11.693  23.776  0.00  0.00    +0.000 F 
ENDBRANCH  20  21
ENDBRANCH   4  15
TORSDOF 2
ENDMDL
MODEL 3
REMARK VINA RESULT:      -6.9      2.512      4.945
REMARK  Name = 
REMARK  4 active torsions:
REMARK  status: ('A' for Active; 'I' for Inactive)
REMARK    1  A    between atoms: C_1  and  C_2
REMARK    2  A    between atoms: C_4  and  C_5
REMARK    3  A    between atoms: N_8  and  C_9
REMARK    4  A    between atoms: C_10  and  C_11
REMARK                            x       y       z     vdW  Elec       q    Type
REMARK                         _______ _______ _______ _____ _____    ______ ____
ROOT
ATOM      1  C   UNL     1      -3.910  13.006  23.263  0.00  0.00    +0.000 C 
ATOM      2  C   UNL     1      -3.313  12.819  21.920  0.00  0.00    +0.000 A 
ATOM      3  N   UNL     1      -2.074  13.107  21.572  0.00  0.00    +0.000 NA
ATOM      4  C   UNL     1      -1.980  12.773  20.240  0.00  0.00    +0.000 A 
ATOM      5  C   UNL     1      -3.176  12.262  19.787  0.00  0.00    +0.000 A 
ATOM      6  C   UNL     1      -3.687  11.752  18.545  0.00  0.00    +0.000 A 
ATOM      7  N   UNL     1      -2.856  11.585  17.445  0.00  0.00    +0.000 N 
ATOM      8  C   UNL     1      -3.421  11.376  16.141  0.00  0.00    +0.000 C 
ATOM      9  C   UNL     1      -2.618  10.090  16.013  0.00  0.00    +0.000 C 
ATOM     10  C   UNL     1      -2.088  10.369  17.412  0.00  0.00    +0.000 C 
ATOM     11  N   UNL     1      -4.965  11.485  18.507  0.00  0.00    +0.000 NA
ATOM     12  C   UNL     1      -5.737  11.669  19.622  0.00  0.00    +0.000 A 
ATOM     13  N   UNL     1      -5.346  12.062  20.794  0.00  0.00    +0.000 NA
ATOM     14  N   UNL     1      -4.029  12.347  20.846  0.00  0.00    +0.000 N 
ENDROOT
BRANCH   4  15
ATOM     15  C   UNL     1      -0.738  13.059  19.525  0.00  0.00    +0.000 A 
ATOM     16  C   UNL     1      -0.415  14.334  19.027  0.00  0.00    +0.000 A 
ATOM     17  N   UNL     1       0.783  14.369  18.456  0.00  0.00    +0.000 NA
ATOM     18  N   UNL     1       1.267  13.128  18.658  0.00  0.00    +0.000 N 
ATOM     19  C   UNL     1       2.633  12.907  18.244  0.00  0.00    +0.000 C 
ATOM     20  C   UNL     1       0.382  12.263  19.286  0.00  0.00    +0.000 A 
BRANCH  20  21
ATOM     21  C   UNL     1       0.648  10.852  19.653  0.00  0.00    +0.000 A 
ATOM     22  C   UNL     1       0.994   9.894  18.684  0.00  0.00    +0.000 A 
ATOM     23  C   UNL     1       1.338   8.584  19.041  0.00  0.00    +0.000 A 
ATOM     24  C   UNL     1       1.387   8.220  20.381  0.00  0.00    +0.000 A 
ATOM     25 CL   UNL     1       1.887   6.633  20.816  0.00  0.00    +0.000 Cl
ATOM     26  C   UNL     1       1.038   9.135  21.363  0.00  0.00    +0.000 A 
ATOM     27  C   UNL     1       0.643  10.423  20.994  0.00  0.00    +0.000 A 
ATOM     28  F   UNL     1       0.238  11.244  21.976  0.00  0.00    +0.000 F 
ENDBRANCH  20  21
ENDBRANCH   4  15
TORSDOF 2
ENDMDL
MODEL 4
REMARK VINA RESULT:      -6.9      9.512     12.369
REMARK  Name = 
REMARK  4 active torsions:
REMARK  status: ('A' for Active; 'I' for Inactive)
REMARK    1  A    between atoms: C_1  and  C_2
REMARK    2  A    between atoms: C_4  and  C_5
REMARK    3  A    between atoms: N_8  and  C_9
REMARK    4  A    between atoms: C_10  and  C_11
REMARK                            x       y       z     vdW  Elec       q    Type
REMARK                         _______ _______ _______ _____ _____    ______ ____
ROOT
ATOM      1  C   UNL     1       3.974  15.816  17.770  0.00  0.00    +0.000 C 
ATOM      2  C   UNL     1       5.184  15.534  18.577  0.00  0.00    +0.000 A 
ATOM      3  N   UNL     1       6.434  15.643  18.170  0.00  0.00    +0.000 NA
ATOM      4  C   UNL     1       7.204  15.275  19.250  0.00  0.00    +0.000 A 
ATOM      5  C   UNL     1       6.403  14.958  20.326  0.00  0.00    +0.000 A 
ATOM      6  C   UNL     1       6.604  14.526  21.681  0.00  0.00    +0.000 A 
ATOM      7  N   UNL     1       7.879  14.444  22.224  0.00  0.00    +0.000 N 
ATOM      8  C   UNL     1       8.095  13.728  23.450  0.00  0.00    +0.000 C 
ATOM      9  C   UNL     1       8.719  14.977  24.055  0.00  0.00    +0.000 C 
ATOM     10  C   UNL     1       8.429  15.673  22.733  0.00  0.00    +0.000 C 
ATOM     11  N   UNL     1       5.533  14.194  22.350  0.00  0.00    +0.000 NA
ATOM     12  C   UNL     1       4.300  14.294  21.765  0.00  0.00    +0.000 A 
ATOM     13  N   UNL     1       4.027  14.733  20.575  0.00  0.00    +0.000 NA
ATOM     14  N   UNL     1       5.125  15.073  19.870  0.00  0.00    +0.000 N 
ENDROOT
BRANCH   4  15
ATOM     15  C   UNL     1       8.655  15.203  19.092  0.00  0.00    +0.000 A 
ATOM     16  C   UNL     1       9.492  16.331  19.160  0.00  0.00    +0.000 A 
ATOM     17  N   UNL     1      10.776  16.021  19.036  0.00  0.00    +0.000 NA
ATOM     18  N   UNL     1      10.772  14.676  18.965  0.00  0.00    +0.000 N 
ATOM     19  C   UNL     1      12.068  14.039  18.950  0.00  0.00    +0.000 C 
ATOM     20  C   UNL     1       9.506  14.105  18.970  0.00  0.00    +0.000 A 
BRANCH  20  21
ATOM     21  C   UNL     1       9.198  12.657  18.923  0.00  0.00    +0.000 A 
ATOM     22  C   UNL     1       8.612  12.067  17.790  0.00  0.00    +0.000 A 
ATOM     23  C   UNL     1       8.406  10.683  17.708  0.00  0.00    +0.000 A 
ATOM     24  C   UNL     1       8.830   9.857  18.743  0.00  0.00    +0.000 A 
ATOM     25 CL   UNL     1       8.649   8.152  18.601  0.00  0.00    +0.000 Cl
ATOM     26  C   UNL     1       9.400  10.406  19.882  0.00  0.00    +0.000 A 
ATOM     27  C   UNL     1       9.549  11.792  19.977  0.00  0.00    +0.000 A 
ATOM     28  F   UNL     1      10.031  12.277  21.132  0.00  0.00    +0.000 F 
ENDBRANCH  20  21
ENDBRANCH   4  15
TORSDOF 2
ENDMDL
MODEL 5
REMARK VINA RESULT:      -6.9      9.158     12.331
REMARK  Name = 
REMARK  4 active torsions:
REMARK  status: ('A' for Active; 'I' for Inactive)
REMARK    1  A    between atoms: C_1  and  C_2
REMARK    2  A    between atoms: C_4  and  C_5
REMARK    3  A    between atoms: N_8  and  C_9
REMARK    4  A    between atoms: C_10  and  C_11
REMARK                            x       y       z     vdW  Elec       q    Type
REMARK                         _______ _______ _______ _____ _____    ______ ____
ROOT
ATOM      1  C   UNL     1       1.836   8.807  19.039  0.00  0.00    +0.000 C 
ATOM      2  C   UNL     1       2.505   7.518  18.748  0.00  0.00    +0.000 A 
ATOM      3  N   UNL     1       3.417   7.306  17.819  0.00  0.00    +0.000 NA
ATOM      4  C   UNL     1       3.739   5.971  17.918  0.00  0.00    +0.000 A 
ATOM      5  C   UNL     1       3.021   5.378  18.933  0.00  0.00    +0.000 A 
ATOM      6  C   UNL     1       2.920   4.065  19.508  0.00  0.00    +0.000 A 
ATOM      7  N   UNL     1       3.765   3.041  19.102  0.00  0.00    +0.000 N 
ATOM      8  C   UNL     1       3.461   1.679  19.445  0.00  0.00    +0.000 C 
ATOM      9  C   UNL     1       4.830   1.552  20.096  0.00  0.00    +0.000 C 
ATOM     10  C   UNL     1       5.063   3.008  19.723  0.00  0.00    +0.000 C 
ATOM     11  N   UNL     1       1.984   3.891  20.401  0.00  0.00    +0.000 NA
ATOM     12  C   UNL     1       1.178   4.937  20.763  0.00  0.00    +0.000 A 
ATOM     13  N   UNL     1       1.244   6.162  20.343  0.00  0.00    +0.000 NA
ATOM     14  N   UNL     1       2.203   6.355  19.415  0.00  0.00    +0.000 N 
ENDROOT
BRANCH   4  15
ATOM     15  C   UNL     1       4.671   5.395  16.952  0.00  0.00    +0.000 A 
ATOM     16  C   UNL     1       4.296   4.423  16.008  0.00  0.00    +0.000 A 
ATOM     17  N   UNL     1       5.295   4.081  15.203  0.00  0.00    +0.000 NA
ATOM     18  N   UNL     1       6.299   4.896  15.582  0.00  0.00    +0.000 N 
ATOM     19  C   UNL     1       7.500   4.834  14.781  0.00  0.00    +0.000 C 
ATOM     20  C   UNL     1       5.998   5.713  16.663  0.00  0.00    +0.000 A 
BRANCH  20  21
ATOM     21  C   UNL     1       6.897   6.718  17.278  0.00  0.00    +0.000 A 
ATOM     22  C   UNL     1       6.859   8.069  16.894  0.00  0.00    +0.000 A 
ATOM     23  C   UNL     1       7.640   9.036  17.540  0.00  0.00    +0.000 A 
ATOM     24  C   UNL     1       8.441   8.675  18.617  0.00  0.00    +0.000 A 
ATOM     25 CL   UNL     1       9.335   9.880  19.458  0.00  0.00    +0.000 Cl
ATOM     26  C   UNL     1       8.513   7.348  19.015  0.00  0.00    +0.000 A 
ATOM     27  C   UNL     1       7.773   6.383  18.328  0.00  0.00    +0.000 A 
ATOM     28  F   UNL     1       7.941   5.103  18.701  0.00  0.00    +0.000 F 
ENDBRANCH  20  21
ENDBRANCH   4  15
TORSDOF 2
ENDMDL
MODEL 6
REMARK VINA RESULT:      -6.9      3.287      5.502
REMARK  Name = 
REMARK  4 active torsions:
REMARK  status: ('A' for Active; 'I' for Inactive)
REMARK    1  A    between atoms: C_1  and  C_2
REMARK    2  A    between atoms: C_4  and  C_5
REMARK    3  A    between atoms: N_8  and  C_9
REMARK    4  A    between atoms: C_10  and  C_11
REMARK                            x       y       z     vdW  Elec       q    Type
REMARK                         _______ _______ _______ _____ _____    ______ ____
ROOT
ATOM      1  C   UNL     1      -6.144  12.114  17.722  0.00  0.00    +0.000 C 
ATOM      2  C   UNL     1      -4.901  12.140  18.527  0.00  0.00    +0.000 A 
ATOM      3  N   UNL     1      -4.743  12.730  19.696  0.00  0.00    +0.000 NA
ATOM      4  C   UNL     1      -3.434  12.493  20.052  0.00  0.00    +0.000 A 
ATOM      5  C   UNL     1      -2.804  11.735  19.090  0.00  0.00    +0.000 A 
ATOM      6  C   UNL     1      -1.493  11.179  18.895  0.00  0.00    +0.000 A 
ATOM      7  N   UNL     1      -0.525  11.267  19.887  0.00  0.00    +0.000 N 
ATOM      8  C   UNL     1       0.850  10.994  19.576  0.00  0.00    +0.000 C 
ATOM      9  C   UNL     1       0.876   9.944  20.676  0.00  0.00    +0.000 C 
ATOM     10  C   UNL     1      -0.589  10.271  20.923  0.00  0.00    +0.000 C 
ATOM     11  N   UNL     1      -1.265  10.619  17.738  0.00  0.00    +0.000 NA
ATOM     12  C   UNL     1      -2.256  10.560  16.797  0.00  0.00    +0.000 A 
ATOM     13  N   UNL     1      -3.479  10.978  16.915  0.00  0.00    +0.000 NA
ATOM     14  N   UNL     1      -3.727  11.564  18.103  0.00  0.00    +0.000 N 
ENDROOT
BRANCH   4  15
ATOM     15  C   UNL     1      -2.913  13.100  21.275  0.00  0.00    +0.000 A 
ATOM     16  C   UNL     1      -3.056  12.513  22.545  0.00  0.00    +0.000 A 
ATOM     17  N   UNL     1      -2.464  13.218  23.501  0.00  0.00    +0.000 NA
ATOM     18  N   UNL     1      -1.870  14.224  22.831  0.00  0.00    +0.000 N 
ATOM     19  C   UNL     1      -1.030  15.098  23.618  0.00  0.00    +0.000 C 
ATOM     20  C   UNL     1      -2.120  14.231  21.466  0.00  0.00    +0.000 A 
BRANCH  20  21
ATOM     21  C   UNL     1      -1.584  15.201  20.482  0.00  0.00    +0.000 A 
ATOM     22  C   UNL     1      -0.558  14.849  19.588  0.00  0.00    +0.000 A 
ATOM     23  C   UNL     1      -0.116  15.733  18.596  0.00  0.00    +0.000 A 
ATOM     24  C   UNL     1      -0.727  16.973  18.450  0.00  0.00    +0.000 A 
ATOM     25 CL   UNL     1      -0.236  18.022  17.178  0.00  0.00    +0.000 Cl
ATOM     26  C   UNL     1      -1.734  17.359  19.322  0.00  0.00    +0.000 A 
ATOM     27  C   UNL     1      -2.129  16.491  20.344  0.00  0.00    +0.000 A 
ATOM     28  F   UNL     1      -3.049  16.945  21.210  0.00  0.00    +0.000 F 
ENDBRANCH  20  21
ENDBRANCH   4  15
TORSDOF 2
ENDMDL
MODEL 7
REMARK VINA RESULT:      -6.8      3.368      6.130
REMARK  Name = 
REMARK  4 active torsions:
REMARK  status: ('A' for Active; 'I' for Inactive)
REMARK    1  A    between atoms: C_1  and  C_2
REMARK    2  A    between atoms: C_4  and  C_5
REMARK    3  A    between atoms: N_8  and  C_9
REMARK    4  A    between atoms: C_10  and  C_11
REMARK                            x       y       z     vdW  Elec       q    Type
REMARK                         _______ _______ _______ _____ _____    ______ ____
ROOT
ATOM      1  C   UNL     1      -0.169   8.913  22.858  0.00  0.00    +0.000 C 
ATOM      2  C   UNL     1      -0.423  10.329  22.506  0.00  0.00    +0.000 A 
ATOM      3  N   UNL     1      -1.084  11.206  23.237  0.00  0.00    +0.000 NA
ATOM      4  C   UNL     1      -1.068  12.375  22.509  0.00  0.00    +0.000 A 
ATOM      5  C   UNL     1      -0.372  12.200  21.334  0.00  0.00    +0.000 A 
ATOM      6  C   UNL     1      -0.015  13.012  20.203  0.00  0.00    +0.000 A 
ATOM      7  N   UNL     1      -0.297  14.372  20.183  0.00  0.00    +0.000 N 
ATOM      8  C   UNL     1      -0.224  15.104  18.950  0.00  0.00    +0.000 C 
ATOM      9  C   UNL     1       0.758  16.069  19.596  0.00  0.00    +0.000 C 
ATOM     10  C   UNL     1       0.648  15.223  20.856  0.00  0.00    +0.000 C 
ATOM     11  N   UNL     1       0.556  12.399  19.203  0.00  0.00    +0.000 NA
ATOM     12  C   UNL     1       0.811  11.055  19.277  0.00  0.00    +0.000 A 
ATOM     13  N   UNL     1       0.580  10.266  20.279  0.00  0.00    +0.000 NA
ATOM     14  N   UNL     1      -0.015  10.885  21.318  0.00  0.00    +0.000 N 
ENDROOT
BRANCH   4  15
ATOM     15  C   UNL     1      -1.804  13.532  23.014  0.00  0.00    +0.000 A 
ATOM     16  C   UNL     1      -1.226  14.506  23.848  0.00  0.00    +0.000 A 
ATOM     17  N   UNL     1      -2.068  15.489  24.143  0.00  0.00    +0.000 NA
ATOM     18  N   UNL     1      -3.171  15.186  23.431  0.00  0.00    +0.000 N 
ATOM     19  C   UNL     1      -4.231  16.166  23.459  0.00  0.00    +0.000 C 
ATOM     20  C   UNL     1      -3.092  13.988  22.732  0.00  0.00    +0.000 A 
BRANCH  20  21
ATOM     21  C   UNL     1      -4.138  13.416  21.854  0.00  0.00    +0.000 A 
ATOM     22  C   UNL     1      -3.932  13.258  20.473  0.00  0.00    +0.000 A 
ATOM     23  C   UNL     1      -4.883  12.631  19.657  0.00  0.00    +0.000 A 
ATOM     24  C   UNL     1      -6.041  12.106  20.220  0.00  0.00    +0.000 A 
ATOM     25 CL   UNL     1      -7.167  11.266  19.227  0.00  0.00    +0.000 Cl
ATOM     26  C   UNL     1      -6.284  12.256  21.577  0.00  0.00    +0.000 A 
ATOM     27  C   UNL     1      -5.355  12.932  22.372  0.00  0.00    +0.000 A 
ATOM     28  F   UNL     1      -5.676  13.120  23.662  0.00  0.00    +0.000 F 
ENDBRANCH  20  21
ENDBRANCH   4  15
TORSDOF 2
ENDMDL
MODEL 8
REMARK VINA RESULT:      -6.8      4.057      6.780
REMARK  Name = 
REMARK  4 active torsions:
REMARK  status: ('A' for Active; 'I' for Inactive)
REMARK    1  A    between atoms: C_1  and  C_2
REMARK    2  A    between atoms: C_4  and  C_5
REMARK    3  A    between atoms: N_8  and  C_9
REMARK    4  A    between atoms: C_10  and  C_11
REMARK                            x       y       z     vdW  Elec       q    Type
REMARK                         _______ _______ _______ _____ _____    ______ ____
ROOT
ATOM      1  C   UNL     1       4.604  14.219  18.727  0.00  0.00    +0.000 C 
ATOM      2  C   UNL     1       3.243  13.827  19.160  0.00  0.00    +0.000 A 
ATOM      3  N   UNL     1       2.410  13.046  18.498  0.00  0.00    +0.000 NA
ATOM      4  C   UNL     1       1.278  12.971  19.278  0.00  0.00    +0.000 A 
ATOM      5  C   UNL     1       1.443  13.704  20.433  0.00  0.00    +0.000 A 
ATOM      6  C   UNL     1       0.656  14.001  21.598  0.00  0.00    +0.000 A 
ATOM      7  N   UNL     1      -0.577  13.396  21.802  0.00  0.00    +0.000 N 
ATOM      8  C   UNL     1      -1.482  13.919  22.787  0.00  0.00    +0.000 C 
ATOM      9  C   UNL     1      -1.531  12.550  23.449  0.00  0.00    +0.000 C 
ATOM     10  C   UNL     1      -0.548  12.081  22.386  0.00  0.00    +0.000 C 
ATOM     11  N   UNL     1       1.152  14.879  22.427  0.00  0.00    +0.000 NA
ATOM     12  C   UNL     1       2.373  15.445  22.177  0.00  0.00    +0.000 A 
ATOM     13  N   UNL     1       3.172  15.187  21.188  0.00  0.00    +0.000 NA
ATOM     14  N   UNL     1       2.669  14.285  20.321  0.00  0.00    +0.000 N 
ENDROOT
BRANCH   4  15
ATOM     15  C   UNL     1       0.118  12.242  18.772  0.00  0.00    +0.000 A 
ATOM     16  C   UNL     1      -0.970  12.871  18.143  0.00  0.00    +0.000 A 
ATOM     17  N   UNL     1      -1.886  12.007  17.723  0.00  0.00    +0.000 NA
ATOM     18  N   UNL     1      -1.346  10.807  18.016  0.00  0.00    +0.000 N 
ATOM     19  C   UNL     1      -2.081   9.653  17.550  0.00  0.00    +0.000 C 
ATOM     20  C   UNL     1      -0.130  10.872  18.681  0.00  0.00    +0.000 A 
BRANCH  20  21
ATOM     21  C   UNL     1       0.699   9.720  19.106  0.00  0.00    +0.000 A 
ATOM     22  C   UNL     1       0.525   9.115  20.363  0.00  0.00    +0.000 A 
ATOM     23  C   UNL     1       1.242   7.968  20.729  0.00  0.00    +0.000 A 
ATOM     24  C   UNL     1       2.113   7.376  19.822  0.00  0.00    +0.000 A 
ATOM     25 CL   UNL     1       2.929   5.923  20.248  0.00  0.00    +0.000 Cl
ATOM     26  C   UNL     1       2.320   7.954  18.578  0.00  0.00    +0.000 A 
ATOM     27  C   UNL     1       1.642   9.129  18.244  0.00  0.00    +0.000 A 
ATOM     28  F   UNL     1       1.938   9.690  17.061  0.00  0.00    +0.000 F 
ENDBRANCH  20  21
ENDBRANCH   4  15
TORSDOF 2
ENDMDL
MODEL 9
REMARK VINA RESULT:      -6.8      3.396      5.612
REMARK  Name = 
REMARK  4 active torsions:
REMARK  status: ('A' for Active; 'I' for Inactive)
REMARK    1  A    between atoms: C_1  and  C_2
REMARK    2  A    between atoms: C_4  and  C_5
REMARK    3  A    between atoms: N_8  and  C_9
REMARK    4  A    between atoms: C_10  and  C_11
REMARK                            x       y       z     vdW  Elec       q    Type
REMARK                         _______ _______ _______ _____ _____    ______ ____
ROOT
ATOM      1  C   UNL     1      -5.985  12.107  17.743  0.00  0.00    +0.000 C 
ATOM      2  C   UNL     1      -4.706  12.073  18.490  0.00  0.00    +0.000 A 
ATOM      3  N   UNL     1      -4.446  12.708  19.617  0.00  0.00    +0.000 NA
ATOM      4  C   UNL     1      -3.145  12.384  19.929  0.00  0.00    +0.000 A 
ATOM      5  C   UNL     1      -2.624  11.527  18.984  0.00  0.00    +0.000 A 
ATOM      6  C   UNL     1      -1.372  10.856  18.764  0.00  0.00    +0.000 A 
ATOM      7  N   UNL     1      -0.354  10.916  19.706  0.00  0.00    +0.000 N 
ATOM      8  C   UNL     1       0.979  10.515  19.351  0.00  0.00    +0.000 C 
ATOM      9  C   UNL     1       0.974   9.525  20.507  0.00  0.00    +0.000 C 
ATOM     10  C   UNL     1      -0.447   9.985  20.798  0.00  0.00    +0.000 C 
ATOM     11  N   UNL     1      -1.245  10.219  17.632  0.00  0.00    +0.000 NA
ATOM     12  C   UNL     1      -2.282  10.192  16.739  0.00  0.00    +0.000 A 
ATOM     13  N   UNL     1      -3.460  10.714  16.886  0.00  0.00    +0.000 NA
ATOM     14  N   UNL     1      -3.604  11.381  18.049  0.00  0.00    +0.000 N 
ENDROOT
BRANCH   4  15
ATOM     15  C   UNL     1      -2.519  13.010  21.091  0.00  0.00    +0.000 A 
ATOM     16  C   UNL     1      -2.425  12.379  22.344  0.00  0.00    +0.000 A 
ATOM     17  N   UNL     1      -1.775  13.116  23.238  0.00  0.00    +0.000 NA
ATOM     18  N   UNL     1      -1.382  14.195  22.533  0.00  0.00    +0.000 N 
ATOM     19  C   UNL     1      -0.530  15.129  23.231  0.00  0.00    +0.000 C 
ATOM     20  C   UNL     1      -1.821  14.211  21.216  0.00  0.00    +0.000 A 
BRANCH  20  21
ATOM     21  C   UNL     1      -1.525  15.254  20.207  0.00  0.00    +0.000 A 
ATOM     22  C   UNL     1      -2.222  16.475  20.187  0.00  0.00    +0.000 A 
ATOM     23  C   UNL     1      -1.880  17.499  19.294  0.00  0.00    +0.000 A 
ATOM     24  C   UNL     1      -0.801  17.337  18.434  0.00  0.00    +0.000 A 
ATOM     25 CL   UNL     1      -0.335  18.628  17.397  0.00  0.00    +0.000 Cl
ATOM     26  C   UNL     1      -0.099  16.141  18.416  0.00  0.00    +0.000 A 
ATOM     27  C   UNL     1      -0.484  15.105  19.272  0.00  0.00    +0.000 A 
ATOM     28  F   UNL     1       0.176  13.941  19.158  0.00  0.00    +0.000 F 
ENDBRANCH  20  21
ENDBRANCH   4  15
TORSDOF 2
ENDMDL
