MODEL 1
REMARK VINA RESULT:      -8.0      0.000      0.000
REMARK  Name = 
REMARK  5 active torsions:
REMARK  status: ('A' for Active; 'I' for Inactive)
REMARK    1  A    between atoms: C_1  and  N_2
REMARK    2  A    between atoms: N_2  and  C_3
REMARK    3  A    between atoms: C_6  and  C_7
REMARK    4  A    between atoms: C_13  and  N_14
REMARK    5  A    between atoms: C_15  and  C_17
REMARK                            x       y       z     vdW  Elec       q    Type
REMARK                         _______ _______ _______ _____ _____    ______ ____
ROOT
ATOM      1  C   UNL     1       2.246   6.187  19.840  0.00  0.00    +0.000 A 
ATOM      2  C   UNL     1       1.709   5.583  20.974  0.00  0.00    +0.000 A 
ATOM      3  N   UNL     1       1.925   4.252  20.947  0.00  0.00    +0.000 N 
ATOM      4  C   UNL     1       2.592   3.998  19.810  0.00  0.00    +0.000 A 
ATOM      5  C   UNL     1       3.036   2.758  19.365  0.00  0.00    +0.000 A 
ATOM      6  C   UNL     1       3.718   2.691  18.137  0.00  0.00    +0.000 A 
ATOM      7  C   UNL     1       3.936   3.867  17.355  0.00  0.00    +0.000 A 
ATOM      8  C   UNL     1       3.487   5.113  17.872  0.00  0.00    +0.000 A 
ATOM      9  C   UNL     1       2.811   5.147  19.097  0.00  0.00    +0.000 A 
ATOM     10  H   UNL     1       1.627   3.561  21.672  0.00  0.00    +0.000 HD
ENDROOT
BRANCH   1  14
ATOM     11  C   UNL     1       0.807  10.161  18.650  0.00  0.00    +0.000 C 
ATOM     12  C   UNL     1       1.927   9.489  17.820  0.00  0.00    +0.000 C 
ATOM     13  C   UNL     1       1.950   7.971  18.069  0.00  0.00    +0.000 C 
ATOM     14  C   UNL     1       2.168   7.673  19.563  0.00  0.00    +0.000 C 
ATOM     15  C   UNL     1       1.078   8.350  20.410  0.00  0.00    +0.000 C 
ATOM     16  C   UNL     1       1.052   9.863  20.146  0.00  0.00    +0.000 C 
BRANCH  11  18
ATOM     17  C   UNL     1       2.113  12.231  18.481  0.00  0.00    +0.000 C 
ATOM     18  N   UNL     1       0.777  11.625  18.446  0.00  0.00    +0.000 NA
ATOM     19  H   UNL     1       0.394  11.812  17.488  0.00  0.00    +0.000 HD
ENDBRANCH  11  18
ENDBRANCH   1  14
BRANCH   7  20
ATOM     20  N   UNL     1       4.610   3.876  16.085  0.00  0.00    +0.000 N 
ATOM     21  C   UNL     1       5.998   4.117  15.764  0.00  0.00    +0.000 C 
ATOM     22  N   UNL     1       6.930   4.189  16.650  0.00  0.00    +0.000 NA
ATOM     23  H   UNL     1       4.020   3.599  15.288  0.00  0.00    +0.000 HD
ATOM     24  H   UNL     1       6.805   4.090  17.661  0.00  0.00    +0.000 HD
BRANCH  21  25
ATOM     25  C   UNL     1       6.416   4.132  14.334  0.00  0.00    +0.000 A 
ATOM     26  C   UNL     1       5.858   3.372  13.307  0.00  0.00    +0.000 A 
ATOM     27  C   UNL     1       6.420   3.634  12.048  0.00  0.00    +0.000 A 
ATOM     28  C   UNL     1       7.420   4.595  12.075  0.00  0.00    +0.000 A 
ATOM     29  S   UNL     1       7.609   5.116  13.661  0.00  0.00    +0.000 S 
ENDBRANCH  21  25
ENDBRANCH   7  20
TORSDOF 4
ENDMDL
MODEL 2
REMARK VINA RESULT:      -7.7      2.978      7.521
REMARK  Name = 
REMARK  5 active torsions:
REMARK  status: ('A' for Active; 'I' for Inactive)
REMARK    1  A    between atoms: C_1  and  N_2
REMARK    2  A    between atoms: N_2  and  C_3
REMARK    3  A    between atoms: C_6  and  C_7
REMARK    4  A    between atoms: C_13  and  N_14
REMARK    5  A    between atoms: C_15  and  C_17
REMARK                            x       y       z     vdW  Elec       q    Type
REMARK                         _______ _______ _______ _____ _____    ______ ____
ROOT
ATOM      1  C   UNL     1       4.294   3.423  18.732  0.00  0.00    +0.000 A 
ATOM      2  C   UNL     1       4.163   2.210  19.402  0.00  0.00    +0.000 A 
ATOM      3  N   UNL     1       3.230   2.304  20.371  0.00  0.00    +0.000 N 
ATOM      4  C   UNL     1       2.763   3.562  20.328  0.00  0.00    +0.000 A 
ATOM      5  C   UNL     1       1.778   4.113  21.141  0.00  0.00    +0.000 A 
ATOM      6  C   UNL     1       1.425   5.460  20.947  0.00  0.00    +0.000 A 
ATOM      7  C   UNL     1       2.074   6.251  19.950  0.00  0.00    +0.000 A 
ATOM      8  C   UNL     1       3.053   5.629  19.127  0.00  0.00    +0.000 A 
ATOM      9  C   UNL     1       3.383   4.287  19.345  0.00  0.00    +0.000 A 
ATOM     10  H   UNL     1       2.934   1.543  21.022  0.00  0.00    +0.000 HD
ENDROOT
BRANCH   1  14
ATOM     11  C   UNL     1       6.703   5.332  15.596  0.00  0.00    +0.000 C 
ATOM     12  C   UNL     1       5.565   4.368  15.185  0.00  0.00    +0.000 C 
ATOM     13  C   UNL     1       4.558   4.195  16.335  0.00  0.00    +0.000 C 
ATOM     14  C   UNL     1       5.263   3.653  17.591  0.00  0.00    +0.000 C 
ATOM     15  C   UNL     1       6.413   4.586  18.006  0.00  0.00    +0.000 C 
ATOM     16  C   UNL     1       7.406   4.764  16.848  0.00  0.00    +0.000 C 
BRANCH  11  18
ATOM     17  C   UNL     1       7.306   4.822  13.273  0.00  0.00    +0.000 C 
ATOM     18  N   UNL     1       7.697   5.499  14.515  0.00  0.00    +0.000 NA
ATOM     19  H   UNL     1       7.760   6.520  14.286  0.00  0.00    +0.000 HD
ENDBRANCH  11  18
ENDBRANCH   1  14
BRANCH   7  20
ATOM     20  N   UNL     1       1.779   7.636  19.703  0.00  0.00    +0.000 N 
ATOM     21  C   UNL     1       1.427   8.696  20.620  0.00  0.00    +0.000 C 
ATOM     22  N   UNL     1       1.505   8.583  21.900  0.00  0.00    +0.000 NA
ATOM     23  H   UNL     1       1.907   7.931  18.724  0.00  0.00    +0.000 HD
ATOM     24  H   UNL     1       1.814   7.752  22.411  0.00  0.00    +0.000 HD
BRANCH  21  25
ATOM     25  C   UNL     1       1.103  10.045  20.075  0.00  0.00    +0.000 A 
ATOM     26  C   UNL     1       1.383  10.500  18.787  0.00  0.00    +0.000 A 
ATOM     27  C   UNL     1       0.912  11.797  18.537  0.00  0.00    +0.000 A 
ATOM     28  C   UNL     1       0.265  12.372  19.621  0.00  0.00    +0.000 A 
ATOM     29  S   UNL     1       0.280  11.270  20.889  0.00  0.00    +0.000 S 
ENDBRANCH  21  25
ENDBRANCH   7  20
TORSDOF 4
ENDMDL
MODEL 3
REMARK VINA RESULT:      -7.7      2.971      7.775
REMARK  Name = 
REMARK  5 active torsions:
REMARK  status: ('A' for Active; 'I' for Inactive)
REMARK    1  A    between atoms: C_1  and  N_2
REMARK    2  A    between atoms: N_2  and  C_3
REMARK    3  A    between atoms: C_6  and  C_7
REMARK    4  A    between atoms: C_13  and  N_14
REMARK    5  A    between atoms: C_15  and  C_17
REMARK                            x       y       z     vdW  Elec       q    Type
REMARK                         _______ _______ _______ _____ _____    ______ ____
ROOT
ATOM      1  C   UNL     1       3.933   3.344  17.766  0.00  0.00    +0.000 A 
ATOM      2  C   UNL     1       3.967   1.952  17.798  0.00  0.00    +0.000 A 
ATOM      3  N   UNL     1       3.118   1.481  18.736  0.00  0.00    +0.000 N 
ATOM      4  C   UNL     1       2.543   2.554  19.302  0.00  0.00    +0.000 A 
ATOM      5  C   UNL     1       1.591   2.551  20.314  0.00  0.00    +0.000 A 
ATOM      6  C   UNL     1       1.108   3.786  20.784  0.00  0.00    +0.000 A 
ATOM      7  C   UNL     1       1.595   5.016  20.246  0.00  0.00    +0.000 A 
ATOM      8  C   UNL     1       2.547   4.960  19.191  0.00  0.00    +0.000 A 
ATOM      9  C   UNL     1       3.009   3.717  18.745  0.00  0.00    +0.000 A 
ATOM     10  H   UNL     1       2.948   0.478  18.969  0.00  0.00    +0.000 HD
ENDROOT
BRANCH   1  14
ATOM     11  C   UNL     1       7.165   4.729  15.135  0.00  0.00    +0.000 C 
ATOM     12  C   UNL     1       6.935   5.449  16.486  0.00  0.00    +0.000 C 
ATOM     13  C   UNL     1       6.132   4.557  17.447  0.00  0.00    +0.000 C 
ATOM     14  C   UNL     1       4.774   4.183  16.827  0.00  0.00    +0.000 C 
ATOM     15  C   UNL     1       4.977   3.484  15.472  0.00  0.00    +0.000 C 
ATOM     16  C   UNL     1       5.791   4.375  14.524  0.00  0.00    +0.000 C 
BRANCH  11  18
ATOM     17  C   UNL     1       7.768   5.134  12.792  0.00  0.00    +0.000 C 
ATOM     18  N   UNL     1       7.917   5.574  14.185  0.00  0.00    +0.000 NA
ATOM     19  H   UNL     1       7.524   6.545  14.230  0.00  0.00    +0.000 HD
ENDBRANCH  11  18
ENDBRANCH   1  14
BRANCH   7  20
ATOM     20  N   UNL     1       1.161   6.315  20.684  0.00  0.00    +0.000 N 
ATOM     21  C   UNL     1       1.539   7.632  20.224  0.00  0.00    +0.000 C 
ATOM     22  N   UNL     1       2.236   7.841  19.162  0.00  0.00    +0.000 NA
ATOM     23  H   UNL     1       0.411   6.298  21.390  0.00  0.00    +0.000 HD
ATOM     24  H   UNL     1       2.600   7.121  18.532  0.00  0.00    +0.000 HD
BRANCH  21  25
ATOM     25  C   UNL     1       0.975   8.826  20.913  0.00  0.00    +0.000 A 
ATOM     26  C   UNL     1       0.579   8.894  22.249  0.00  0.00    +0.000 A 
ATOM     27  C   UNL     1       0.135  10.167  22.637  0.00  0.00    +0.000 A 
ATOM     28  C   UNL     1       0.175  11.104  21.616  0.00  0.00    +0.000 A 
ATOM     29  S   UNL     1       0.758  10.353  20.232  0.00  0.00    +0.000 S 
ENDBRANCH  21  25
ENDBRANCH   7  20
TORSDOF 4
ENDMDL
MODEL 4
REMARK VINA RESULT:      -7.7      3.569      7.363
REMARK  Name = 
REMARK  5 active torsions:
REMARK  status: ('A' for Active; 'I' for Inactive)
REMARK    1  A    between atoms: C_1  and  N_2
REMARK    2  A    between atoms: N_2  and  C_3
REMARK    3  A    between atoms: C_6  and  C_7
REMARK    4  A    between atoms: C_13  and  N_14
REMARK    5  A    between atoms: C_15  and  C_17
REMARK                            x       y       z     vdW  Elec       q    Type
REMARK                         _______ _______ _______ _____ _____    ______ ____
ROOT
ATOM      1  C   UNL     1       4.220   3.553  18.365  0.00  0.00    +0.000 A 
ATOM      2  C   UNL     1       4.166   2.179  18.152  0.00  0.00    +0.000 A 
ATOM      3  N   UNL     1       3.054   1.658  18.711  0.00  0.00    +0.000 N 
ATOM      4  C   UNL     1       2.398   2.683  19.279  0.00  0.00    +0.000 A 
ATOM      5  C   UNL     1       1.191   2.620  19.965  0.00  0.00    +0.000 A 
ATOM      6  C   UNL     1       0.660   3.809  20.497  0.00  0.00    +0.000 A 
ATOM      7  C   UNL     1       1.352   5.050  20.350  0.00  0.00    +0.000 A 
ATOM      8  C   UNL     1       2.568   5.061  19.614  0.00  0.00    +0.000 A 
ATOM      9  C   UNL     1       3.071   3.862  19.097  0.00  0.00    +0.000 A 
ATOM     10  H   UNL     1       2.767   0.654  18.700  0.00  0.00    +0.000 HD
ENDROOT
BRANCH   1  14
ATOM     11  C   UNL     1       6.739   7.042  17.490  0.00  0.00    +0.000 C 
ATOM     12  C   UNL     1       6.035   6.313  16.321  0.00  0.00    +0.000 C 
ATOM     13  C   UNL     1       4.857   5.469  16.838  0.00  0.00    +0.000 C 
ATOM     14  C   UNL     1       5.346   4.436  17.869  0.00  0.00    +0.000 C 
ATOM     15  C   UNL     1       6.067   5.138  19.031  0.00  0.00    +0.000 C 
ATOM     16  C   UNL     1       7.233   5.989  18.505  0.00  0.00    +0.000 C 
BRANCH  11  18
ATOM     17  C   UNL     1       8.229   8.938  17.940  0.00  0.00    +0.000 C 
ATOM     18  N   UNL     1       7.889   7.844  17.023  0.00  0.00    +0.000 NA
ATOM     19  H   UNL     1       8.729   7.218  16.987  0.00  0.00    +0.000 HD
ENDBRANCH  11  18
ENDBRANCH   1  14
BRANCH   7  20
ATOM     20  N   UNL     1       0.881   6.302  20.878  0.00  0.00    +0.000 N 
ATOM     21  C   UNL     1       1.265   7.657  20.555  0.00  0.00    +0.000 C 
ATOM     22  N   UNL     1       2.011   7.965  19.551  0.00  0.00    +0.000 NA
ATOM     23  H   UNL     1       0.097   6.217  21.541  0.00  0.00    +0.000 HD
ATOM     24  H   UNL     1       2.415   7.306  18.881  0.00  0.00    +0.000 HD
BRANCH  21  25
ATOM     25  C   UNL     1       0.653   8.782  21.316  0.00  0.00    +0.000 A 
ATOM     26  C   UNL     1      -0.032   8.678  22.527  0.00  0.00    +0.000 A 
ATOM     27  C   UNL     1      -0.453   9.915  23.040  0.00  0.00    +0.000 A 
ATOM     28  C   UNL     1      -0.108  10.994  22.240  0.00  0.00    +0.000 A 
ATOM     29  S   UNL     1       0.717  10.414  20.897  0.00  0.00    +0.000 S 
ENDBRANCH  21  25
ENDBRANCH   7  20
TORSDOF 4
ENDMDL
MODEL 5
REMARK VINA RESULT:      -7.5      2.996      8.081
REMARK  Name = 
REMARK  5 active torsions:
REMARK  status: ('A' for Active; 'I' for Inactive)
REMARK    1  A    between atoms: C_1  and  N_2
REMARK    2  A    between atoms: N_2  and  C_3
REMARK    3  A    between atoms: C_6  and  C_7
REMARK    4  A    between atoms: C_13  and  N_14
REMARK    5  A    between atoms: C_15  and  C_17
REMARK                            x       y       z     vdW  Elec       q    Type
REMARK                         _______ _______ _______ _____ _____    ______ ____
ROOT
ATOM      1  C   UNL     1       4.286   4.511  18.292  0.00  0.00    +0.000 A 
ATOM      2  C   UNL     1       4.384   3.200  18.750  0.00  0.00    +0.000 A 
ATOM      3  N   UNL     1       3.560   3.002  19.799  0.00  0.00    +0.000 N 
ATOM      4  C   UNL     1       2.936   4.171  20.017  0.00  0.00    +0.000 A 
ATOM      5  C   UNL     1       1.985   4.436  20.996  0.00  0.00    +0.000 A 
ATOM      6  C   UNL     1       1.445   5.733  21.072  0.00  0.00    +0.000 A 
ATOM      7  C   UNL     1       1.874   6.758  20.175  0.00  0.00    +0.000 A 
ATOM      8  C   UNL     1       2.827   6.424  19.174  0.00  0.00    +0.000 A 
ATOM      9  C   UNL     1       3.346   5.125  19.124  0.00  0.00    +0.000 A 
ATOM     10  H   UNL     1       3.437   2.112  20.331  0.00  0.00    +0.000 HD
ENDROOT
BRANCH   1  14
ATOM     11  C   UNL     1       7.178   4.913  15.013  0.00  0.00    +0.000 C 
ATOM     12  C   UNL     1       7.354   5.784  16.280  0.00  0.00    +0.000 C 
ATOM     13  C   UNL     1       6.583   5.180  17.466  0.00  0.00    +0.000 C 
ATOM     14  C   UNL     1       5.086   5.057  17.129  0.00  0.00    +0.000 C 
ATOM     15  C   UNL     1       4.889   4.211  15.860  0.00  0.00    +0.000 C 
ATOM     16  C   UNL     1       5.673   4.814  14.685  0.00  0.00    +0.000 C 
BRANCH  11  18
ATOM     17  C   UNL     1       7.535   4.829  12.588  0.00  0.00    +0.000 C 
ATOM     18  N   UNL     1       7.892   5.483  13.852  0.00  0.00    +0.000 NA
ATOM     19  H   UNL     1       7.606   6.487  13.755  0.00  0.00    +0.000 HD
ENDBRANCH  11  18
ENDBRANCH   1  14
BRANCH   7  20
ATOM     20  N   UNL     1       1.381   8.108  20.200  0.00  0.00    +0.000 N 
ATOM     21  C   UNL     1       1.282   9.049  21.293  0.00  0.00    +0.000 C 
ATOM     22  N   UNL     1       1.822   8.857  22.446  0.00  0.00    +0.000 NA
ATOM     23  H   UNL     1       1.123   8.485  19.277  0.00  0.00    +0.000 HD
ATOM     24  H   UNL     1       2.369   8.038  22.723  0.00  0.00    +0.000 HD
BRANCH  21  25
ATOM     25  C   UNL     1       0.658  10.379  21.047  0.00  0.00    +0.000 A 
ATOM     26  C   UNL     1      -0.260  11.022  21.877  0.00  0.00    +0.000 A 
ATOM     27  C   UNL     1      -0.636  12.293  21.416  0.00  0.00    +0.000 A 
ATOM     28  C   UNL     1      -0.022  12.657  20.227  0.00  0.00    +0.000 A 
ATOM     29  S   UNL     1       0.984  11.401  19.746  0.00  0.00    +0.000 S 
ENDBRANCH  21  25
ENDBRANCH   7  20
TORSDOF 4
ENDMDL
MODEL 6
REMARK VINA RESULT:      -7.5      3.251      8.123
REMARK  Name = 
REMARK  5 active torsions:
REMARK  status: ('A' for Active; 'I' for Inactive)
REMARK    1  A    between atoms: C_1  and  N_2
REMARK    2  A    between atoms: N_2  and  C_3
REMARK    3  A    between atoms: C_6  and  C_7
REMARK    4  A    between atoms: C_13  and  N_14
REMARK    5  A    between atoms: C_15  and  C_17
REMARK                            x       y       z     vdW  Elec       q    Type
REMARK                         _______ _______ _______ _____ _____    ______ ____
ROOT
ATOM      1  C   UNL     1       4.002   4.337  18.071  0.00  0.00    +0.000 A 
ATOM      2  C   UNL     1       3.910   2.973  18.333  0.00  0.00    +0.000 A 
ATOM      3  N   UNL     1       3.068   2.746  19.362  0.00  0.00    +0.000 N 
ATOM      4  C   UNL     1       2.623   3.948  19.761  0.00  0.00    +0.000 A 
ATOM      5  C   UNL     1       1.724   4.203  20.791  0.00  0.00    +0.000 A 
ATOM      6  C   UNL     1       1.380   5.538  21.065  0.00  0.00    +0.000 A 
ATOM      7  C   UNL     1       1.951   6.611  20.314  0.00  0.00    +0.000 A 
ATOM      8  C   UNL     1       2.842   6.291  19.253  0.00  0.00    +0.000 A 
ATOM      9  C   UNL     1       3.165   4.953  19.005  0.00  0.00    +0.000 A 
ATOM     10  H   UNL     1       2.818   1.815  19.764  0.00  0.00    +0.000 HD
ENDROOT
BRANCH   1  14
ATOM     11  C   UNL     1       7.181   4.922  15.098  0.00  0.00    +0.000 C 
ATOM     12  C   UNL     1       7.141   5.838  16.345  0.00  0.00    +0.000 C 
ATOM     13  C   UNL     1       6.305   5.195  17.464  0.00  0.00    +0.000 C 
ATOM     14  C   UNL     1       4.870   4.925  16.978  0.00  0.00    +0.000 C 
ATOM     15  C   UNL     1       4.886   4.032  15.726  0.00  0.00    +0.000 C 
ATOM     16  C   UNL     1       5.734   4.675  14.618  0.00  0.00    +0.000 C 
BRANCH  11  18
ATOM     17  C   UNL     1       7.619   4.968  12.685  0.00  0.00    +0.000 C 
ATOM     18  N   UNL     1       7.960   5.527  13.998  0.00  0.00    +0.000 NA
ATOM     19  H   UNL     1       7.724   6.547  13.954  0.00  0.00    +0.000 HD
ENDBRANCH  11  18
ENDBRANCH   1  14
BRANCH   7  20
ATOM     20  N   UNL     1       1.661   8.000  20.545  0.00  0.00    +0.000 N 
ATOM     21  C   UNL     1       0.473   8.633  21.070  0.00  0.00    +0.000 C 
ATOM     22  N   UNL     1      -0.500   7.983  21.609  0.00  0.00    +0.000 NA
ATOM     23  H   UNL     1       2.453   8.635  20.372  0.00  0.00    +0.000 HD
ATOM     24  H   UNL     1      -0.550   6.968  21.726  0.00  0.00    +0.000 HD
BRANCH  21  25
ATOM     25  C   UNL     1       0.418  10.120  21.140  0.00  0.00    +0.000 A 
ATOM     26  C   UNL     1       1.038  11.008  20.261  0.00  0.00    +0.000 A 
ATOM     27  C   UNL     1       0.766  12.355  20.542  0.00  0.00    +0.000 A 
ATOM     28  C   UNL     1      -0.061  12.538  21.640  0.00  0.00    +0.000 A 
ATOM     29  S   UNL     1      -0.454  11.028  22.262  0.00  0.00    +0.000 S 
ENDBRANCH  21  25
ENDBRANCH   7  20
TORSDOF 4
ENDMDL
MODEL 7
REMARK VINA RESULT:      -7.5      2.711      7.789
REMARK  Name = 
REMARK  5 active torsions:
REMARK  status: ('A' for Active; 'I' for Inactive)
REMARK    1  A    between atoms: C_1  and  N_2
REMARK    2  A    between atoms: N_2  and  C_3
REMARK    3  A    between atoms: C_6  and  C_7
REMARK    4  A    between atoms: C_13  and  N_14
REMARK    5  A    between atoms: C_15  and  C_17
REMARK                            x       y       z     vdW  Elec       q    Type
REMARK                         _______ _______ _______ _____ _____    ______ ____
ROOT
ATOM      1  C   UNL     1       4.010   4.615  18.082  0.00  0.00    +0.000 A 
ATOM      2  C   UNL     1       3.937   3.282  18.478  0.00  0.00    +0.000 A 
ATOM      3  N   UNL     1       3.089   3.145  19.518  0.00  0.00    +0.000 N 
ATOM      4  C   UNL     1       2.620   4.373  19.792  0.00  0.00    +0.000 A 
ATOM      5  C   UNL     1       1.707   4.714  20.783  0.00  0.00    +0.000 A 
ATOM      6  C   UNL     1       1.339   6.064  20.919  0.00  0.00    +0.000 A 
ATOM      7  C   UNL     1       1.900   7.066  20.070  0.00  0.00    +0.000 A 
ATOM      8  C   UNL     1       2.806   6.658  19.054  0.00  0.00    +0.000 A 
ATOM      9  C   UNL     1       3.154   5.307  18.943  0.00  0.00    +0.000 A 
ATOM     10  H   UNL     1       2.850   2.254  20.009  0.00  0.00    +0.000 HD
ENDROOT
BRANCH   1  14
ATOM     11  C   UNL     1       7.201   4.948  15.084  0.00  0.00    +0.000 C 
ATOM     12  C   UNL     1       7.146   5.977  16.240  0.00  0.00    +0.000 C 
ATOM     13  C   UNL     1       6.309   5.434  17.410  0.00  0.00    +0.000 C 
ATOM     14  C   UNL     1       4.879   5.107  16.944  0.00  0.00    +0.000 C 
ATOM     15  C   UNL     1       4.911   4.101  15.782  0.00  0.00    +0.000 C 
ATOM     16  C   UNL     1       5.759   4.644  14.623  0.00  0.00    +0.000 C 
BRANCH  11  18
ATOM     17  C   UNL     1       7.533   4.900  12.654  0.00  0.00    +0.000 C 
ATOM     18  N   UNL     1       7.982   5.454  13.937  0.00  0.00    +0.000 NA
ATOM     19  H   UNL     1       7.838   6.491  13.876  0.00  0.00    +0.000 HD
ENDBRANCH  11  18
ENDBRANCH   1  14
BRANCH   7  20
ATOM     20  N   UNL     1       1.585   8.466  20.159  0.00  0.00    +0.000 N 
ATOM     21  C   UNL     1       1.269   9.421  19.122  0.00  0.00    +0.000 C 
ATOM     22  N   UNL     1       1.037   9.092  17.899  0.00  0.00    +0.000 NA
ATOM     23  H   UNL     1       1.504   8.824  21.121  0.00  0.00    +0.000 HD
ATOM     24  H   UNL     1       1.050   8.141  17.521  0.00  0.00    +0.000 HD
BRANCH  21  25
ATOM     25  C   UNL     1       1.046  10.846  19.496  0.00  0.00    +0.000 A 
ATOM     26  C   UNL     1       0.281  11.304  20.569  0.00  0.00    +0.000 A 
ATOM     27  C   UNL     1       0.294  12.699  20.710  0.00  0.00    +0.000 A 
ATOM     28  C   UNL     1       1.062  13.348  19.754  0.00  0.00    +0.000 A 
ATOM     29  S   UNL     1       1.722  12.189  18.733  0.00  0.00    +0.000 S 
ENDBRANCH  21  25
ENDBRANCH   7  20
TORSDOF 4
ENDMDL
MODEL 8
REMARK VINA RESULT:      -7.4      2.760      7.173
REMARK  Name = 
REMARK  5 active torsions:
REMARK  status: ('A' for Active; 'I' for Inactive)
REMARK    1  A    between atoms: C_1  and  N_2
REMARK    2  A    between atoms: N_2  and  C_3
REMARK    3  A    between atoms: C_6  and  C_7
REMARK    4  A    between atoms: C_13  and  N_14
REMARK    5  A    between atoms: C_15  and  C_17
REMARK                            x       y       z     vdW  Elec       q    Type
REMARK                         _______ _______ _______ _____ _____    ______ ____
ROOT
ATOM      1  C   UNL     1       4.114   3.582  18.517  0.00  0.00    +0.000 A 
ATOM      2  C   UNL     1       3.854   2.352  19.114  0.00  0.00    +0.000 A 
ATOM      3  N   UNL     1       2.921   2.482  20.079  0.00  0.00    +0.000 N 
ATOM      4  C   UNL     1       2.581   3.781  20.106  0.00  0.00    +0.000 A 
ATOM      5  C   UNL     1       1.643   4.379  20.940  0.00  0.00    +0.000 A 
ATOM      6  C   UNL     1       1.427   5.763  20.822  0.00  0.00    +0.000 A 
ATOM      7  C   UNL     1       2.165   6.542  19.879  0.00  0.00    +0.000 A 
ATOM      8  C   UNL     1       3.090   5.875  19.031  0.00  0.00    +0.000 A 
ATOM      9  C   UNL     1       3.283   4.496  19.172  0.00  0.00    +0.000 A 
ATOM     10  H   UNL     1       2.542   1.718  20.682  0.00  0.00    +0.000 HD
ENDROOT
BRANCH   1  14
ATOM     11  C   UNL     1       6.794   5.421  15.564  0.00  0.00    +0.000 C 
ATOM     12  C   UNL     1       5.539   4.661  15.069  0.00  0.00    +0.000 C 
ATOM     13  C   UNL     1       4.506   4.524  16.201  0.00  0.00    +0.000 C 
ATOM     14  C   UNL     1       5.117   3.780  17.401  0.00  0.00    +0.000 C 
ATOM     15  C   UNL     1       6.379   4.507  17.897  0.00  0.00    +0.000 C 
ATOM     16  C   UNL     1       7.399   4.651  16.759  0.00  0.00    +0.000 C 
BRANCH  11  18
ATOM     17  C   UNL     1       7.471   4.789  13.292  0.00  0.00    +0.000 C 
ATOM     18  N   UNL     1       7.813   5.547  14.502  0.00  0.00    +0.000 NA
ATOM     19  H   UNL     1       7.859   6.554  14.214  0.00  0.00    +0.000 HD
ENDBRANCH  11  18
ENDBRANCH   1  14
BRANCH   7  20
ATOM     20  N   UNL     1       2.012   7.962  19.711  0.00  0.00    +0.000 N 
ATOM     21  C   UNL     1       1.929   8.758  18.508  0.00  0.00    +0.000 C 
ATOM     22  N   UNL     1       1.797   8.255  17.330  0.00  0.00    +0.000 NA
ATOM     23  H   UNL     1       1.868   8.481  20.588  0.00  0.00    +0.000 HD
ATOM     24  H   UNL     1       1.737   7.258  17.107  0.00  0.00    +0.000 HD
BRANCH  21  25
ATOM     25  C   UNL     1       1.838  10.240  18.628  0.00  0.00    +0.000 A 
ATOM     26  C   UNL     1       2.535  11.172  17.858  0.00  0.00    +0.000 A 
ATOM     27  C   UNL     1       2.207  12.502  18.158  0.00  0.00    +0.000 A 
ATOM     28  C   UNL     1       1.259  12.629  19.162  0.00  0.00    +0.000 A 
ATOM     29  S   UNL     1       0.829  11.089  19.678  0.00  0.00    +0.000 S 
ENDBRANCH  21  25
ENDBRANCH   7  20
TORSDOF 4
ENDMDL
MODEL 9
REMARK VINA RESULT:      -7.4      2.701      7.918
REMARK  Name = 
REMARK  5 active torsions:
REMARK  status: ('A' for Active; 'I' for Inactive)
REMARK    1  A    between atoms: C_1  and  N_2
REMARK    2  A    between atoms: N_2  and  C_3
REMARK    3  A    between atoms: C_6  and  C_7
REMARK    4  A    between atoms: C_13  and  N_14
REMARK    5  A    between atoms: C_15  and  C_17
REMARK                            x       y       z     vdW  Elec       q    Type
REMARK                         _______ _______ _______ _____ _____    ______ ____
ROOT
ATOM      1  C   UNL     1       3.438   5.427  18.488  0.00  0.00    +0.000 A 
ATOM      2  C   UNL     1       3.263   4.221  19.162  0.00  0.00    +0.000 A 
ATOM      3  N   UNL     1       2.437   4.385  20.216  0.00  0.00    +0.000 N 
ATOM      4  C   UNL     1       2.082   5.680  20.223  0.00  0.00    +0.000 A 
ATOM      5  C   UNL     1       1.231   6.305  21.128  0.00  0.00    +0.000 A 
ATOM      6  C   UNL     1       0.983   7.680  20.974  0.00  0.00    +0.000 A 
ATOM      7  C   UNL     1       1.602   8.424  19.924  0.00  0.00    +0.000 A 
ATOM      8  C   UNL     1       2.441   7.729  19.010  0.00  0.00    +0.000 A 
ATOM      9  C   UNL     1       2.669   6.360  19.188  0.00  0.00    +0.000 A 
ATOM     10  H   UNL     1       2.138   3.645  20.889  0.00  0.00    +0.000 HD
ENDROOT
BRANCH   1  14
ATOM     11  C   UNL     1       6.776   5.125  15.650  0.00  0.00    +0.000 C 
ATOM     12  C   UNL     1       6.471   6.493  16.308  0.00  0.00    +0.000 C 
ATOM     13  C   UNL     1       5.633   6.306  17.585  0.00  0.00    +0.000 C 
ATOM     14  C   UNL     1       4.312   5.585  17.262  0.00  0.00    +0.000 C 
ATOM     15  C   UNL     1       4.591   4.231  16.588  0.00  0.00    +0.000 C 
ATOM     16  C   UNL     1       5.439   4.425  15.322  0.00  0.00    +0.000 C 
BRANCH  11  18
ATOM     17  C   UNL     1       7.016   4.498  13.291  0.00  0.00    +0.000 C 
ATOM     18  N   UNL     1       7.562   5.278  14.408  0.00  0.00    +0.000 NA
ATOM     19  H   UNL     1       7.517   6.283  14.116  0.00  0.00    +0.000 HD
ENDBRANCH  11  18
ENDBRANCH   1  14
BRANCH   7  20
ATOM     20  N   UNL     1       1.410   9.833  19.712  0.00  0.00    +0.000 N 
ATOM     21  C   UNL     1       0.702  10.534  18.665  0.00  0.00    +0.000 C 
ATOM     22  N   UNL     1      -0.060   9.949  17.808  0.00  0.00    +0.000 NA
ATOM     23  H   UNL     1       1.777  10.431  20.466  0.00  0.00    +0.000 HD
ATOM     24  H   UNL     1      -0.251   8.945  17.762  0.00  0.00    +0.000 HD
BRANCH  21  25
ATOM     25  C   UNL     1       0.720  12.024  18.654  0.00  0.00    +0.000 A 
ATOM     26  C   UNL     1      -0.395  12.858  18.579  0.00  0.00    +0.000 A 
ATOM     27  C   UNL     1      -0.078  14.223  18.642  0.00  0.00    +0.000 A 
ATOM     28  C   UNL     1       1.281  14.473  18.763  0.00  0.00    +0.000 A 
ATOM     29  S   UNL     1       2.087  13.000  18.790  0.00  0.00    +0.000 S 
ENDBRANCH  21  25
ENDBRANCH   7  20
TORSDOF 4
ENDMDL
