MODEL 1
REMARK VINA RESULT:      -7.7      0.000      0.000
REMARK  Name = 
REMARK  4 active torsions:
REMARK  status: ('A' for Active; 'I' for Inactive)
REMARK    1  A    between atoms: C_2  and  C_3
REMARK    2  A    between atoms: C_2  and  C_4
REMARK    3  A    between atoms: C_10  and  C_11
REMARK    4  A    between atoms: C_16  and  C_17
REMARK                            x       y       z     vdW  Elec       q    Type
REMARK                         _______ _______ _______ _____ _____    ______ ____
ROOT
ATOM      1  C   UNL     1       6.222   4.384  14.178  0.00  0.00    +0.000 C 
ATOM      2  O   UNL     1       5.007   4.285  14.052  0.00  0.00    +0.000 OA
ATOM      3  N   UNL     1       6.906   4.465  15.366  0.00  0.00    +0.000 N 
ATOM      4  C   UNL     1       6.344   4.410  16.623  0.00  0.00    +0.000 A 
ATOM      5  N   UNL     1       7.037   4.638  17.717  0.00  0.00    +0.000 NA
ATOM      6  N   UNL     1       6.259   4.525  18.857  0.00  0.00    +0.000 NA
ATOM      7  C   UNL     1       5.013   4.177  18.588  0.00  0.00    +0.000 A 
ATOM      8  S   UNL     1       4.717   3.999  16.901  0.00  0.00    +0.000 S 
ATOM      9  H   UNL     1       7.896   4.650  15.387  0.00  0.00    +0.000 HD
ENDROOT
BRANCH   7  10
ATOM     10  C   UNL     1       3.933   3.968  19.570  0.00  0.00    +0.000 A 
ATOM     11  C   UNL     1       3.807   2.722  20.219  0.00  0.00    +0.000 A 
ATOM     12  C   UNL     1       2.796   2.482  21.151  0.00  0.00    +0.000 A 
ATOM     13  C   UNL     1       1.895   3.491  21.467  0.00  0.00    +0.000 A 
ATOM     14  C   UNL     1       2.002   4.735  20.847  0.00  0.00    +0.000 A 
ATOM     15  C   UNL     1       3.010   4.989  19.896  0.00  0.00    +0.000 A 
ATOM     16  C   UNL     1       3.043   6.344  19.239  0.00  0.00    +0.000 C 
ENDBRANCH   7  10
BRANCH   1  18
ATOM     17  C   UNL     1       6.867   3.529  11.994  0.00  0.00    +0.000 C 
ATOM     18  C   UNL     1       7.089   4.453  12.947  0.00  0.00    +0.000 C 
ATOM     19  C   UNL     1       8.176   5.472  12.808  0.00  0.00    +0.000 C 
ENDBRANCH   1  18
TORSDOF 2
ENDMDL
MODEL 2
REMARK VINA RESULT:      -7.4      0.669      1.645
REMARK  Name = 
REMARK  4 active torsions:
REMARK  status: ('A' for Active; 'I' for Inactive)
REMARK    1  A    between atoms: C_2  and  C_3
REMARK    2  A    between atoms: C_2  and  C_4
REMARK    3  A    between atoms: C_10  and  C_11
REMARK    4  A    between atoms: C_16  and  C_17
REMARK                            x       y       z     vdW  Elec       q    Type
REMARK                         _______ _______ _______ _____ _____    ______ ____
ROOT
ATOM      1  C   UNL     1       6.287   4.451  14.061  0.00  0.00    +0.000 C 
ATOM      2  O   UNL     1       5.080   4.400  13.854  0.00  0.00    +0.000 OA
ATOM      3  N   UNL     1       6.893   4.463  15.293  0.00  0.00    +0.000 N 
ATOM      4  C   UNL     1       6.249   4.381  16.507  0.00  0.00    +0.000 A 
ATOM      5  N   UNL     1       6.876   4.543  17.652  0.00  0.00    +0.000 NA
ATOM      6  N   UNL     1       6.021   4.415  18.734  0.00  0.00    +0.000 NA
ATOM      7  C   UNL     1       4.785   4.120  18.372  0.00  0.00    +0.000 A 
ATOM      8  S   UNL     1       4.595   4.017  16.664  0.00  0.00    +0.000 S 
ATOM      9  H   UNL     1       7.886   4.613  15.384  0.00  0.00    +0.000 HD
ENDROOT
BRANCH   7  10
ATOM     10  C   UNL     1       3.637   3.913  19.274  0.00  0.00    +0.000 A 
ATOM     11  C   UNL     1       3.124   4.998  20.016  0.00  0.00    +0.000 A 
ATOM     12  C   UNL     1       2.042   4.842  20.884  0.00  0.00    +0.000 A 
ATOM     13  C   UNL     1       1.437   3.600  21.018  0.00  0.00    +0.000 A 
ATOM     14  C   UNL     1       1.919   2.512  20.290  0.00  0.00    +0.000 A 
ATOM     15  C   UNL     1       3.017   2.650  19.418  0.00  0.00    +0.000 A 
ATOM     16  C   UNL     1       3.506   1.425  18.691  0.00  0.00    +0.000 C 
ENDBRANCH   7  10
BRANCH   1  18
ATOM     17  C   UNL     1       7.085   3.618  11.919  0.00  0.00    +0.000 C 
ATOM     18  C   UNL     1       7.235   4.536  12.892  0.00  0.00    +0.000 C 
ATOM     19  C   UNL     1       8.320   5.564  12.833  0.00  0.00    +0.000 C 
ENDBRANCH   1  18
TORSDOF 2
ENDMDL
MODEL 3
REMARK VINA RESULT:      -6.5      3.385      7.271
REMARK  Name = 
REMARK  4 active torsions:
REMARK  status: ('A' for Active; 'I' for Inactive)
REMARK    1  A    between atoms: C_2  and  C_3
REMARK    2  A    between atoms: C_2  and  C_4
REMARK    3  A    between atoms: C_10  and  C_11
REMARK    4  A    between atoms: C_16  and  C_17
REMARK                            x       y       z     vdW  Elec       q    Type
REMARK                         _______ _______ _______ _____ _____    ______ ____
ROOT
ATOM      1  C   UNL     1       1.422   8.591  19.774  0.00  0.00    +0.000 C 
ATOM      2  O   UNL     1       1.554   9.071  18.654  0.00  0.00    +0.000 OA
ATOM      3  N   UNL     1       1.996   7.428  20.226  0.00  0.00    +0.000 N 
ATOM      4  C   UNL     1       2.850   6.621  19.507  0.00  0.00    +0.000 A 
ATOM      5  N   UNL     1       3.250   5.448  19.946  0.00  0.00    +0.000 NA
ATOM      6  N   UNL     1       4.104   4.823  19.052  0.00  0.00    +0.000 NA
ATOM      7  C   UNL     1       4.352   5.563  17.986  0.00  0.00    +0.000 A 
ATOM      8  S   UNL     1       3.515   7.068  18.007  0.00  0.00    +0.000 S 
ATOM      9  H   UNL     1       1.756   7.043  21.126  0.00  0.00    +0.000 HD
ENDROOT
BRANCH   7  10
ATOM     10  C   UNL     1       5.219   5.197  16.851  0.00  0.00    +0.000 A 
ATOM     11  C   UNL     1       4.690   4.449  15.778  0.00  0.00    +0.000 A 
ATOM     12  C   UNL     1       5.479   4.077  14.688  0.00  0.00    +0.000 A 
ATOM     13  C   UNL     1       6.813   4.460  14.638  0.00  0.00    +0.000 A 
ATOM     14  C   UNL     1       7.359   5.208  15.681  0.00  0.00    +0.000 A 
ATOM     15  C   UNL     1       6.580   5.580  16.794  0.00  0.00    +0.000 A 
ATOM     16  C   UNL     1       7.245   6.356  17.901  0.00  0.00    +0.000 C 
ENDBRANCH   7  10
BRANCH   1  18
ATOM     17  C   UNL     1      -0.162   8.505  21.619  0.00  0.00    +0.000 C 
ATOM     18  C   UNL     1       0.539   9.288  20.778  0.00  0.00    +0.000 C 
ATOM     19  C   UNL     1       0.412  10.779  20.813  0.00  0.00    +0.000 C 
ENDBRANCH   1  18
TORSDOF 2
ENDMDL
MODEL 4
REMARK VINA RESULT:      -6.5      1.233      1.241
REMARK  Name = 
REMARK  4 active torsions:
REMARK  status: ('A' for Active; 'I' for Inactive)
REMARK    1  A    between atoms: C_2  and  C_3
REMARK    2  A    between atoms: C_2  and  C_4
REMARK    3  A    between atoms: C_10  and  C_11
REMARK    4  A    between atoms: C_16  and  C_17
REMARK                            x       y       z     vdW  Elec       q    Type
REMARK                         _______ _______ _______ _____ _____    ______ ____
ROOT
ATOM      1  C   UNL     1       6.408   4.464  14.097  0.00  0.00    +0.000 C 
ATOM      2  O   UNL     1       5.891   3.367  14.278  0.00  0.00    +0.000 OA
ATOM      3  N   UNL     1       6.267   5.563  14.908  0.00  0.00    +0.000 N 
ATOM      4  C   UNL     1       5.551   5.610  16.083  0.00  0.00    +0.000 A 
ATOM      5  N   UNL     1       5.337   6.731  16.736  0.00  0.00    +0.000 NA
ATOM      6  N   UNL     1       4.595   6.529  17.888  0.00  0.00    +0.000 NA
ATOM      7  C   UNL     1       4.306   5.255  18.086  0.00  0.00    +0.000 A 
ATOM      8  S   UNL     1       4.908   4.230  16.841  0.00  0.00    +0.000 S 
ATOM      9  H   UNL     1       6.638   6.461  14.638  0.00  0.00    +0.000 HD
ENDROOT
BRANCH   7  10
ATOM     10  C   UNL     1       3.537   4.699  19.215  0.00  0.00    +0.000 A 
ATOM     11  C   UNL     1       3.728   3.356  19.600  0.00  0.00    +0.000 A 
ATOM     12  C   UNL     1       3.016   2.791  20.660  0.00  0.00    +0.000 A 
ATOM     13  C   UNL     1       2.106   3.563  21.369  0.00  0.00    +0.000 A 
ATOM     14  C   UNL     1       1.903   4.896  21.015  0.00  0.00    +0.000 A 
ATOM     15  C   UNL     1       2.605   5.478  19.941  0.00  0.00    +0.000 A 
ATOM     16  C   UNL     1       2.309   6.913  19.591  0.00  0.00    +0.000 C 
ENDBRANCH   7  10
BRANCH   1  18
ATOM     17  C   UNL     1       7.044   3.878  11.824  0.00  0.00    +0.000 C 
ATOM     18  C   UNL     1       7.264   4.686  12.877  0.00  0.00    +0.000 C 
ATOM     19  C   UNL     1       8.339   5.727  12.851  0.00  0.00    +0.000 C 
ENDBRANCH   1  18
TORSDOF 2
ENDMDL
MODEL 5
REMARK VINA RESULT:      -6.4      1.624      1.831
REMARK  Name = 
REMARK  4 active torsions:
REMARK  status: ('A' for Active; 'I' for Inactive)
REMARK    1  A    between atoms: C_2  and  C_3
REMARK    2  A    between atoms: C_2  and  C_4
REMARK    3  A    between atoms: C_10  and  C_11
REMARK    4  A    between atoms: C_16  and  C_17
REMARK                            x       y       z     vdW  Elec       q    Type
REMARK                         _______ _______ _______ _____ _____    ______ ____
ROOT
ATOM      1  C   UNL     1       6.482   4.524  14.031  0.00  0.00    +0.000 C 
ATOM      2  O   UNL     1       6.011   3.392  14.058  0.00  0.00    +0.000 OA
ATOM      3  N   UNL     1       6.208   5.532  14.923  0.00  0.00    +0.000 N 
ATOM      4  C   UNL     1       5.386   5.431  16.023  0.00  0.00    +0.000 A 
ATOM      5  N   UNL     1       5.052   6.472  16.754  0.00  0.00    +0.000 NA
ATOM      6  N   UNL     1       4.220   6.125  17.805  0.00  0.00    +0.000 NA
ATOM      7  C   UNL     1       3.985   4.826  17.856  0.00  0.00    +0.000 A 
ATOM      8  S   UNL     1       4.753   3.955  16.584  0.00  0.00    +0.000 S 
ATOM      9  H   UNL     1       6.552   6.468  14.775  0.00  0.00    +0.000 HD
ENDROOT
BRANCH   7  10
ATOM     10  C   UNL     1       3.147   4.129  18.849  0.00  0.00    +0.000 A 
ATOM     11  C   UNL     1       3.730   3.633  20.034  0.00  0.00    +0.000 A 
ATOM     12  C   UNL     1       2.973   2.963  20.996  0.00  0.00    +0.000 A 
ATOM     13  C   UNL     1       1.609   2.787  20.802  0.00  0.00    +0.000 A 
ATOM     14  C   UNL     1       1.005   3.275  19.644  0.00  0.00    +0.000 A 
ATOM     15  C   UNL     1       1.758   3.942  18.658  0.00  0.00    +0.000 A 
ATOM     16  C   UNL     1       1.046   4.410  17.415  0.00  0.00    +0.000 C 
ENDBRANCH   7  10
BRANCH   1  18
ATOM     17  C   UNL     1       8.400   5.787  13.231  0.00  0.00    +0.000 C 
ATOM     18  C   UNL     1       7.433   4.903  12.925  0.00  0.00    +0.000 C 
ATOM     19  C   UNL     1       7.284   4.358  11.539  0.00  0.00    +0.000 C 
ENDBRANCH   1  18
TORSDOF 2
ENDMDL
MODEL 6
REMARK VINA RESULT:      -6.4      1.680      2.045
REMARK  Name = 
REMARK  4 active torsions:
REMARK  status: ('A' for Active; 'I' for Inactive)
REMARK    1  A    between atoms: C_2  and  C_3
REMARK    2  A    between atoms: C_2  and  C_4
REMARK    3  A    between atoms: C_10  and  C_11
REMARK    4  A    between atoms: C_16  and  C_17
REMARK                            x       y       z     vdW  Elec       q    Type
REMARK                         _______ _______ _______ _____ _____    ______ ____
ROOT
ATOM      1  C   UNL     1       6.397   4.490  14.106  0.00  0.00    +0.000 C 
ATOM      2  O   UNL     1       6.022   3.340  14.303  0.00  0.00    +0.000 OA
ATOM      3  N   UNL     1       6.021   5.595  14.831  0.00  0.00    +0.000 N 
ATOM      4  C   UNL     1       5.187   5.593  15.927  0.00  0.00    +0.000 A 
ATOM      5  N   UNL     1       4.753   6.700  16.486  0.00  0.00    +0.000 NA
ATOM      6  N   UNL     1       3.931   6.446  17.572  0.00  0.00    +0.000 NA
ATOM      7  C   UNL     1       3.805   5.155  17.820  0.00  0.00    +0.000 A 
ATOM      8  S   UNL     1       4.669   4.170  16.703  0.00  0.00    +0.000 S 
ATOM      9  H   UNL     1       6.288   6.523  14.543  0.00  0.00    +0.000 HD
ENDROOT
BRANCH   7  10
ATOM     10  C   UNL     1       3.008   4.547  18.902  0.00  0.00    +0.000 A 
ATOM     11  C   UNL     1       2.893   5.208  20.144  0.00  0.00    +0.000 A 
ATOM     12  C   UNL     1       2.152   4.664  21.195  0.00  0.00    +0.000 A 
ATOM     13  C   UNL     1       1.495   3.453  21.022  0.00  0.00    +0.000 A 
ATOM     14  C   UNL     1       1.585   2.783  19.803  0.00  0.00    +0.000 A 
ATOM     15  C   UNL     1       2.338   3.313  18.736  0.00  0.00    +0.000 A 
ATOM     16  C   UNL     1       2.420   2.517  17.460  0.00  0.00    +0.000 C 
ENDBRANCH   7  10
BRANCH   1  18
ATOM     17  C   UNL     1       7.209   4.009  11.865  0.00  0.00    +0.000 C 
ATOM     18  C   UNL     1       7.335   4.777  12.962  0.00  0.00    +0.000 C 
ATOM     19  C   UNL     1       8.387   5.837  13.056  0.00  0.00    +0.000 C 
ENDBRANCH   1  18
TORSDOF 2
ENDMDL
MODEL 7
REMARK VINA RESULT:      -6.4      4.927      8.101
REMARK  Name = 
REMARK  4 active torsions:
REMARK  status: ('A' for Active; 'I' for Inactive)
REMARK    1  A    between atoms: C_2  and  C_3
REMARK    2  A    between atoms: C_2  and  C_4
REMARK    3  A    between atoms: C_10  and  C_11
REMARK    4  A    between atoms: C_16  and  C_17
REMARK                            x       y       z     vdW  Elec       q    Type
REMARK                         _______ _______ _______ _____ _____    ______ ____
ROOT
ATOM      1  C   UNL     1       0.609   9.580  21.203  0.00  0.00    +0.000 C 
ATOM      2  O   UNL     1       1.124   8.704  21.889  0.00  0.00    +0.000 OA
ATOM      3  N   UNL     1       0.810   9.772  19.858  0.00  0.00    +0.000 N 
ATOM      4  C   UNL     1       1.597   8.989  19.042  0.00  0.00    +0.000 A 
ATOM      5  N   UNL     1       1.862   9.312  17.796  0.00  0.00    +0.000 NA
ATOM      6  N   UNL     1       2.671   8.373  17.177  0.00  0.00    +0.000 NA
ATOM      7  C   UNL     1       2.957   7.352  17.966  0.00  0.00    +0.000 A 
ATOM      8  S   UNL     1       2.270   7.507  19.537  0.00  0.00    +0.000 S 
ATOM      9  H   UNL     1       0.434  10.577  19.384  0.00  0.00    +0.000 HD
ENDROOT
BRANCH   7  10
ATOM     10  C   UNL     1       3.788   6.185  17.617  0.00  0.00    +0.000 A 
ATOM     11  C   UNL     1       5.162   6.359  17.344  0.00  0.00    +0.000 A 
ATOM     12  C   UNL     1       5.981   5.281  17.005  0.00  0.00    +0.000 A 
ATOM     13  C   UNL     1       5.449   4.000  16.947  0.00  0.00    +0.000 A 
ATOM     14  C   UNL     1       4.096   3.799  17.220  0.00  0.00    +0.000 A 
ATOM     15  C   UNL     1       3.253   4.877  17.552  0.00  0.00    +0.000 A 
ATOM     16  C   UNL     1       1.795   4.591  17.799  0.00  0.00    +0.000 C 
ENDBRANCH   7  10
BRANCH   1  18
ATOM     17  C   UNL     1      -0.551  11.717  21.173  0.00  0.00    +0.000 C 
ATOM     18  C   UNL     1      -0.317  10.577  21.849  0.00  0.00    +0.000 C 
ATOM     19  C   UNL     1      -0.916  10.334  23.199  0.00  0.00    +0.000 C 
ENDBRANCH   1  18
TORSDOF 2
ENDMDL
MODEL 8
REMARK VINA RESULT:      -6.3      3.766      7.172
REMARK  Name = 
REMARK  4 active torsions:
REMARK  status: ('A' for Active; 'I' for Inactive)
REMARK    1  A    between atoms: C_2  and  C_3
REMARK    2  A    between atoms: C_2  and  C_4
REMARK    3  A    between atoms: C_10  and  C_11
REMARK    4  A    between atoms: C_16  and  C_17
REMARK                            x       y       z     vdW  Elec       q    Type
REMARK                         _______ _______ _______ _____ _____    ______ ____
ROOT
ATOM      1  C   UNL     1       1.201   9.426  18.892  0.00  0.00    +0.000 C 
ATOM      2  O   UNL     1       1.605   9.703  17.768  0.00  0.00    +0.000 OA
ATOM      3  N   UNL     1       1.540   8.311  19.618  0.00  0.00    +0.000 N 
ATOM      4  C   UNL     1       2.423   7.331  19.222  0.00  0.00    +0.000 A 
ATOM      5  N   UNL     1       2.594   6.217  19.901  0.00  0.00    +0.000 NA
ATOM      6  N   UNL     1       3.532   5.387  19.309  0.00  0.00    +0.000 NA
ATOM      7  C   UNL     1       4.067   5.919  18.225  0.00  0.00    +0.000 A 
ATOM      8  S   UNL     1       3.418   7.469  17.849  0.00  0.00    +0.000 S 
ATOM      9  H   UNL     1       1.086   8.099  20.493  0.00  0.00    +0.000 HD
ENDROOT
BRANCH   7  10
ATOM     10  C   UNL     1       5.094   5.303  17.365  0.00  0.00    +0.000 A 
ATOM     11  C   UNL     1       4.744   4.832  16.082  0.00  0.00    +0.000 A 
ATOM     12  C   UNL     1       5.686   4.238  15.240  0.00  0.00    +0.000 A 
ATOM     13  C   UNL     1       7.004   4.114  15.657  0.00  0.00    +0.000 A 
ATOM     14  C   UNL     1       7.380   4.578  16.917  0.00  0.00    +0.000 A 
ATOM     15  C   UNL     1       6.439   5.170  17.783  0.00  0.00    +0.000 A 
ATOM     16  C   UNL     1       6.907   5.615  19.144  0.00  0.00    +0.000 C 
ENDBRANCH   7  10
BRANCH   1  18
ATOM     17  C   UNL     1      -0.928  10.601  18.922  0.00  0.00    +0.000 C 
ATOM     18  C   UNL     1       0.222  10.347  19.573  0.00  0.00    +0.000 C 
ATOM     19  C   UNL     1       0.530  10.985  20.891  0.00  0.00    +0.000 C 
ENDBRANCH   1  18
TORSDOF 2
ENDMDL
MODEL 9
REMARK VINA RESULT:      -6.1      4.326      7.895
REMARK  Name = 
REMARK  4 active torsions:
REMARK  status: ('A' for Active; 'I' for Inactive)
REMARK    1  A    between atoms: C_2  and  C_3
REMARK    2  A    between atoms: C_2  and  C_4
REMARK    3  A    between atoms: C_10  and  C_11
REMARK    4  A    between atoms: C_16  and  C_17
REMARK                            x       y       z     vdW  Elec       q    Type
REMARK                         _______ _______ _______ _____ _____    ______ ____
ROOT
ATOM      1  C   UNL     1       0.539   9.370  20.499  0.00  0.00    +0.000 C 
ATOM      2  O   UNL     1       0.664   9.823  19.367  0.00  0.00    +0.000 OA
ATOM      3  N   UNL     1       1.048   8.177  20.951  0.00  0.00    +0.000 N 
ATOM      4  C   UNL     1       1.818   7.302  20.217  0.00  0.00    +0.000 A 
ATOM      5  N   UNL     1       2.152   6.111  20.662  0.00  0.00    +0.000 NA
ATOM      6  N   UNL     1       2.929   5.415  19.751  0.00  0.00    +0.000 NA
ATOM      7  C   UNL     1       3.188   6.120  18.664  0.00  0.00    +0.000 A 
ATOM      8  S   UNL     1       2.458   7.679  18.687  0.00  0.00    +0.000 S 
ATOM      9  H   UNL     1       0.814   7.823  21.865  0.00  0.00    +0.000 HD
ENDROOT
BRANCH   7  10
ATOM     10  C   UNL     1       3.987   5.677  17.507  0.00  0.00    +0.000 A 
ATOM     11  C   UNL     1       4.695   6.626  16.739  0.00  0.00    +0.000 A 
ATOM     12  C   UNL     1       5.459   6.249  15.633  0.00  0.00    +0.000 A 
ATOM     13  C   UNL     1       5.545   4.909  15.278  0.00  0.00    +0.000 A 
ATOM     14  C   UNL     1       4.862   3.949  16.024  0.00  0.00    +0.000 A 
ATOM     15  C   UNL     1       4.078   4.315  17.136  0.00  0.00    +0.000 A 
ATOM     16  C   UNL     1       3.339   3.229  17.873  0.00  0.00    +0.000 C 
ENDBRANCH   7  10
BRANCH   1  18
ATOM     17  C   UNL     1      -0.750  11.333  21.134  0.00  0.00    +0.000 C 
ATOM     18  C   UNL     1      -0.258  10.141  21.520  0.00  0.00    +0.000 C 
ATOM     19  C   UNL     1      -0.456   9.629  22.912  0.00  0.00    +0.000 C 
ENDBRANCH   1  18
TORSDOF 2
ENDMDL
