MODEL 1
REMARK VINA RESULT:      -7.3      0.000      0.000
REMARK  Name = 
REMARK  14 active torsions:
REMARK  status: ('A' for Active; 'I' for Inactive)
REMARK    1  A    between atoms: C_1  and  C_2
REMARK    2  A    between atoms: C_2  and  C_3
REMARK    3  A    between atoms: C_3  and  N_4
REMARK    4  A    between atoms: N_4  and  C_5
REMARK    5  A    between atoms: N_4  and  C_8
REMARK    6  A    between atoms: C_5  and  C_6
REMARK    7  A    between atoms: C_6  and  C_7
REMARK    8  A    between atoms: C_9  and  C_10
REMARK    9  A    between atoms: C_12  and  C_13
REMARK   10  A    between atoms: C_14  and  C_15
REMARK   11  A    between atoms: C_17  and  C_18
REMARK   12  A    between atoms: C_20  and  O_21
REMARK   13  A    between atoms: O_21  and  C_22
REMARK   14  A    between atoms: C_24  and  O_25
REMARK                            x       y       z     vdW  Elec       q    Type
REMARK                         _______ _______ _______ _____ _____    ______ ____
ROOT
ATOM      1  C   UNL     1       4.840   5.218  16.616  0.00  0.00    +0.000 A 
ATOM      2  C   UNL     1       3.798   4.640  17.343  0.00  0.00    +0.000 A 
ATOM      3  C   UNL     1       3.615   3.155  17.461  0.00  0.00    +0.000 C 
ATOM      4  N   UNL     1       2.889   5.350  18.061  0.00  0.00    +0.000 NA
ATOM      5  C   UNL     1       3.068   6.673  18.214  0.00  0.00    +0.000 A 
ATOM      6  N   UNL     1       4.056   7.337  17.603  0.00  0.00    +0.000 NA
ATOM      7  C   UNL     1       4.869   6.602  16.815  0.00  0.00    +0.000 A 
ENDROOT
BRANCH   5   8
ATOM      8  C   UNL     1       2.165   7.374  19.177  0.00  0.00    +0.000 A 
ATOM      9  C   UNL     1       1.656   8.684  18.900  0.00  0.00    +0.000 A 
ATOM     10  C   UNL     1       1.888   9.452  17.617  0.00  0.00    +0.000 C 
ATOM     11  C   UNL     1       0.894   9.382  19.862  0.00  0.00    +0.000 A 
ATOM     12  C   UNL     1       0.581   8.814  21.088  0.00  0.00    +0.000 A 
ATOM     13  C   UNL     1      -0.205   9.573  22.118  0.00  0.00    +0.000 C 
ATOM     14  C   UNL     1       1.004   7.517  21.351  0.00  0.00    +0.000 A 
ATOM     15  C   UNL     1       1.774   6.790  20.416  0.00  0.00    +0.000 A 
BRANCH  15  16
ATOM     16  O   UNL     1       2.210   5.515  20.714  0.00  0.00    +0.000 OA
ATOM     17  C   UNL     1       1.230   4.478  20.646  0.00  0.00    +0.000 C 
ENDBRANCH  15  16
ENDBRANCH   5   8
BRANCH   7  18
ATOM     18  O   UNL     1       5.765   7.415  16.193  0.00  0.00    +0.000 OA
ATOM     19  H   UNL     1       5.140   7.994  15.716  0.00  0.00    +0.000 HD
ENDBRANCH   7  18
BRANCH   1  20
ATOM     20  N   UNL     1       5.726   4.433  15.829  0.00  0.00    +0.000 N 
BRANCH  20  21
ATOM     21  C   UNL     1       7.178   4.553  16.097  0.00  0.00    +0.000 C 
BRANCH  21  23
ATOM     22  C   UNL     1       7.802   5.597  18.330  0.00  0.00    +0.000 C 
ATOM     23  C   UNL     1       7.536   4.306  17.568  0.00  0.00    +0.000 C 
ENDBRANCH  21  23
ENDBRANCH  20  21
BRANCH  20  24
ATOM     24  C   UNL     1       5.355   4.484  14.390  0.00  0.00    +0.000 C 
BRANCH  24  25
ATOM     25  C   UNL     1       6.422   3.911  13.441  0.00  0.00    +0.000 C 
ATOM     26  C   UNL     1       5.879   3.227  12.194  0.00  0.00    +0.000 C 
ENDBRANCH  24  25
ENDBRANCH  20  24
ENDBRANCH   1  20
TORSDOF 8
ENDMDL
MODEL 2
REMARK VINA RESULT:      -6.8      2.503      7.380
REMARK  Name = 
REMARK  14 active torsions:
REMARK  status: ('A' for Active; 'I' for Inactive)
REMARK    1  A    between atoms: C_1  and  C_2
REMARK    2  A    between atoms: C_2  and  C_3
REMARK    3  A    between atoms: C_3  and  N_4
REMARK    4  A    between atoms: N_4  and  C_5
REMARK    5  A    between atoms: N_4  and  C_8
REMARK    6  A    between atoms: C_5  and  C_6
REMARK    7  A    between atoms: C_6  and  C_7
REMARK    8  A    between atoms: C_9  and  C_10
REMARK    9  A    between atoms: C_12  and  C_13
REMARK   10  A    between atoms: C_14  and  C_15
REMARK   11  A    between atoms: C_17  and  C_18
REMARK   12  A    between atoms: C_20  and  O_21
REMARK   13  A    between atoms: O_21  and  C_22
REMARK   14  A    between atoms: C_24  and  O_25
REMARK                            x       y       z     vdW  Elec       q    Type
REMARK                         _______ _______ _______ _____ _____    ______ ____
ROOT
ATOM      1  C   UNL     1       1.210   9.683  19.560  0.00  0.00    +0.000 A 
ATOM      2  C   UNL     1       1.261   8.639  20.486  0.00  0.00    +0.000 A 
ATOM      3  C   UNL     1       0.642   8.732  21.851  0.00  0.00    +0.000 C 
ATOM      4  N   UNL     1       1.815   7.426  20.232  0.00  0.00    +0.000 NA
ATOM      5  C   UNL     1       2.212   7.139  18.980  0.00  0.00    +0.000 A 
ATOM      6  N   UNL     1       2.173   8.041  17.993  0.00  0.00    +0.000 NA
ATOM      7  C   UNL     1       1.713   9.267  18.324  0.00  0.00    +0.000 A 
ENDROOT
BRANCH   5   8
ATOM      8  C   UNL     1       2.621   5.729  18.703  0.00  0.00    +0.000 A 
ATOM      9  C   UNL     1       2.004   4.629  19.382  0.00  0.00    +0.000 A 
ATOM     10  C   UNL     1       0.853   4.746  20.357  0.00  0.00    +0.000 C 
ATOM     11  C   UNL     1       2.471   3.309  19.195  0.00  0.00    +0.000 A 
ATOM     12  C   UNL     1       3.514   3.027  18.325  0.00  0.00    +0.000 A 
ATOM     13  C   UNL     1       4.025   1.626  18.153  0.00  0.00    +0.000 C 
ATOM     14  C   UNL     1       4.081   4.070  17.603  0.00  0.00    +0.000 A 
ATOM     15  C   UNL     1       3.645   5.403  17.768  0.00  0.00    +0.000 A 
BRANCH  15  16
ATOM     16  O   UNL     1       4.247   6.425  17.062  0.00  0.00    +0.000 OA
ATOM     17  C   UNL     1       5.501   6.121  16.451  0.00  0.00    +0.000 C 
ENDBRANCH  15  16
ENDBRANCH   5   8
BRANCH   7  18
ATOM     18  O   UNL     1       1.812  10.099  17.253  0.00  0.00    +0.000 OA
ATOM     19  H   UNL     1       1.996  10.934  17.724  0.00  0.00    +0.000 HD
ENDBRANCH   7  18
BRANCH   1  20
ATOM     20  N   UNL     1       0.677  10.956  19.899  0.00  0.00    +0.000 N 
BRANCH  20  21
ATOM     21  C   UNL     1      -0.457  11.466  19.093  0.00  0.00    +0.000 C 
BRANCH  21  23
ATOM     22  C   UNL     1      -1.814  10.132  17.406  0.00  0.00    +0.000 C 
ATOM     23  C   UNL     1      -1.557  10.419  18.879  0.00  0.00    +0.000 C 
ENDBRANCH  21  23
ENDBRANCH  20  21
BRANCH  20  24
ATOM     24  C   UNL     1       1.759  11.945  20.143  0.00  0.00    +0.000 C 
BRANCH  24  25
ATOM     25  C   UNL     1       1.697  13.188  19.238  0.00  0.00    +0.000 C 
ATOM     26  C   UNL     1       2.860  13.342  18.269  0.00  0.00    +0.000 C 
ENDBRANCH  24  25
ENDBRANCH  20  24
ENDBRANCH   1  20
TORSDOF 8
ENDMDL
MODEL 3
REMARK VINA RESULT:      -6.8      2.677      7.627
REMARK  Name = 
REMARK  14 active torsions:
REMARK  status: ('A' for Active; 'I' for Inactive)
REMARK    1  A    between atoms: C_1  and  C_2
REMARK    2  A    between atoms: C_2  and  C_3
REMARK    3  A    between atoms: C_3  and  N_4
REMARK    4  A    between atoms: N_4  and  C_5
REMARK    5  A    between atoms: N_4  and  C_8
REMARK    6  A    between atoms: C_5  and  C_6
REMARK    7  A    between atoms: C_6  and  C_7
REMARK    8  A    between atoms: C_9  and  C_10
REMARK    9  A    between atoms: C_12  and  C_13
REMARK   10  A    between atoms: C_14  and  C_15
REMARK   11  A    between atoms: C_17  and  C_18
REMARK   12  A    between atoms: C_20  and  O_21
REMARK   13  A    between atoms: O_21  and  C_22
REMARK   14  A    between atoms: C_24  and  O_25
REMARK                            x       y       z     vdW  Elec       q    Type
REMARK                         _______ _______ _______ _____ _____    ______ ____
ROOT
ATOM      1  C   UNL     1       1.080   9.595  19.554  0.00  0.00    +0.000 A 
ATOM      2  C   UNL     1       1.120   8.690  20.616  0.00  0.00    +0.000 A 
ATOM      3  C   UNL     1       0.354   8.897  21.891  0.00  0.00    +0.000 C 
ATOM      4  N   UNL     1       1.799   7.514  20.585  0.00  0.00    +0.000 NA
ATOM      5  C   UNL     1       2.350   7.109  19.429  0.00  0.00    +0.000 A 
ATOM      6  N   UNL     1       2.340   7.868  18.327  0.00  0.00    +0.000 NA
ATOM      7  C   UNL     1       1.745   9.074  18.440  0.00  0.00    +0.000 A 
ENDROOT
BRANCH   5   8
ATOM      8  C   UNL     1       2.905   5.722  19.389  0.00  0.00    +0.000 A 
ATOM      9  C   UNL     1       2.164   4.610  19.905  0.00  0.00    +0.000 A 
ATOM     10  C   UNL     1       0.754   4.684  20.449  0.00  0.00    +0.000 C 
ATOM     11  C   UNL     1       2.738   3.321  19.963  0.00  0.00    +0.000 A 
ATOM     12  C   UNL     1       4.021   3.079  19.493  0.00  0.00    +0.000 A 
ATOM     13  C   UNL     1       4.637   1.714  19.584  0.00  0.00    +0.000 C 
ATOM     14  C   UNL     1       4.733   4.128  18.924  0.00  0.00    +0.000 A 
ATOM     15  C   UNL     1       4.193   5.432  18.854  0.00  0.00    +0.000 A 
BRANCH  15  16
ATOM     16  O   UNL     1       4.933   6.464  18.314  0.00  0.00    +0.000 OA
ATOM     17  C   UNL     1       6.247   6.133  17.863  0.00  0.00    +0.000 C 
ENDBRANCH  15  16
ENDBRANCH   5   8
BRANCH   7  18
ATOM     18  O   UNL     1       1.887   9.768  17.278  0.00  0.00    +0.000 OA
ATOM     19  H   UNL     1       2.661   9.299  16.914  0.00  0.00    +0.000 HD
ENDBRANCH   7  18
BRANCH   1  20
ATOM     20  N   UNL     1       0.407  10.843  19.662  0.00  0.00    +0.000 N 
BRANCH  20  21
ATOM     21  C   UNL     1      -0.517  11.225  18.570  0.00  0.00    +0.000 C 
BRANCH  21  23
ATOM     22  C   UNL     1      -1.978   9.864  16.994  0.00  0.00    +0.000 C 
ATOM     23  C   UNL     1      -1.711  10.271  18.437  0.00  0.00    +0.000 C 
ENDBRANCH  21  23
ENDBRANCH  20  21
BRANCH  20  24
ATOM     24  C   UNL     1       1.337  11.919  20.093  0.00  0.00    +0.000 C 
BRANCH  24  25
ATOM     25  C   UNL     1       0.642  13.227  20.510  0.00  0.00    +0.000 C 
ATOM     26  C   UNL     1      -0.094  13.174  21.841  0.00  0.00    +0.000 C 
ENDBRANCH  24  25
ENDBRANCH  20  24
ENDBRANCH   1  20
TORSDOF 8
ENDMDL
MODEL 4
REMARK VINA RESULT:      -6.8      2.627      7.169
REMARK  Name = 
REMARK  14 active torsions:
REMARK  status: ('A' for Active; 'I' for Inactive)
REMARK    1  A    between atoms: C_1  and  C_2
REMARK    2  A    between atoms: C_2  and  C_3
REMARK    3  A    between atoms: C_3  and  N_4
REMARK    4  A    between atoms: N_4  and  C_5
REMARK    5  A    between atoms: N_4  and  C_8
REMARK    6  A    between atoms: C_5  and  C_6
REMARK    7  A    between atoms: C_6  and  C_7
REMARK    8  A    between atoms: C_9  and  C_10
REMARK    9  A    between atoms: C_12  and  C_13
REMARK   10  A    between atoms: C_14  and  C_15
REMARK   11  A    between atoms: C_17  and  C_18
REMARK   12  A    between atoms: C_20  and  O_21
REMARK   13  A    between atoms: O_21  and  C_22
REMARK   14  A    between atoms: C_24  and  O_25
REMARK                            x       y       z     vdW  Elec       q    Type
REMARK                         _______ _______ _______ _____ _____    ______ ____
ROOT
ATOM      1  C   UNL     1       1.138   9.406  19.423  0.00  0.00    +0.000 A 
ATOM      2  C   UNL     1       1.183   8.565  20.537  0.00  0.00    +0.000 A 
ATOM      3  C   UNL     1       0.407   8.837  21.793  0.00  0.00    +0.000 C 
ATOM      4  N   UNL     1       1.876   7.398  20.578  0.00  0.00    +0.000 NA
ATOM      5  C   UNL     1       2.438   6.933  19.450  0.00  0.00    +0.000 A 
ATOM      6  N   UNL     1       2.426   7.625  18.305  0.00  0.00    +0.000 NA
ATOM      7  C   UNL     1       1.816   8.829  18.345  0.00  0.00    +0.000 A 
ENDROOT
BRANCH   5   8
ATOM      8  C   UNL     1       3.009   5.552  19.495  0.00  0.00    +0.000 A 
ATOM      9  C   UNL     1       2.241   4.445  19.979  0.00  0.00    +0.000 A 
ATOM     10  C   UNL     1       0.790   4.515  20.404  0.00  0.00    +0.000 C 
ATOM     11  C   UNL     1       2.823   3.166  20.119  0.00  0.00    +0.000 A 
ATOM     12  C   UNL     1       4.142   2.928  19.763  0.00  0.00    +0.000 A 
ATOM     13  C   UNL     1       4.764   1.574  19.942  0.00  0.00    +0.000 C 
ATOM     14  C   UNL     1       4.887   3.971  19.225  0.00  0.00    +0.000 A 
ATOM     15  C   UNL     1       4.341   5.265  19.075  0.00  0.00    +0.000 A 
BRANCH  15  16
ATOM     16  O   UNL     1       5.111   6.292  18.569  0.00  0.00    +0.000 OA
ATOM     17  C   UNL     1       5.772   6.037  17.329  0.00  0.00    +0.000 C 
ENDBRANCH  15  16
ENDBRANCH   5   8
BRANCH   7  18
ATOM     18  O   UNL     1       1.956   9.455  17.145  0.00  0.00    +0.000 OA
ATOM     19  H   UNL     1       1.298   8.950  16.632  0.00  0.00    +0.000 HD
ENDBRANCH   7  18
BRANCH   1  20
ATOM     20  N   UNL     1       0.450  10.650  19.455  0.00  0.00    +0.000 N 
BRANCH  20  21
ATOM     21  C   UNL     1       0.852  11.634  20.487  0.00  0.00    +0.000 C 
BRANCH  21  23
ATOM     22  C   UNL     1       1.610  13.012  18.489  0.00  0.00    +0.000 C 
ATOM     23  C   UNL     1       1.835  12.686  19.959  0.00  0.00    +0.000 C 
ENDBRANCH  21  23
ENDBRANCH  20  21
BRANCH  20  24
ATOM     24  C   UNL     1      -1.017  10.457  19.320  0.00  0.00    +0.000 C 
BRANCH  24  25
ATOM     25  C   UNL     1      -1.524  10.448  17.867  0.00  0.00    +0.000 C 
ATOM     26  C   UNL     1      -2.884   9.797  17.659  0.00  0.00    +0.000 C 
ENDBRANCH  24  25
ENDBRANCH  20  24
ENDBRANCH   1  20
TORSDOF 8
ENDMDL
MODEL 5
REMARK VINA RESULT:      -6.8      1.053      2.219
REMARK  Name = 
REMARK  14 active torsions:
REMARK  status: ('A' for Active; 'I' for Inactive)
REMARK    1  A    between atoms: C_1  and  C_2
REMARK    2  A    between atoms: C_2  and  C_3
REMARK    3  A    between atoms: C_3  and  N_4
REMARK    4  A    between atoms: N_4  and  C_5
REMARK    5  A    between atoms: N_4  and  C_8
REMARK    6  A    between atoms: C_5  and  C_6
REMARK    7  A    between atoms: C_6  and  C_7
REMARK    8  A    between atoms: C_9  and  C_10
REMARK    9  A    between atoms: C_12  and  C_13
REMARK   10  A    between atoms: C_14  and  C_15
REMARK   11  A    between atoms: C_17  and  C_18
REMARK   12  A    between atoms: C_20  and  O_21
REMARK   13  A    between atoms: O_21  and  C_22
REMARK   14  A    between atoms: C_24  and  O_25
REMARK                            x       y       z     vdW  Elec       q    Type
REMARK                         _______ _______ _______ _____ _____    ______ ____
ROOT
ATOM      1  C   UNL     1       4.825   5.134  16.733  0.00  0.00    +0.000 A 
ATOM      2  C   UNL     1       3.933   4.571  17.647  0.00  0.00    +0.000 A 
ATOM      3  C   UNL     1       3.918   3.105  17.973  0.00  0.00    +0.000 C 
ATOM      4  N   UNL     1       3.037   5.289  18.373  0.00  0.00    +0.000 NA
ATOM      5  C   UNL     1       3.092   6.631  18.335  0.00  0.00    +0.000 A 
ATOM      6  N   UNL     1       3.935   7.290  17.531  0.00  0.00    +0.000 NA
ATOM      7  C   UNL     1       4.731   6.529  16.750  0.00  0.00    +0.000 A 
ENDROOT
BRANCH   5   8
ATOM      8  C   UNL     1       2.230   7.375  19.303  0.00  0.00    +0.000 A 
ATOM      9  C   UNL     1       1.771   6.762  20.513  0.00  0.00    +0.000 A 
ATOM     10  C   UNL     1       2.156   5.376  20.984  0.00  0.00    +0.000 C 
ATOM     11  C   UNL     1       0.869   7.433  21.367  0.00  0.00    +0.000 A 
ATOM     12  C   UNL     1       0.425   8.716  21.086  0.00  0.00    +0.000 A 
ATOM     13  C   UNL     1      -0.557   9.413  21.983  0.00  0.00    +0.000 C 
ATOM     14  C   UNL     1       0.911   9.358  19.954  0.00  0.00    +0.000 A 
ATOM     15  C   UNL     1       1.810   8.717  19.072  0.00  0.00    +0.000 A 
BRANCH  15  16
ATOM     16  O   UNL     1       2.253   9.363  17.937  0.00  0.00    +0.000 OA
ATOM     17  C   UNL     1       2.165  10.788  17.944  0.00  0.00    +0.000 C 
ENDBRANCH  15  16
ENDBRANCH   5   8
BRANCH   7  18
ATOM     18  O   UNL     1       5.465   7.325  15.928  0.00  0.00    +0.000 OA
ATOM     19  H   UNL     1       6.285   6.797  15.896  0.00  0.00    +0.000 HD
ENDBRANCH   7  18
BRANCH   1  20
ATOM     20  N   UNL     1       5.698   4.329  15.951  0.00  0.00    +0.000 N 
BRANCH  20  21
ATOM     21  C   UNL     1       7.156   4.524  16.124  0.00  0.00    +0.000 C 
BRANCH  21  23
ATOM     22  C   UNL     1       7.734   5.831  18.227  0.00  0.00    +0.000 C 
ATOM     23  C   UNL     1       7.598   4.455  17.590  0.00  0.00    +0.000 C 
ENDBRANCH  21  23
ENDBRANCH  20  21
BRANCH  20  24
ATOM     24  C   UNL     1       5.245   4.262  14.537  0.00  0.00    +0.000 C 
BRANCH  24  25
ATOM     25  C   UNL     1       6.379   4.063  13.517  0.00  0.00    +0.000 C 
ATOM     26  C   UNL     1       5.992   3.297  12.259  0.00  0.00    +0.000 C 
ENDBRANCH  24  25
ENDBRANCH  20  24
ENDBRANCH   1  20
TORSDOF 8
ENDMDL
MODEL 6
REMARK VINA RESULT:      -6.7      2.720      7.437
REMARK  Name = 
REMARK  14 active torsions:
REMARK  status: ('A' for Active; 'I' for Inactive)
REMARK    1  A    between atoms: C_1  and  C_2
REMARK    2  A    between atoms: C_2  and  C_3
REMARK    3  A    between atoms: C_3  and  N_4
REMARK    4  A    between atoms: N_4  and  C_5
REMARK    5  A    between atoms: N_4  and  C_8
REMARK    6  A    between atoms: C_5  and  C_6
REMARK    7  A    between atoms: C_6  and  C_7
REMARK    8  A    between atoms: C_9  and  C_10
REMARK    9  A    between atoms: C_12  and  C_13
REMARK   10  A    between atoms: C_14  and  C_15
REMARK   11  A    between atoms: C_17  and  C_18
REMARK   12  A    between atoms: C_20  and  O_21
REMARK   13  A    between atoms: O_21  and  C_22
REMARK   14  A    between atoms: C_24  and  O_25
REMARK                            x       y       z     vdW  Elec       q    Type
REMARK                         _______ _______ _______ _____ _____    ______ ____
ROOT
ATOM      1  C   UNL     1       1.109   9.471  19.511  0.00  0.00    +0.000 A 
ATOM      2  C   UNL     1       1.147   8.597  20.599  0.00  0.00    +0.000 A 
ATOM      3  C   UNL     1       0.370   8.835  21.862  0.00  0.00    +0.000 C 
ATOM      4  N   UNL     1       1.835   7.426  20.608  0.00  0.00    +0.000 NA
ATOM      5  C   UNL     1       2.397   6.992  19.468  0.00  0.00    +0.000 A 
ATOM      6  N   UNL     1       2.390   7.718  18.344  0.00  0.00    +0.000 NA
ATOM      7  C   UNL     1       1.786   8.923  18.418  0.00  0.00    +0.000 A 
ENDROOT
BRANCH   5   8
ATOM      8  C   UNL     1       2.962   5.608  19.472  0.00  0.00    +0.000 A 
ATOM      9  C   UNL     1       2.210   4.500  19.982  0.00  0.00    +0.000 A 
ATOM     10  C   UNL     1       0.782   4.574  20.476  0.00  0.00    +0.000 C 
ATOM     11  C   UNL     1       2.791   3.217  20.083  0.00  0.00    +0.000 A 
ATOM     12  C   UNL     1       4.090   2.975  19.662  0.00  0.00    +0.000 A 
ATOM     13  C   UNL     1       4.712   1.616  19.800  0.00  0.00    +0.000 C 
ATOM     14  C   UNL     1       4.815   4.019  19.100  0.00  0.00    +0.000 A 
ATOM     15  C   UNL     1       4.270   5.317  18.988  0.00  0.00    +0.000 A 
BRANCH  15  16
ATOM     16  O   UNL     1       5.022   6.345  18.455  0.00  0.00    +0.000 OA
ATOM     17  C   UNL     1       6.370   6.030  18.108  0.00  0.00    +0.000 C 
ENDBRANCH  15  16
ENDBRANCH   5   8
BRANCH   7  18
ATOM     18  O   UNL     1       1.932   9.583  17.238  0.00  0.00    +0.000 OA
ATOM     19  H   UNL     1       1.874   8.823  16.629  0.00  0.00    +0.000 HD
ENDBRANCH   7  18
BRANCH   1  20
ATOM     20  N   UNL     1       0.427  10.716  19.578  0.00  0.00    +0.000 N 
BRANCH  20  21
ATOM     21  C   UNL     1      -0.619  10.986  18.564  0.00  0.00    +0.000 C 
BRANCH  21  23
ATOM     22  C   UNL     1      -3.104  11.399  18.218  0.00  0.00    +0.000 C 
ATOM     23  C   UNL     1      -1.926  11.504  19.176  0.00  0.00    +0.000 C 
ENDBRANCH  21  23
ENDBRANCH  20  21
BRANCH  20  24
ATOM     24  C   UNL     1       1.375  11.838  19.803  0.00  0.00    +0.000 C 
BRANCH  24  25
ATOM     25  C   UNL     1       1.431  12.861  18.655  0.00  0.00    +0.000 C 
ATOM     26  C   UNL     1       2.825  13.168  18.127  0.00  0.00    +0.000 C 
ENDBRANCH  24  25
ENDBRANCH  20  24
ENDBRANCH   1  20
TORSDOF 8
ENDMDL
MODEL 7
REMARK VINA RESULT:      -6.7      2.607      7.181
REMARK  Name = 
REMARK  14 active torsions:
REMARK  status: ('A' for Active; 'I' for Inactive)
REMARK    1  A    between atoms: C_1  and  C_2
REMARK    2  A    between atoms: C_2  and  C_3
REMARK    3  A    between atoms: C_3  and  N_4
REMARK    4  A    between atoms: N_4  and  C_5
REMARK    5  A    between atoms: N_4  and  C_8
REMARK    6  A    between atoms: C_5  and  C_6
REMARK    7  A    between atoms: C_6  and  C_7
REMARK    8  A    between atoms: C_9  and  C_10
REMARK    9  A    between atoms: C_12  and  C_13
REMARK   10  A    between atoms: C_14  and  C_15
REMARK   11  A    between atoms: C_17  and  C_18
REMARK   12  A    between atoms: C_20  and  O_21
REMARK   13  A    between atoms: O_21  and  C_22
REMARK   14  A    between atoms: C_24  and  O_25
REMARK                            x       y       z     vdW  Elec       q    Type
REMARK                         _______ _______ _______ _____ _____    ______ ____
ROOT
ATOM      1  C   UNL     1       1.200   9.711  19.491  0.00  0.00    +0.000 A 
ATOM      2  C   UNL     1       1.268   8.643  20.388  0.00  0.00    +0.000 A 
ATOM      3  C   UNL     1       0.571   8.652  21.718  0.00  0.00    +0.000 C 
ATOM      4  N   UNL     1       1.913   7.476  20.130  0.00  0.00    +0.000 NA
ATOM      5  C   UNL     1       2.396   7.257  18.896  0.00  0.00    +0.000 A 
ATOM      6  N   UNL     1       2.352   8.186  17.934  0.00  0.00    +0.000 NA
ATOM      7  C   UNL     1       1.796   9.368  18.274  0.00  0.00    +0.000 A 
ENDROOT
BRANCH   5   8
ATOM      8  C   UNL     1       2.911   5.884  18.601  0.00  0.00    +0.000 A 
ATOM      9  C   UNL     1       3.990   5.677  17.683  0.00  0.00    +0.000 A 
ATOM     10  C   UNL     1       4.767   6.777  16.994  0.00  0.00    +0.000 C 
ATOM     11  C   UNL     1       4.397   4.372  17.329  0.00  0.00    +0.000 A 
ATOM     12  C   UNL     1       3.795   3.251  17.880  0.00  0.00    +0.000 A 
ATOM     13  C   UNL     1       4.212   1.866  17.476  0.00  0.00    +0.000 C 
ATOM     14  C   UNL     1       2.792   3.429  18.826  0.00  0.00    +0.000 A 
ATOM     15  C   UNL     1       2.354   4.718  19.201  0.00  0.00    +0.000 A 
BRANCH  15  16
ATOM     16  O   UNL     1       1.334   4.868  20.118  0.00  0.00    +0.000 OA
ATOM     17  C   UNL     1       1.031   3.726  20.920  0.00  0.00    +0.000 C 
ENDBRANCH  15  16
ENDBRANCH   5   8
BRANCH   7  18
ATOM     18  O   UNL     1       1.898  10.240  17.235  0.00  0.00    +0.000 OA
ATOM     19  H   UNL     1       1.277   9.813  16.615  0.00  0.00    +0.000 HD
ENDBRANCH   7  18
BRANCH   1  20
ATOM     20  N   UNL     1       0.567  10.936  19.837  0.00  0.00    +0.000 N 
BRANCH  20  21
ATOM     21  C   UNL     1      -0.526  11.419  18.960  0.00  0.00    +0.000 C 
BRANCH  21  23
ATOM     22  C   UNL     1      -1.781  10.014  17.252  0.00  0.00    +0.000 C 
ATOM     23  C   UNL     1      -1.613  10.364  18.724  0.00  0.00    +0.000 C 
ENDBRANCH  21  23
ENDBRANCH  20  21
BRANCH  20  24
ATOM     24  C   UNL     1       1.565  11.971  20.210  0.00  0.00    +0.000 C 
BRANCH  24  25
ATOM     25  C   UNL     1       1.526  13.235  19.334  0.00  0.00    +0.000 C 
ATOM     26  C   UNL     1       2.680  13.378  18.351  0.00  0.00    +0.000 C 
ENDBRANCH  24  25
ENDBRANCH  20  24
ENDBRANCH   1  20
TORSDOF 8
ENDMDL
MODEL 8
REMARK VINA RESULT:      -6.7      2.578      7.428
REMARK  Name = 
REMARK  14 active torsions:
REMARK  status: ('A' for Active; 'I' for Inactive)
REMARK    1  A    between atoms: C_1  and  C_2
REMARK    2  A    between atoms: C_2  and  C_3
REMARK    3  A    between atoms: C_3  and  N_4
REMARK    4  A    between atoms: N_4  and  C_5
REMARK    5  A    between atoms: N_4  and  C_8
REMARK    6  A    between atoms: C_5  and  C_6
REMARK    7  A    between atoms: C_6  and  C_7
REMARK    8  A    between atoms: C_9  and  C_10
REMARK    9  A    between atoms: C_12  and  C_13
REMARK   10  A    between atoms: C_14  and  C_15
REMARK   11  A    between atoms: C_17  and  C_18
REMARK   12  A    between atoms: C_20  and  O_21
REMARK   13  A    between atoms: O_21  and  C_22
REMARK   14  A    between atoms: C_24  and  O_25
REMARK                            x       y       z     vdW  Elec       q    Type
REMARK                         _______ _______ _______ _____ _____    ______ ____
ROOT
ATOM      1  C   UNL     1       1.139   9.372  19.502  0.00  0.00    +0.000 A 
ATOM      2  C   UNL     1       1.191   8.515  20.602  0.00  0.00    +0.000 A 
ATOM      3  C   UNL     1       0.423   8.768  21.867  0.00  0.00    +0.000 C 
ATOM      4  N   UNL     1       1.884   7.347  20.622  0.00  0.00    +0.000 NA
ATOM      5  C   UNL     1       2.439   6.898  19.484  0.00  0.00    +0.000 A 
ATOM      6  N   UNL     1       2.419   7.608  18.350  0.00  0.00    +0.000 NA
ATOM      7  C   UNL     1       1.810   8.811  18.411  0.00  0.00    +0.000 A 
ENDROOT
BRANCH   5   8
ATOM      8  C   UNL     1       3.009   5.517  19.505  0.00  0.00    +0.000 A 
ATOM      9  C   UNL     1       2.242   4.402  19.973  0.00  0.00    +0.000 A 
ATOM     10  C   UNL     1       0.793   4.466  20.405  0.00  0.00    +0.000 C 
ATOM     11  C   UNL     1       2.824   3.121  20.092  0.00  0.00    +0.000 A 
ATOM     12  C   UNL     1       4.142   2.889  19.727  0.00  0.00    +0.000 A 
ATOM     13  C   UNL     1       4.764   1.532  19.883  0.00  0.00    +0.000 C 
ATOM     14  C   UNL     1       4.885   3.940  19.204  0.00  0.00    +0.000 A 
ATOM     15  C   UNL     1       4.339   5.236  19.076  0.00  0.00    +0.000 A 
BRANCH  15  16
ATOM     16  O   UNL     1       5.108   6.271  18.584  0.00  0.00    +0.000 OA
ATOM     17  C   UNL     1       5.568   6.134  17.239  0.00  0.00    +0.000 C 
ENDBRANCH  15  16
ENDBRANCH   5   8
BRANCH   7  18
ATOM     18  O   UNL     1       1.943   9.454  17.220  0.00  0.00    +0.000 OA
ATOM     19  H   UNL     1       1.231  10.113  17.322  0.00  0.00    +0.000 HD
ENDBRANCH   7  18
BRANCH   1  20
ATOM     20  N   UNL     1       0.452  10.615  19.556  0.00  0.00    +0.000 N 
BRANCH  20  21
ATOM     21  C   UNL     1       0.809  11.554  20.646  0.00  0.00    +0.000 C 
BRANCH  21  23
ATOM     22  C   UNL     1      -0.782  12.282  22.491  0.00  0.00    +0.000 C 
ATOM     23  C   UNL     1      -0.350  12.475  21.044  0.00  0.00    +0.000 C 
ENDBRANCH  21  23
ENDBRANCH  20  21
BRANCH  20  24
ATOM     24  C   UNL     1      -1.008  10.433  19.348  0.00  0.00    +0.000 C 
BRANCH  24  25
ATOM     25  C   UNL     1      -1.443  10.435  17.872  0.00  0.00    +0.000 C 
ATOM     26  C   UNL     1      -2.669  11.281  17.559  0.00  0.00    +0.000 C 
ENDBRANCH  24  25
ENDBRANCH  20  24
ENDBRANCH   1  20
TORSDOF 8
ENDMDL
MODEL 9
REMARK VINA RESULT:      -6.6      2.788      4.553
REMARK  Name = 
REMARK  14 active torsions:
REMARK  status: ('A' for Active; 'I' for Inactive)
REMARK    1  A    between atoms: C_1  and  C_2
REMARK    2  A    between atoms: C_2  and  C_3
REMARK    3  A    between atoms: C_3  and  N_4
REMARK    4  A    between atoms: N_4  and  C_5
REMARK    5  A    between atoms: N_4  and  C_8
REMARK    6  A    between atoms: C_5  and  C_6
REMARK    7  A    between atoms: C_6  and  C_7
REMARK    8  A    between atoms: C_9  and  C_10
REMARK    9  A    between atoms: C_12  and  C_13
REMARK   10  A    between atoms: C_14  and  C_15
REMARK   11  A    between atoms: C_17  and  C_18
REMARK   12  A    between atoms: C_20  and  O_21
REMARK   13  A    between atoms: O_21  and  C_22
REMARK   14  A    between atoms: C_24  and  O_25
REMARK                            x       y       z     vdW  Elec       q    Type
REMARK                         _______ _______ _______ _____ _____    ______ ____
ROOT
ATOM      1  C   UNL     1       3.005   6.297  19.178  0.00  0.00    +0.000 A 
ATOM      2  C   UNL     1       2.908   7.450  18.399  0.00  0.00    +0.000 A 
ATOM      3  C   UNL     1       3.538   7.570  17.041  0.00  0.00    +0.000 C 
ATOM      4  N   UNL     1       2.192   8.548  18.754  0.00  0.00    +0.000 NA
ATOM      5  C   UNL     1       1.407   8.491  19.843  0.00  0.00    +0.000 A 
ATOM      6  N   UNL     1       1.379   7.423  20.650  0.00  0.00    +0.000 NA
ATOM      7  C   UNL     1       2.190   6.399  20.310  0.00  0.00    +0.000 A 
ENDROOT
BRANCH   5   8
ATOM      8  C   UNL     1       0.484   9.643  20.078  0.00  0.00    +0.000 A 
ATOM      9  C   UNL     1      -0.343  10.158  19.029  0.00  0.00    +0.000 A 
ATOM     10  C   UNL     1      -0.447   9.571  17.638  0.00  0.00    +0.000 C 
ATOM     11  C   UNL     1      -1.130  11.314  19.229  0.00  0.00    +0.000 A 
ATOM     12  C   UNL     1      -1.158  11.967  20.452  0.00  0.00    +0.000 A 
ATOM     13  C   UNL     1      -1.972  13.212  20.650  0.00  0.00    +0.000 C 
ATOM     14  C   UNL     1      -0.417  11.445  21.505  0.00  0.00    +0.000 A 
ATOM     15  C   UNL     1       0.386  10.295  21.341  0.00  0.00    +0.000 A 
BRANCH  15  16
ATOM     16  O   UNL     1       1.138   9.814  22.394  0.00  0.00    +0.000 OA
ATOM     17  C   UNL     1       0.412   9.357  23.535  0.00  0.00    +0.000 C 
ENDBRANCH  15  16
ENDBRANCH   5   8
BRANCH   7  18
ATOM     18  O   UNL     1       2.125   5.427  21.259  0.00  0.00    +0.000 OA
ATOM     19  H   UNL     1       2.708   5.829  21.930  0.00  0.00    +0.000 HD
ENDBRANCH   7  18
BRANCH   1  20
ATOM     20  N   UNL     1       3.822   5.200  18.790  0.00  0.00    +0.000 N 
BRANCH  20  21
ATOM     21  C   UNL     1       3.220   3.846  18.823  0.00  0.00    +0.000 C 
BRANCH  21  23
ATOM     22  C   UNL     1       0.878   2.877  18.613  0.00  0.00    +0.000 C 
ATOM     23  C   UNL     1       1.955   3.734  17.963  0.00  0.00    +0.000 C 
ENDBRANCH  21  23
ENDBRANCH  20  21
BRANCH  20  24
ATOM     24  C   UNL     1       5.173   5.292  19.401  0.00  0.00    +0.000 C 
BRANCH  24  25
ATOM     25  C   UNL     1       6.329   5.288  18.385  0.00  0.00    +0.000 C 
ATOM     26  C   UNL     1       7.600   5.985  18.848  0.00  0.00    +0.000 C 
ENDBRANCH  24  25
ENDBRANCH  20  24
ENDBRANCH   1  20
TORSDOF 8
ENDMDL
