MODEL 1
REMARK VINA RESULT:      -7.3      0.000      0.000
REMARK  Name = 
REMARK  8 active torsions:
REMARK  status: ('A' for Active; 'I' for Inactive)
REMARK    1  A    between atoms: C_1  and  O_2
REMARK    2  A    between atoms: O_2  and  C_3
REMARK    3  A    between atoms: C_7  and  C_8
REMARK    4  A    between atoms: C_11  and  C_12
REMARK    5  A    between atoms: C_15  and  C_16
REMARK    6  A    between atoms: N_18  and  C_19
REMARK    7  A    between atoms: N_18  and  C_20
REMARK    8  A    between atoms: C_23  and  C_24
REMARK                            x       y       z     vdW  Elec       q    Type
REMARK                         _______ _______ _______ _____ _____    ______ ____
ROOT
ATOM      1  C   UNL     1      -4.947  12.372  20.299  0.00  0.00    +0.000 A 
ATOM      2  N   UNL     1      -5.980  11.569  20.591  0.00  0.00    +0.000 NA
ATOM      3  O   UNL     1      -6.515  12.038  21.752  0.00  0.00    +0.000 OA
ATOM      4  C   UNL     1      -5.852  13.150  22.165  0.00  0.00    +0.000 A 
ATOM      5  C   UNL     1      -4.882  13.473  21.227  0.00  0.00    +0.000 A 
ENDROOT
BRANCH   1  10
ATOM      6  C   UNL     1      -3.837  11.271  16.872  0.00  0.00    +0.000 A 
ATOM      7  C   UNL     1      -2.452  11.272  17.041  0.00  0.00    +0.000 A 
ATOM      8  C   UNL     1      -1.883  11.694  18.239  0.00  0.00    +0.000 A 
ATOM      9  C   UNL     1      -2.706  12.068  19.296  0.00  0.00    +0.000 A 
ATOM     10  C   UNL     1      -4.100  12.038  19.156  0.00  0.00    +0.000 A 
ATOM     11  C   UNL     1      -4.659  11.682  17.919  0.00  0.00    +0.000 A 
BRANCH   6  13
ATOM     12  C   UNL     1      -3.278  10.367  14.749  0.00  0.00    +0.000 C 
ATOM     13  O   UNL     1      -4.276  10.774  15.675  0.00  0.00    +0.000 OA
ENDBRANCH   6  13
ENDBRANCH   1  10
BRANCH   5  14
ATOM     14  C   UNL     1      -3.968  14.619  21.266  0.00  0.00    +0.000 C 
ATOM     15  O   UNL     1      -4.275  15.649  20.661  0.00  0.00    +0.000 OA
ATOM     16  N   UNL     1      -2.810  14.566  22.072  0.00  0.00    +0.000 N 
ATOM     17  C   UNL     1      -2.162  15.839  22.427  0.00  0.00    +0.000 C 
BRANCH  16  18
ATOM     18  C   UNL     1      -2.064  13.385  22.407  0.00  0.00    +0.000 A 
ATOM     19  C   UNL     1      -2.621  12.350  23.154  0.00  0.00    +0.000 A 
ATOM     20  C   UNL     1      -1.923  11.157  23.346  0.00  0.00    +0.000 A 
ATOM     21  C   UNL     1      -0.667  10.990  22.766  0.00  0.00    +0.000 A 
ATOM     22  N   UNL     1      -0.077  11.997  22.064  0.00  0.00    +0.000 NA
ATOM     23  C   UNL     1      -0.774  13.152  21.912  0.00  0.00    +0.000 A 
BRANCH  21  24
ATOM     24  C   UNL     1       0.022   9.633  22.852  0.00  0.00    +0.000 C 
ATOM     25  F   UNL     1       1.226   9.603  22.204  0.00  0.00    +0.000 F 
ATOM     26  F   UNL     1       0.302   9.263  24.137  0.00  0.00    +0.000 F 
ATOM     27  F   UNL     1      -0.705   8.614  22.312  0.00  0.00    +0.000 F 
ENDBRANCH  21  24
ENDBRANCH  16  18
ENDBRANCH   5  14
BRANCH   4  28
ATOM     28  C   UNL     1      -6.230  13.834  23.471  0.00  0.00    +0.000 C 
ATOM     29  C   UNL     1      -7.280  14.935  23.383  0.00  0.00    +0.000 C 
ATOM     30  C   UNL     1      -7.654  13.618  23.965  0.00  0.00    +0.000 C 
ENDBRANCH   4  28
TORSDOF 6
ENDMDL
MODEL 2
REMARK VINA RESULT:      -7.1      4.895      7.028
REMARK  Name = 
REMARK  8 active torsions:
REMARK  status: ('A' for Active; 'I' for Inactive)
REMARK    1  A    between atoms: C_1  and  O_2
REMARK    2  A    between atoms: O_2  and  C_3
REMARK    3  A    between atoms: C_7  and  C_8
REMARK    4  A    between atoms: C_11  and  C_12
REMARK    5  A    between atoms: C_15  and  C_16
REMARK    6  A    between atoms: N_18  and  C_19
REMARK    7  A    between atoms: N_18  and  C_20
REMARK    8  A    between atoms: C_23  and  C_24
REMARK                            x       y       z     vdW  Elec       q    Type
REMARK                         _______ _______ _______ _____ _____    ______ ____
ROOT
ATOM      1  C   UNL     1       0.773   9.405  21.026  0.00  0.00    +0.000 A 
ATOM      2  N   UNL     1       1.099   9.556  22.317  0.00  0.00    +0.000 NA
ATOM      3  O   UNL     1       0.451  10.672  22.751  0.00  0.00    +0.000 OA
ATOM      4  C   UNL     1      -0.308  11.197  21.754  0.00  0.00    +0.000 A 
ATOM      5  C   UNL     1      -0.215  10.379  20.637  0.00  0.00    +0.000 A 
ENDROOT
BRANCH   1  10
ATOM      6  C   UNL     1       2.282   6.086  20.080  0.00  0.00    +0.000 A 
ATOM      7  C   UNL     1       2.785   6.388  18.814  0.00  0.00    +0.000 A 
ATOM      8  C   UNL     1       2.575   7.641  18.246  0.00  0.00    +0.000 A 
ATOM      9  C   UNL     1       1.901   8.619  18.970  0.00  0.00    +0.000 A 
ATOM     10  C   UNL     1       1.421   8.345  20.258  0.00  0.00    +0.000 A 
ATOM     11  C   UNL     1       1.574   7.055  20.789  0.00  0.00    +0.000 A 
BRANCH   6  13
ATOM     12  C   UNL     1       1.532   3.966  20.842  0.00  0.00    +0.000 C 
ATOM     13  O   UNL     1       2.611   4.847  20.556  0.00  0.00    +0.000 OA
ENDBRANCH   6  13
ENDBRANCH   1  10
BRANCH   5  14
ATOM     14  C   UNL     1      -0.906  10.560  19.356  0.00  0.00    +0.000 C 
ATOM     15  O   UNL     1      -1.690   9.689  18.971  0.00  0.00    +0.000 OA
ATOM     16  N   UNL     1      -0.745  11.763  18.636  0.00  0.00    +0.000 N 
ATOM     17  C   UNL     1      -1.751  12.090  17.612  0.00  0.00    +0.000 C 
BRANCH  16  18
ATOM     18  C   UNL     1       0.418  12.606  18.642  0.00  0.00    +0.000 A 
ATOM     19  C   UNL     1       1.690  12.106  18.373  0.00  0.00    +0.000 A 
ATOM     20  C   UNL     1       2.780  12.968  18.247  0.00  0.00    +0.000 A 
ATOM     21  C   UNL     1       2.592  14.343  18.368  0.00  0.00    +0.000 A 
ATOM     22  N   UNL     1       1.369  14.862  18.671  0.00  0.00    +0.000 NA
ATOM     23  C   UNL     1       0.333  13.995  18.806  0.00  0.00    +0.000 A 
BRANCH  21  24
ATOM     24  C   UNL     1       3.755  15.285  18.079  0.00  0.00    +0.000 C 
ATOM     25  F   UNL     1       4.186  15.957  19.190  0.00  0.00    +0.000 F 
ATOM     26  F   UNL     1       4.858  14.634  17.608  0.00  0.00    +0.000 F 
ATOM     27  F   UNL     1       3.463  16.251  17.163  0.00  0.00    +0.000 F 
ENDBRANCH  21  24
ENDBRANCH  16  18
ENDBRANCH   5  14
BRANCH   4  28
ATOM     28  C   UNL     1      -1.092  12.483  21.976  0.00  0.00    +0.000 C 
ATOM     29  C   UNL     1      -2.550  12.328  22.391  0.00  0.00    +0.000 C 
ATOM     30  C   UNL     1      -1.548  12.765  23.401  0.00  0.00    +0.000 C 
ENDBRANCH   4  28
TORSDOF 6
ENDMDL
MODEL 3
REMARK VINA RESULT:      -7.0      4.256      6.316
REMARK  Name = 
REMARK  8 active torsions:
REMARK  status: ('A' for Active; 'I' for Inactive)
REMARK    1  A    between atoms: C_1  and  O_2
REMARK    2  A    between atoms: O_2  and  C_3
REMARK    3  A    between atoms: C_7  and  C_8
REMARK    4  A    between atoms: C_11  and  C_12
REMARK    5  A    between atoms: C_15  and  C_16
REMARK    6  A    between atoms: N_18  and  C_19
REMARK    7  A    between atoms: N_18  and  C_20
REMARK    8  A    between atoms: C_23  and  C_24
REMARK                            x       y       z     vdW  Elec       q    Type
REMARK                         _______ _______ _______ _____ _____    ______ ____
ROOT
ATOM      1  C   UNL     1       0.039   9.788  21.184  0.00  0.00    +0.000 A 
ATOM      2  N   UNL     1      -0.431   9.072  22.215  0.00  0.00    +0.000 NA
ATOM      3  O   UNL     1      -1.011   9.960  23.068  0.00  0.00    +0.000 OA
ATOM      4  C   UNL     1      -0.943  11.219  22.561  0.00  0.00    +0.000 A 
ATOM      5  C   UNL     1      -0.355  11.169  21.305  0.00  0.00    +0.000 A 
ENDROOT
BRANCH   1  10
ATOM      6  C   UNL     1       2.300   7.314  19.465  0.00  0.00    +0.000 A 
ATOM      7  C   UNL     1       2.423   7.912  18.210  0.00  0.00    +0.000 A 
ATOM      8  C   UNL     1       1.721   9.074  17.905  0.00  0.00    +0.000 A 
ATOM      9  C   UNL     1       0.929   9.674  18.879  0.00  0.00    +0.000 A 
ATOM     10  C   UNL     1       0.823   9.107  20.156  0.00  0.00    +0.000 A 
ATOM     11  C   UNL     1       1.477   7.896  20.427  0.00  0.00    +0.000 A 
BRANCH   6  13
ATOM     12  C   UNL     1       2.515   5.141  20.398  0.00  0.00    +0.000 C 
ATOM     13  O   UNL     1       3.090   6.215  19.665  0.00  0.00    +0.000 OA
ENDBRANCH   6  13
ENDBRANCH   1  10
BRANCH   5  14
ATOM     14  C   UNL     1      -0.125  12.297  20.397  0.00  0.00    +0.000 C 
ATOM     15  O   UNL     1       0.859  13.018  20.577  0.00  0.00    +0.000 OA
ATOM     16  N   UNL     1      -0.966  12.480  19.278  0.00  0.00    +0.000 N 
ATOM     17  C   UNL     1      -0.472  13.325  18.179  0.00  0.00    +0.000 C 
BRANCH  16  18
ATOM     18  C   UNL     1      -2.350  12.106  19.188  0.00  0.00    +0.000 A 
ATOM     19  C   UNL     1      -3.334  12.734  19.948  0.00  0.00    +0.000 A 
ATOM     20  C   UNL     1      -4.683  12.449  19.740  0.00  0.00    +0.000 A 
ATOM     21  C   UNL     1      -5.054  11.546  18.745  0.00  0.00    +0.000 A 
ATOM     22  N   UNL     1      -4.116  10.884  18.012  0.00  0.00    +0.000 NA
ATOM     23  C   UNL     1      -2.810  11.169  18.253  0.00  0.00    +0.000 A 
BRANCH  21  24
ATOM     24  C   UNL     1      -6.531  11.355  18.422  0.00  0.00    +0.000 C 
ATOM     25  F   UNL     1      -7.358  11.969  19.322  0.00  0.00    +0.000 F 
ATOM     26  F   UNL     1      -6.878  11.875  17.208  0.00  0.00    +0.000 F 
ATOM     27  F   UNL     1      -6.923  10.050  18.403  0.00  0.00    +0.000 F 
ENDBRANCH  21  24
ENDBRANCH  16  18
ENDBRANCH   5  14
BRANCH   4  28
ATOM     28  C   UNL     1      -1.479  12.401  23.355  0.00  0.00    +0.000 C 
ATOM     29  C   UNL     1      -2.552  13.245  22.679  0.00  0.00    +0.000 C 
ATOM     30  C   UNL     1      -2.938  12.328  23.785  0.00  0.00    +0.000 C 
ENDBRANCH   4  28
TORSDOF 6
ENDMDL
MODEL 4
REMARK VINA RESULT:      -7.0      4.665      6.793
REMARK  Name = 
REMARK  8 active torsions:
REMARK  status: ('A' for Active; 'I' for Inactive)
REMARK    1  A    between atoms: C_1  and  O_2
REMARK    2  A    between atoms: O_2  and  C_3
REMARK    3  A    between atoms: C_7  and  C_8
REMARK    4  A    between atoms: C_11  and  C_12
REMARK    5  A    between atoms: C_15  and  C_16
REMARK    6  A    between atoms: N_18  and  C_19
REMARK    7  A    between atoms: N_18  and  C_20
REMARK    8  A    between atoms: C_23  and  C_24
REMARK                            x       y       z     vdW  Elec       q    Type
REMARK                         _______ _______ _______ _____ _____    ______ ____
ROOT
ATOM      1  C   UNL     1       0.574   9.027  20.899  0.00  0.00    +0.000 A 
ATOM      2  N   UNL     1      -0.120   8.214  21.708  0.00  0.00    +0.000 NA
ATOM      3  O   UNL     1      -0.724   9.012  22.631  0.00  0.00    +0.000 OA
ATOM      4  C   UNL     1      -0.446  10.318  22.383  0.00  0.00    +0.000 A 
ATOM      5  C   UNL     1       0.316  10.407  21.226  0.00  0.00    +0.000 A 
ENDROOT
BRANCH   1  10
ATOM      6  C   UNL     1       2.970   6.715  19.139  0.00  0.00    +0.000 A 
ATOM      7  C   UNL     1       3.156   7.406  17.942  0.00  0.00    +0.000 A 
ATOM      8  C   UNL     1       2.455   8.580  17.682  0.00  0.00    +0.000 A 
ATOM      9  C   UNL     1       1.599   9.097  18.649  0.00  0.00    +0.000 A 
ATOM     10  C   UNL     1       1.427   8.434  19.872  0.00  0.00    +0.000 A 
ATOM     11  C   UNL     1       2.083   7.213  20.091  0.00  0.00    +0.000 A 
BRANCH   6  13
ATOM     12  C   UNL     1       3.185   4.505  19.980  0.00  0.00    +0.000 C 
ATOM     13  O   UNL     1       3.764   5.613  19.303  0.00  0.00    +0.000 OA
ENDBRANCH   6  13
ENDBRANCH   1  10
BRANCH   5  14
ATOM     14  C   UNL     1       0.800  11.633  20.584  0.00  0.00    +0.000 C 
ATOM     15  O   UNL     1       1.743  12.243  21.093  0.00  0.00    +0.000 OA
ATOM     16  N   UNL     1       0.253  12.040  19.348  0.00  0.00    +0.000 N 
ATOM     17  C   UNL     1       1.026  12.994  18.536  0.00  0.00    +0.000 C 
BRANCH  16  18
ATOM     18  C   UNL     1      -1.086  11.791  18.889  0.00  0.00    +0.000 A 
ATOM     19  C   UNL     1      -2.184  12.455  19.430  0.00  0.00    +0.000 A 
ATOM     20  C   UNL     1      -3.454  12.298  18.873  0.00  0.00    +0.000 A 
ATOM     21  C   UNL     1      -3.622  11.490  17.751  0.00  0.00    +0.000 A 
ATOM     22  N   UNL     1      -2.577  10.795  17.222  0.00  0.00    +0.000 NA
ATOM     23  C   UNL     1      -1.358  10.953  17.800  0.00  0.00    +0.000 A 
BRANCH  21  24
ATOM     24  C   UNL     1      -4.979  11.444  17.059  0.00  0.00    +0.000 C 
ATOM     25  F   UNL     1      -5.493  12.688  16.810  0.00  0.00    +0.000 F 
ATOM     26  F   UNL     1      -4.930  10.831  15.840  0.00  0.00    +0.000 F 
ATOM     27  F   UNL     1      -5.938  10.793  17.775  0.00  0.00    +0.000 F 
ENDBRANCH  21  24
ENDBRANCH  16  18
ENDBRANCH   5  14
BRANCH   4  28
ATOM     28  C   UNL     1      -0.966  11.408  23.309  0.00  0.00    +0.000 C 
ATOM     29  C   UNL     1      -1.348  12.731  22.657  0.00  0.00    +0.000 C 
ATOM     30  C   UNL     1      -2.422  11.817  23.129  0.00  0.00    +0.000 C 
ENDBRANCH   4  28
TORSDOF 6
ENDMDL
MODEL 5
REMARK VINA RESULT:      -7.0      4.447      6.537
REMARK  Name = 
REMARK  8 active torsions:
REMARK  status: ('A' for Active; 'I' for Inactive)
REMARK    1  A    between atoms: C_1  and  O_2
REMARK    2  A    between atoms: O_2  and  C_3
REMARK    3  A    between atoms: C_7  and  C_8
REMARK    4  A    between atoms: C_11  and  C_12
REMARK    5  A    between atoms: C_15  and  C_16
REMARK    6  A    between atoms: N_18  and  C_19
REMARK    7  A    between atoms: N_18  and  C_20
REMARK    8  A    between atoms: C_23  and  C_24
REMARK                            x       y       z     vdW  Elec       q    Type
REMARK                         _______ _______ _______ _____ _____    ______ ____
ROOT
ATOM      1  C   UNL     1       0.420   9.223  20.960  0.00  0.00    +0.000 A 
ATOM      2  N   UNL     1      -0.299   8.453  21.790  0.00  0.00    +0.000 NA
ATOM      3  O   UNL     1      -0.890   9.295  22.682  0.00  0.00    +0.000 OA
ATOM      4  C   UNL     1      -0.579  10.586  22.393  0.00  0.00    +0.000 A 
ATOM      5  C   UNL     1       0.193  10.618  21.240  0.00  0.00    +0.000 A 
ENDROOT
BRANCH   1  10
ATOM      6  C   UNL     1       2.804   6.822  19.306  0.00  0.00    +0.000 A 
ATOM      7  C   UNL     1       2.981   7.448  18.072  0.00  0.00    +0.000 A 
ATOM      8  C   UNL     1       2.275   8.606  17.756  0.00  0.00    +0.000 A 
ATOM      9  C   UNL     1       1.426   9.173  18.701  0.00  0.00    +0.000 A 
ATOM     10  C   UNL     1       1.266   8.577  19.960  0.00  0.00    +0.000 A 
ATOM     11  C   UNL     1       1.925   7.369  20.238  0.00  0.00    +0.000 A 
BRANCH   6  13
ATOM     12  C   UNL     1       4.673   5.532  18.611  0.00  0.00    +0.000 C 
ATOM     13  O   UNL     1       3.601   5.730  19.523  0.00  0.00    +0.000 OA
ENDBRANCH   6  13
ENDBRANCH   1  10
BRANCH   5  14
ATOM     14  C   UNL     1       0.710  11.811  20.562  0.00  0.00    +0.000 C 
ATOM     15  O   UNL     1       1.708  12.373  21.018  0.00  0.00    +0.000 OA
ATOM     16  N   UNL     1       0.126  12.237  19.349  0.00  0.00    +0.000 N 
ATOM     17  C   UNL     1       0.909  13.141  18.491  0.00  0.00    +0.000 C 
BRANCH  16  18
ATOM     18  C   UNL     1      -1.245  12.057  18.958  0.00  0.00    +0.000 A 
ATOM     19  C   UNL     1      -1.623  11.100  18.019  0.00  0.00    +0.000 A 
ATOM     20  C   UNL     1      -2.971  10.852  17.761  0.00  0.00    +0.000 A 
ATOM     21  C   UNL     1      -3.950  11.548  18.467  0.00  0.00    +0.000 A 
ATOM     22  N   UNL     1      -3.615  12.518  19.363  0.00  0.00    +0.000 NA
ATOM     23  C   UNL     1      -2.294  12.750  19.576  0.00  0.00    +0.000 A 
BRANCH  21  24
ATOM     24  C   UNL     1      -5.414  11.164  18.291  0.00  0.00    +0.000 C 
ATOM     25  F   UNL     1      -5.873  11.381  17.021  0.00  0.00    +0.000 F 
ATOM     26  F   UNL     1      -5.646   9.841  18.531  0.00  0.00    +0.000 F 
ATOM     27  F   UNL     1      -6.263  11.854  19.105  0.00  0.00    +0.000 F 
ENDBRANCH  21  24
ENDBRANCH  16  18
ENDBRANCH   5  14
BRANCH   4  28
ATOM     28  C   UNL     1      -1.079  11.718  23.280  0.00  0.00    +0.000 C 
ATOM     29  C   UNL     1      -1.801  12.862  22.580  0.00  0.00    +0.000 C 
ATOM     30  C   UNL     1      -2.589  11.887  23.380  0.00  0.00    +0.000 C 
ENDBRANCH   4  28
TORSDOF 6
ENDMDL
MODEL 6
REMARK VINA RESULT:      -6.9      4.113      6.161
REMARK  Name = 
REMARK  8 active torsions:
REMARK  status: ('A' for Active; 'I' for Inactive)
REMARK    1  A    between atoms: C_1  and  O_2
REMARK    2  A    between atoms: O_2  and  C_3
REMARK    3  A    between atoms: C_7  and  C_8
REMARK    4  A    between atoms: C_11  and  C_12
REMARK    5  A    between atoms: C_15  and  C_16
REMARK    6  A    between atoms: N_18  and  C_19
REMARK    7  A    between atoms: N_18  and  C_20
REMARK    8  A    between atoms: C_23  and  C_24
REMARK                            x       y       z     vdW  Elec       q    Type
REMARK                         _______ _______ _______ _____ _____    ______ ____
ROOT
ATOM      1  C   UNL     1       0.019   9.805  21.112  0.00  0.00    +0.000 A 
ATOM      2  N   UNL     1      -0.514   9.072  22.100  0.00  0.00    +0.000 NA
ATOM      3  O   UNL     1      -1.103   9.951  22.957  0.00  0.00    +0.000 OA
ATOM      4  C   UNL     1      -0.977  11.222  22.493  0.00  0.00    +0.000 A 
ATOM      5  C   UNL     1      -0.340  11.193  21.260  0.00  0.00    +0.000 A 
ENDROOT
BRANCH   1  10
ATOM      6  C   UNL     1       2.348   7.368  19.431  0.00  0.00    +0.000 A 
ATOM      7  C   UNL     1       2.464   7.955  18.171  0.00  0.00    +0.000 A 
ATOM      8  C   UNL     1       1.735   9.097  17.849  0.00  0.00    +0.000 A 
ATOM      9  C   UNL     1       0.924   9.688  18.813  0.00  0.00    +0.000 A 
ATOM     10  C   UNL     1       0.825   9.133  20.096  0.00  0.00    +0.000 A 
ATOM     11  C   UNL     1       1.506   7.940  20.383  0.00  0.00    +0.000 A 
BRANCH   6  13
ATOM     12  C   UNL     1       2.523   5.039  19.856  0.00  0.00    +0.000 C 
ATOM     13  O   UNL     1       3.163   6.290  19.647  0.00  0.00    +0.000 OA
ENDBRANCH   6  13
ENDBRANCH   1  10
BRANCH   5  14
ATOM     14  C   UNL     1      -0.040  12.340  20.399  0.00  0.00    +0.000 C 
ATOM     15  O   UNL     1       0.919  13.063  20.677  0.00  0.00    +0.000 OA
ATOM     16  N   UNL     1      -0.783  12.542  19.216  0.00  0.00    +0.000 N 
ATOM     17  C   UNL     1      -0.203  13.412  18.180  0.00  0.00    +0.000 C 
BRANCH  16  18
ATOM     18  C   UNL     1      -2.152  12.163  18.998  0.00  0.00    +0.000 A 
ATOM     19  C   UNL     1      -2.497  11.086  18.185  0.00  0.00    +0.000 A 
ATOM     20  C   UNL     1      -3.821  10.654  18.102  0.00  0.00    +0.000 A 
ATOM     21  C   UNL     1      -4.804  11.288  18.859  0.00  0.00    +0.000 A 
ATOM     22  N   UNL     1      -4.508  12.369  19.633  0.00  0.00    +0.000 NA
ATOM     23  C   UNL     1      -3.213  12.778  19.676  0.00  0.00    +0.000 A 
BRANCH  21  24
ATOM     24  C   UNL     1      -6.216  10.715  18.881  0.00  0.00    +0.000 C 
ATOM     25  F   UNL     1      -6.237   9.348  18.883  0.00  0.00    +0.000 F 
ATOM     26  F   UNL     1      -6.919  11.083  19.992  0.00  0.00    +0.000 F 
ATOM     27  F   UNL     1      -6.974  11.087  17.811  0.00  0.00    +0.000 F 
ENDBRANCH  21  24
ENDBRANCH  16  18
ENDBRANCH   5  14
BRANCH   4  28
ATOM     28  C   UNL     1      -1.511  12.396  23.302  0.00  0.00    +0.000 C 
ATOM     29  C   UNL     1      -2.645  13.196  22.673  0.00  0.00    +0.000 C 
ATOM     30  C   UNL     1      -2.943  12.280  23.806  0.00  0.00    +0.000 C 
ENDBRANCH   4  28
TORSDOF 6
ENDMDL
MODEL 7
REMARK VINA RESULT:      -6.8      4.577      6.833
REMARK  Name = 
REMARK  8 active torsions:
REMARK  status: ('A' for Active; 'I' for Inactive)
REMARK    1  A    between atoms: C_1  and  O_2
REMARK    2  A    between atoms: O_2  and  C_3
REMARK    3  A    between atoms: C_7  and  C_8
REMARK    4  A    between atoms: C_11  and  C_12
REMARK    5  A    between atoms: C_15  and  C_16
REMARK    6  A    between atoms: N_18  and  C_19
REMARK    7  A    between atoms: N_18  and  C_20
REMARK    8  A    between atoms: C_23  and  C_24
REMARK                            x       y       z     vdW  Elec       q    Type
REMARK                         _______ _______ _______ _____ _____    ______ ____
ROOT
ATOM      1  C   UNL     1       0.347   8.835  21.408  0.00  0.00    +0.000 A 
ATOM      2  N   UNL     1      -0.588   8.309  22.211  0.00  0.00    +0.000 NA
ATOM      3  O   UNL     1      -1.171   9.355  22.860  0.00  0.00    +0.000 OA
ATOM      4  C   UNL     1      -0.636  10.531  22.440  0.00  0.00    +0.000 A 
ATOM      5  C   UNL     1       0.289  10.275  21.438  0.00  0.00    +0.000 A 
ENDROOT
BRANCH   1  10
ATOM      6  C   UNL     1       2.682   7.472  18.786  0.00  0.00    +0.000 A 
ATOM      7  C   UNL     1       2.777   6.142  19.197  0.00  0.00    +0.000 A 
ATOM      8  C   UNL     1       2.142   5.710  20.358  0.00  0.00    +0.000 A 
ATOM      9  C   UNL     1       1.360   6.602  21.085  0.00  0.00    +0.000 A 
ATOM     10  C   UNL     1       1.223   7.932  20.666  0.00  0.00    +0.000 A 
ATOM     11  C   UNL     1       1.930   8.373  19.536  0.00  0.00    +0.000 A 
BRANCH   6  13
ATOM     12  C   UNL     1       4.390   6.928  17.228  0.00  0.00    +0.000 C 
ATOM     13  O   UNL     1       3.296   7.757  17.596  0.00  0.00    +0.000 OA
ENDBRANCH   6  13
ENDBRANCH   1  10
BRANCH   5  14
ATOM     14  C   UNL     1       1.067  11.265  20.687  0.00  0.00    +0.000 C 
ATOM     15  O   UNL     1       1.935  11.915  21.274  0.00  0.00    +0.000 OA
ATOM     16  N   UNL     1       0.887  11.387  19.292  0.00  0.00    +0.000 N 
ATOM     17  C   UNL     1       1.948  12.052  18.518  0.00  0.00    +0.000 C 
BRANCH  16  18
ATOM     18  C   UNL     1      -0.326  11.126  18.568  0.00  0.00    +0.000 A 
ATOM     19  C   UNL     1      -1.369  12.048  18.522  0.00  0.00    +0.000 A 
ATOM     20  C   UNL     1      -2.475  11.829  17.700  0.00  0.00    +0.000 A 
ATOM     21  C   UNL     1      -2.526  10.691  16.897  0.00  0.00    +0.000 A 
ATOM     22  N   UNL     1      -1.542   9.751  16.948  0.00  0.00    +0.000 NA
ATOM     23  C   UNL     1      -0.489   9.983  17.774  0.00  0.00    +0.000 A 
BRANCH  21  24
ATOM     24  C   UNL     1      -3.660  10.536  15.892  0.00  0.00    +0.000 C 
ATOM     25  F   UNL     1      -3.446  11.232  14.734  0.00  0.00    +0.000 F 
ATOM     26  F   UNL     1      -3.845   9.241  15.499  0.00  0.00    +0.000 F 
ATOM     27  F   UNL     1      -4.866  10.969  16.356  0.00  0.00    +0.000 F 
ENDBRANCH  21  24
ENDBRANCH  16  18
ENDBRANCH   5  14
BRANCH   4  28
ATOM     28  C   UNL     1      -1.087  11.848  23.056  0.00  0.00    +0.000 C 
ATOM     29  C   UNL     1      -1.988  12.728  22.199  0.00  0.00    +0.000 C 
ATOM     30  C   UNL     1      -2.575  11.989  23.349  0.00  0.00    +0.000 C 
ENDBRANCH   4  28
TORSDOF 6
ENDMDL
MODEL 8
REMARK VINA RESULT:      -6.8      4.710      6.791
REMARK  Name = 
REMARK  8 active torsions:
REMARK  status: ('A' for Active; 'I' for Inactive)
REMARK    1  A    between atoms: C_1  and  O_2
REMARK    2  A    between atoms: O_2  and  C_3
REMARK    3  A    between atoms: C_7  and  C_8
REMARK    4  A    between atoms: C_11  and  C_12
REMARK    5  A    between atoms: C_15  and  C_16
REMARK    6  A    between atoms: N_18  and  C_19
REMARK    7  A    between atoms: N_18  and  C_20
REMARK    8  A    between atoms: C_23  and  C_24
REMARK                            x       y       z     vdW  Elec       q    Type
REMARK                         _______ _______ _______ _____ _____    ______ ____
ROOT
ATOM      1  C   UNL     1       0.605   9.403  21.220  0.00  0.00    +0.000 A 
ATOM      2  N   UNL     1       0.854   9.613  22.520  0.00  0.00    +0.000 NA
ATOM      3  O   UNL     1       0.165  10.734  22.869  0.00  0.00    +0.000 OA
ATOM      4  C   UNL     1      -0.544  11.204  21.809  0.00  0.00    +0.000 A 
ATOM      5  C   UNL     1      -0.375  10.342  20.734  0.00  0.00    +0.000 A 
ENDROOT
BRANCH   1  10
ATOM      6  C   UNL     1       2.575   7.490  18.642  0.00  0.00    +0.000 A 
ATOM      7  C   UNL     1       2.532   6.208  19.190  0.00  0.00    +0.000 A 
ATOM      8  C   UNL     1       1.925   5.981  20.422  0.00  0.00    +0.000 A 
ATOM      9  C   UNL     1       1.310   7.036  21.089  0.00  0.00    +0.000 A 
ATOM     10  C   UNL     1       1.312   8.324  20.536  0.00  0.00    +0.000 A 
ATOM     11  C   UNL     1       1.992   8.553  19.329  0.00  0.00    +0.000 A 
BRANCH   6  13
ATOM     12  C   UNL     1       4.372   6.889  17.211  0.00  0.00    +0.000 C 
ATOM     13  O   UNL     1       3.140   7.573  17.398  0.00  0.00    +0.000 OA
ENDBRANCH   6  13
ENDBRANCH   1  10
BRANCH   5  14
ATOM     14  C   UNL     1      -0.993  10.457  19.410  0.00  0.00    +0.000 C 
ATOM     15  O   UNL     1      -1.736   9.554  19.016  0.00  0.00    +0.000 OA
ATOM     16  N   UNL     1      -0.814  11.634  18.652  0.00  0.00    +0.000 N 
ATOM     17  C   UNL     1      -1.765  11.898  17.560  0.00  0.00    +0.000 C 
BRANCH  16  18
ATOM     18  C   UNL     1       0.330  12.502  18.690  0.00  0.00    +0.000 A 
ATOM     19  C   UNL     1       1.618  12.032  18.445  0.00  0.00    +0.000 A 
ATOM     20  C   UNL     1       2.691  12.919  18.351  0.00  0.00    +0.000 A 
ATOM     21  C   UNL     1       2.470  14.288  18.478  0.00  0.00    +0.000 A 
ATOM     22  N   UNL     1       1.231  14.777  18.759  0.00  0.00    +0.000 NA
ATOM     23  C   UNL     1       0.211  13.887  18.865  0.00  0.00    +0.000 A 
BRANCH  21  24
ATOM     24  C   UNL     1       3.618  15.258  18.223  0.00  0.00    +0.000 C 
ATOM     25  F   UNL     1       3.257  16.318  17.438  0.00  0.00    +0.000 F 
ATOM     26  F   UNL     1       4.104  15.816  19.371  0.00  0.00    +0.000 F 
ATOM     27  F   UNL     1       4.686  14.690  17.595  0.00  0.00    +0.000 F 
ENDBRANCH  21  24
ENDBRANCH  16  18
ENDBRANCH   5  14
BRANCH   4  28
ATOM     28  C   UNL     1      -1.360  12.483  21.930  0.00  0.00    +0.000 C 
ATOM     29  C   UNL     1      -2.585  12.426  22.834  0.00  0.00    +0.000 C 
ATOM     30  C   UNL     1      -1.373  13.154  23.297  0.00  0.00    +0.000 C 
ENDBRANCH   4  28
TORSDOF 6
ENDMDL
MODEL 9
REMARK VINA RESULT:      -6.7      3.534      6.692
REMARK  Name = 
REMARK  8 active torsions:
REMARK  status: ('A' for Active; 'I' for Inactive)
REMARK    1  A    between atoms: C_1  and  O_2
REMARK    2  A    between atoms: O_2  and  C_3
REMARK    3  A    between atoms: C_7  and  C_8
REMARK    4  A    between atoms: C_11  and  C_12
REMARK    5  A    between atoms: C_15  and  C_16
REMARK    6  A    between atoms: N_18  and  C_19
REMARK    7  A    between atoms: N_18  and  C_20
REMARK    8  A    between atoms: C_23  and  C_24
REMARK                            x       y       z     vdW  Elec       q    Type
REMARK                         _______ _______ _______ _____ _____    ______ ____
ROOT
ATOM      1  C   UNL     1      -1.002  11.588  22.405  0.00  0.00    +0.000 A 
ATOM      2  N   UNL     1      -1.430  10.623  23.232  0.00  0.00    +0.000 NA
ATOM      3  O   UNL     1      -0.570   9.578  23.081  0.00  0.00    +0.000 OA
ATOM      4  C   UNL     1       0.413   9.895  22.198  0.00  0.00    +0.000 A 
ATOM      5  C   UNL     1       0.245  11.211  21.789  0.00  0.00    +0.000 A 
ENDROOT
BRANCH   1  10
ATOM      6  C   UNL     1      -3.895  13.899  21.716  0.00  0.00    +0.000 A 
ATOM      7  C   UNL     1      -3.273  15.138  21.870  0.00  0.00    +0.000 A 
ATOM      8  C   UNL     1      -1.940  15.220  22.263  0.00  0.00    +0.000 A 
ATOM      9  C   UNL     1      -1.207  14.052  22.451  0.00  0.00    +0.000 A 
ATOM     10  C   UNL     1      -1.806  12.799  22.265  0.00  0.00    +0.000 A 
ATOM     11  C   UNL     1      -3.170  12.730  21.942  0.00  0.00    +0.000 A 
BRANCH   6  13
ATOM     12  C   UNL     1      -5.767  12.717  20.856  0.00  0.00    +0.000 C 
ATOM     13  O   UNL     1      -5.186  13.949  21.264  0.00  0.00    +0.000 OA
ENDBRANCH   6  13
ENDBRANCH   1  10
BRANCH   5  14
ATOM     14  C   UNL     1       1.107  11.962  20.871  0.00  0.00    +0.000 C 
ATOM     15  O   UNL     1       1.991  12.684  21.336  0.00  0.00    +0.000 OA
ATOM     16  N   UNL     1       0.982  11.771  19.478  0.00  0.00    +0.000 N 
ATOM     17  C   UNL     1       2.107  12.186  18.624  0.00  0.00    +0.000 C 
BRANCH  16  18
ATOM     18  C   UNL     1      -0.219  11.413  18.775  0.00  0.00    +0.000 A 
ATOM     19  C   UNL     1      -1.302  12.284  18.677  0.00  0.00    +0.000 A 
ATOM     20  C   UNL     1      -2.397  11.967  17.874  0.00  0.00    +0.000 A 
ATOM     21  C   UNL     1      -2.399  10.781  17.142  0.00  0.00    +0.000 A 
ATOM     22  N   UNL     1      -1.376   9.889  17.247  0.00  0.00    +0.000 NA
ATOM     23  C   UNL     1      -0.333  10.217  18.053  0.00  0.00    +0.000 A 
BRANCH  21  24
ATOM     24  C   UNL     1      -3.527  10.515  16.152  0.00  0.00    +0.000 C 
ATOM     25  F   UNL     1      -3.518   9.237  15.665  0.00  0.00    +0.000 F 
ATOM     26  F   UNL     1      -4.765  10.674  16.706  0.00  0.00    +0.000 F 
ATOM     27  F   UNL     1      -3.494  11.322  15.055  0.00  0.00    +0.000 F 
ENDBRANCH  21  24
ENDBRANCH  16  18
ENDBRANCH   5  14
BRANCH   4  28
ATOM     28  C   UNL     1       1.472   8.870  21.820  0.00  0.00    +0.000 C 
ATOM     29  C   UNL     1       0.967   7.511  21.351  0.00  0.00    +0.000 C 
ATOM     30  C   UNL     1       1.531   8.461  20.354  0.00  0.00    +0.000 C 
ENDBRANCH   4  28
TORSDOF 6
ENDMDL
