MODEL 1
REMARK VINA RESULT:      -8.3      0.000      0.000
REMARK  Name = 
REMARK  6 active torsions:
REMARK  status: ('A' for Active; 'I' for Inactive)
REMARK    1  A    between atoms: C_1  and  C_2
REMARK    2  A    between atoms: C_11  and  C_13
REMARK    3  A    between atoms: C_13  and  N_14
REMARK    4  A    between atoms: C_18  and  C_19
REMARK    5  A    between atoms: C_19  and  O_20
REMARK    6  A    between atoms: O_20  and  C_21
REMARK                            x       y       z     vdW  Elec       q    Type
REMARK                         _______ _______ _______ _____ _____    ______ ____
ROOT
ATOM      1  N   UNL     1       6.758   5.553  16.641  0.00  0.00    +0.000 NA
ATOM      2  C   UNL     1       7.506   4.753  17.647  0.00  0.00    +0.000 C 
ATOM      3  C   UNL     1       7.607   5.430  19.028  0.00  0.00    +0.000 C 
ATOM      4  O   UNL     1       8.201   6.725  18.925  0.00  0.00    +0.000 OA
ATOM      5  C   UNL     1       7.456   7.573  18.024  0.00  0.00    +0.000 C 
ATOM      6  C   UNL     1       7.341   6.907  16.637  0.00  0.00    +0.000 C 
ENDROOT
BRANCH   1   7
ATOM      7  C   UNL     1       5.309   5.465  16.938  0.00  0.00    +0.000 C 
BRANCH   7  18
ATOM      8  C   UNL     1       3.827   1.360  18.198  0.00  0.00    +0.000 C 
ATOM      9  C   UNL     1       2.917   2.533  17.819  0.00  0.00    +0.000 C 
ATOM     10  C   UNL     1       1.739   2.629  18.806  0.00  0.00    +0.000 C 
ATOM     11  C   UNL     1       1.898   4.006  19.362  0.00  0.00    +0.000 A 
ATOM     12  C   UNL     1       1.096   4.580  20.343  0.00  0.00    +0.000 A 
ATOM     13  C   UNL     1       1.346   5.892  20.727  0.00  0.00    +0.000 A 
ATOM     14  C   UNL     1       2.366   6.613  20.105  0.00  0.00    +0.000 A 
ATOM     15  C   UNL     1       3.153   6.028  19.104  0.00  0.00    +0.000 A 
ATOM     16  C   UNL     1       2.945   4.701  18.752  0.00  0.00    +0.000 A 
ATOM     17  N   UNL     1       3.604   3.853  17.825  0.00  0.00    +0.000 N 
ATOM     18  C   UNL     1       4.647   4.088  16.927  0.00  0.00    +0.000 C 
ATOM     19  O   UNL     1       4.958   3.224  16.100  0.00  0.00    +0.000 OA
ENDBRANCH   7  18
ENDBRANCH   1   7
BRANCH   5  20
ATOM     20  C   UNL     1       8.208   8.899  17.862  0.00  0.00    +0.000 C 
BRANCH  20  21
ATOM     21  O   UNL     1       8.973   9.181  19.039  0.00  0.00    +0.000 OA
BRANCH  21  22
ATOM     22  C   UNL     1       9.284  10.527  19.137  0.00  0.00    +0.000 A 
ATOM     23  C   UNL     1       9.151  11.278  17.982  0.00  0.00    +0.000 A 
ATOM     24  C   UNL     1       9.476  12.631  18.040  0.00  0.00    +0.000 A 
ATOM     25  C   UNL     1       9.913  13.177  19.243  0.00  0.00    +0.000 A 
ATOM     26  C   UNL     1      10.006  12.345  20.343  0.00  0.00    +0.000 A 
ATOM     27  N   UNL     1       9.704  11.031  20.317  0.00  0.00    +0.000 NA
ENDBRANCH  21  22
ENDBRANCH  20  21
ENDBRANCH   5  20
TORSDOF 5
ENDMDL
MODEL 2
REMARK VINA RESULT:      -7.8      4.208      6.891
REMARK  Name = 
REMARK  6 active torsions:
REMARK  status: ('A' for Active; 'I' for Inactive)
REMARK    1  A    between atoms: C_1  and  C_2
REMARK    2  A    between atoms: C_11  and  C_13
REMARK    3  A    between atoms: C_13  and  N_14
REMARK    4  A    between atoms: C_18  and  C_19
REMARK    5  A    between atoms: C_19  and  O_20
REMARK    6  A    between atoms: O_20  and  C_21
REMARK                            x       y       z     vdW  Elec       q    Type
REMARK                         _______ _______ _______ _____ _____    ______ ____
ROOT
ATOM      1  N   UNL     1       2.697   6.389  18.240  0.00  0.00    +0.000 NA
ATOM      2  C   UNL     1       3.064   5.295  19.178  0.00  0.00    +0.000 C 
ATOM      3  C   UNL     1       4.516   5.377  19.689  0.00  0.00    +0.000 C 
ATOM      4  O   UNL     1       5.445   5.394  18.604  0.00  0.00    +0.000 OA
ATOM      5  C   UNL     1       5.184   6.498  17.710  0.00  0.00    +0.000 C 
ATOM      6  C   UNL     1       3.733   6.434  17.192  0.00  0.00    +0.000 C 
ENDROOT
BRANCH   1   7
ATOM      7  C   UNL     1       2.495   7.637  19.014  0.00  0.00    +0.000 C 
BRANCH   7  18
ATOM      8  C   UNL     1      -0.975  10.187  17.570  0.00  0.00    +0.000 C 
ATOM      9  C   UNL     1       0.044  10.626  18.626  0.00  0.00    +0.000 C 
ATOM     10  C   UNL     1      -0.673  11.330  19.792  0.00  0.00    +0.000 C 
ATOM     11  C   UNL     1      -0.285  10.486  20.962  0.00  0.00    +0.000 A 
ATOM     12  C   UNL     1      -0.712  10.675  22.273  0.00  0.00    +0.000 A 
ATOM     13  C   UNL     1      -0.227   9.826  23.262  0.00  0.00    +0.000 A 
ATOM     14  C   UNL     1       0.694   8.832  22.931  0.00  0.00    +0.000 A 
ATOM     15  C   UNL     1       1.131   8.667  21.610  0.00  0.00    +0.000 A 
ATOM     16  C   UNL     1       0.611   9.475  20.607  0.00  0.00    +0.000 A 
ATOM     17  N   UNL     1       0.830   9.504  19.205  0.00  0.00    +0.000 N 
ATOM     18  C   UNL     1       1.677   8.762  18.380  0.00  0.00    +0.000 C 
ATOM     19  O   UNL     1       1.811   9.071  17.192  0.00  0.00    +0.000 OA
ENDBRANCH   7  18
ENDBRANCH   1   7
BRANCH   5  20
ATOM     20  C   UNL     1       6.130   6.391  16.509  0.00  0.00    +0.000 C 
BRANCH  20  21
ATOM     21  O   UNL     1       6.479   5.023  16.272  0.00  0.00    +0.000 OA
BRANCH  21  22
ATOM     22  C   UNL     1       6.668   4.768  14.924  0.00  0.00    +0.000 A 
ATOM     23  C   UNL     1       5.810   3.851  14.342  0.00  0.00    +0.000 A 
ATOM     24  C   UNL     1       5.986   3.556  12.992  0.00  0.00    +0.000 A 
ATOM     25  C   UNL     1       7.003   4.188  12.282  0.00  0.00    +0.000 A 
ATOM     26  C   UNL     1       7.804   5.094  12.952  0.00  0.00    +0.000 A 
ATOM     27  N   UNL     1       7.661   5.397  14.259  0.00  0.00    +0.000 NA
ENDBRANCH  21  22
ENDBRANCH  20  21
ENDBRANCH   5  20
TORSDOF 5
ENDMDL
MODEL 3
REMARK VINA RESULT:      -7.8      4.194      6.860
REMARK  Name = 
REMARK  6 active torsions:
REMARK  status: ('A' for Active; 'I' for Inactive)
REMARK    1  A    between atoms: C_1  and  C_2
REMARK    2  A    between atoms: C_11  and  C_13
REMARK    3  A    between atoms: C_13  and  N_14
REMARK    4  A    between atoms: C_18  and  C_19
REMARK    5  A    between atoms: C_19  and  O_20
REMARK    6  A    between atoms: O_20  and  C_21
REMARK                            x       y       z     vdW  Elec       q    Type
REMARK                         _______ _______ _______ _____ _____    ______ ____
ROOT
ATOM      1  N   UNL     1       2.674   6.615  18.138  0.00  0.00    +0.000 NA
ATOM      2  C   UNL     1       2.050   5.365  18.647  0.00  0.00    +0.000 C 
ATOM      3  C   UNL     1       2.728   4.803  19.911  0.00  0.00    +0.000 C 
ATOM      4  O   UNL     1       4.122   4.575  19.692  0.00  0.00    +0.000 OA
ATOM      5  C   UNL     1       4.791   5.787  19.281  0.00  0.00    +0.000 C 
ATOM      6  C   UNL     1       4.121   6.366  18.018  0.00  0.00    +0.000 C 
ENDROOT
BRANCH   1   7
ATOM      7  C   UNL     1       2.273   7.742  19.014  0.00  0.00    +0.000 C 
BRANCH   7  18
ATOM      8  C   UNL     1      -1.111  10.427  17.613  0.00  0.00    +0.000 C 
ATOM      9  C   UNL     1      -0.074  10.818  18.671  0.00  0.00    +0.000 C 
ATOM     10  C   UNL     1      -0.762  11.532  19.849  0.00  0.00    +0.000 C 
ATOM     11  C   UNL     1      -0.400  10.660  21.007  0.00  0.00    +0.000 A 
ATOM     12  C   UNL     1      -0.816  10.847  22.321  0.00  0.00    +0.000 A 
ATOM     13  C   UNL     1      -0.357   9.971  23.298  0.00  0.00    +0.000 A 
ATOM     14  C   UNL     1       0.528   8.950  22.952  0.00  0.00    +0.000 A 
ATOM     15  C   UNL     1       0.954   8.785  21.627  0.00  0.00    +0.000 A 
ATOM     16  C   UNL     1       0.459   9.624  20.636  0.00  0.00    +0.000 A 
ATOM     17  N   UNL     1       0.675   9.662  19.234  0.00  0.00    +0.000 N 
ATOM     18  C   UNL     1       1.493   8.902  18.397  0.00  0.00    +0.000 C 
ATOM     19  O   UNL     1       1.634   9.221  17.212  0.00  0.00    +0.000 OA
ENDBRANCH   7  18
ENDBRANCH   1   7
BRANCH   5  20
ATOM     20  C   UNL     1       6.249   5.453  18.945  0.00  0.00    +0.000 C 
BRANCH  20  21
ATOM     21  O   UNL     1       6.327   4.184  18.285  0.00  0.00    +0.000 OA
BRANCH  21  22
ATOM     22  C   UNL     1       6.416   4.326  16.911  0.00  0.00    +0.000 A 
ATOM     23  C   UNL     1       5.394   3.764  16.165  0.00  0.00    +0.000 A 
ATOM     24  C   UNL     1       5.462   3.869  14.777  0.00  0.00    +0.000 A 
ATOM     25  C   UNL     1       6.538   4.532  14.196  0.00  0.00    +0.000 A 
ATOM     26  C   UNL     1       7.505   5.065  15.027  0.00  0.00    +0.000 A 
ATOM     27  N   UNL     1       7.470   4.975  16.373  0.00  0.00    +0.000 NA
ENDBRANCH  21  22
ENDBRANCH  20  21
ENDBRANCH   5  20
TORSDOF 5
ENDMDL
MODEL 4
REMARK VINA RESULT:      -7.6      5.563      8.385
REMARK  Name = 
REMARK  6 active torsions:
REMARK  status: ('A' for Active; 'I' for Inactive)
REMARK    1  A    between atoms: C_1  and  C_2
REMARK    2  A    between atoms: C_11  and  C_13
REMARK    3  A    between atoms: C_13  and  N_14
REMARK    4  A    between atoms: C_18  and  C_19
REMARK    5  A    between atoms: C_19  and  O_20
REMARK    6  A    between atoms: O_20  and  C_21
REMARK                            x       y       z     vdW  Elec       q    Type
REMARK                         _______ _______ _______ _____ _____    ______ ____
ROOT
ATOM      1  N   UNL     1       1.712   9.213  20.768  0.00  0.00    +0.000 NA
ATOM      2  C   UNL     1       1.439   9.069  22.222  0.00  0.00    +0.000 C 
ATOM      3  C   UNL     1      -0.060   8.990  22.569  0.00  0.00    +0.000 C 
ATOM      4  O   UNL     1      -0.765  10.130  22.073  0.00  0.00    +0.000 OA
ATOM      5  C   UNL     1      -0.604  10.262  20.643  0.00  0.00    +0.000 C 
ATOM      6  C   UNL     1       0.893  10.337  20.279  0.00  0.00    +0.000 C 
ENDROOT
BRANCH   1   7
ATOM      7  C   UNL     1       1.491   7.905  20.106  0.00  0.00    +0.000 C 
BRANCH   7  18
ATOM      8  C   UNL     1       4.930   6.345  17.582  0.00  0.00    +0.000 C 
ATOM      9  C   UNL     1       3.503   5.789  17.544  0.00  0.00    +0.000 C 
ATOM     10  C   UNL     1       3.536   4.250  17.512  0.00  0.00    +0.000 C 
ATOM     11  C   UNL     1       2.761   3.887  18.737  0.00  0.00    +0.000 A 
ATOM     12  C   UNL     1       2.530   2.593  19.194  0.00  0.00    +0.000 A 
ATOM     13  C   UNL     1       1.752   2.417  20.333  0.00  0.00    +0.000 A 
ATOM     14  C   UNL     1       1.195   3.527  20.970  0.00  0.00    +0.000 A 
ATOM     15  C   UNL     1       1.420   4.822  20.486  0.00  0.00    +0.000 A 
ATOM     16  C   UNL     1       2.240   5.011  19.381  0.00  0.00    +0.000 A 
ATOM     17  N   UNL     1       2.672   6.186  18.712  0.00  0.00    +0.000 N 
ATOM     18  C   UNL     1       2.374   7.535  18.915  0.00  0.00    +0.000 C 
ATOM     19  O   UNL     1       2.754   8.382  18.100  0.00  0.00    +0.000 OA
ENDBRANCH   7  18
ENDBRANCH   1   7
BRANCH   5  20
ATOM     20  C   UNL     1      -1.277  11.564  20.192  0.00  0.00    +0.000 C 
BRANCH  20  21
ATOM     21  O   UNL     1      -1.089  11.756  18.785  0.00  0.00    +0.000 OA
BRANCH  21  22
ATOM     22  C   UNL     1      -2.242  11.477  18.071  0.00  0.00    +0.000 A 
ATOM     23  C   UNL     1      -2.077  10.814  16.867  0.00  0.00    +0.000 A 
ATOM     24  C   UNL     1      -3.215  10.535  16.112  0.00  0.00    +0.000 A 
ATOM     25  C   UNL     1      -4.463  10.923  16.591  0.00  0.00    +0.000 A 
ATOM     26  C   UNL     1      -4.523  11.574  17.809  0.00  0.00    +0.000 A 
ATOM     27  N   UNL     1      -3.440  11.862  18.560  0.00  0.00    +0.000 NA
ENDBRANCH  21  22
ENDBRANCH  20  21
ENDBRANCH   5  20
TORSDOF 5
ENDMDL
MODEL 5
REMARK VINA RESULT:      -7.5      3.565      6.348
REMARK  Name = 
REMARK  6 active torsions:
REMARK  status: ('A' for Active; 'I' for Inactive)
REMARK    1  A    between atoms: C_1  and  C_2
REMARK    2  A    between atoms: C_11  and  C_13
REMARK    3  A    between atoms: C_13  and  N_14
REMARK    4  A    between atoms: C_18  and  C_19
REMARK    5  A    between atoms: C_19  and  O_20
REMARK    6  A    between atoms: O_20  and  C_21
REMARK                            x       y       z     vdW  Elec       q    Type
REMARK                         _______ _______ _______ _____ _____    ______ ____
ROOT
ATOM      1  N   UNL     1       1.774   6.072  18.819  0.00  0.00    +0.000 NA
ATOM      2  C   UNL     1       1.378   5.356  20.060  0.00  0.00    +0.000 C 
ATOM      3  C   UNL     1       2.571   4.850  20.894  0.00  0.00    +0.000 C 
ATOM      4  O   UNL     1       3.420   4.003  20.117  0.00  0.00    +0.000 OA
ATOM      5  C   UNL     1       3.906   4.687  18.941  0.00  0.00    +0.000 C 
ATOM      6  C   UNL     1       2.723   5.205  18.097  0.00  0.00    +0.000 C 
ENDROOT
BRANCH   1   7
ATOM      7  C   UNL     1       2.266   7.423  19.180  0.00  0.00    +0.000 C 
BRANCH   7  18
ATOM      8  C   UNL     1      -0.750  10.378  17.509  0.00  0.00    +0.000 C 
ATOM      9  C   UNL     1       0.256  10.699  18.619  0.00  0.00    +0.000 C 
ATOM     10  C   UNL     1      -0.428  11.510  19.735  0.00  0.00    +0.000 C 
ATOM     11  C   UNL     1      -0.222  10.643  20.933  0.00  0.00    +0.000 A 
ATOM     12  C   UNL     1      -0.695  10.908  22.215  0.00  0.00    +0.000 A 
ATOM     13  C   UNL     1      -0.383  10.020  23.239  0.00  0.00    +0.000 A 
ATOM     14  C   UNL     1       0.417   8.909  22.972  0.00  0.00    +0.000 A 
ATOM     15  C   UNL     1       0.903   8.666  21.680  0.00  0.00    +0.000 A 
ATOM     16  C   UNL     1       0.552   9.518  20.641  0.00  0.00    +0.000 A 
ATOM     17  N   UNL     1       0.853   9.494  19.255  0.00  0.00    +0.000 N 
ATOM     18  C   UNL     1       1.641   8.634  18.488  0.00  0.00    +0.000 C 
ATOM     19  O   UNL     1       1.882   8.903  17.307  0.00  0.00    +0.000 OA
ENDBRANCH   7  18
ENDBRANCH   1   7
BRANCH   5  20
ATOM     20  C   UNL     1       4.707   3.694  18.091  0.00  0.00    +0.000 C 
BRANCH  20  21
ATOM     21  O   UNL     1       5.443   4.389  17.078  0.00  0.00    +0.000 OA
BRANCH  21  22
ATOM     22  C   UNL     1       6.358   5.272  17.625  0.00  0.00    +0.000 A 
ATOM     23  C   UNL     1       6.472   6.505  17.007  0.00  0.00    +0.000 A 
ATOM     24  C   UNL     1       7.398   7.412  17.518  0.00  0.00    +0.000 A 
ATOM     25  C   UNL     1       8.165   7.052  18.623  0.00  0.00    +0.000 A 
ATOM     26  C   UNL     1       7.973   5.799  19.174  0.00  0.00    +0.000 A 
ATOM     27  N   UNL     1       7.088   4.899  18.698  0.00  0.00    +0.000 NA
ENDBRANCH  21  22
ENDBRANCH  20  21
ENDBRANCH   5  20
TORSDOF 5
ENDMDL
MODEL 6
REMARK VINA RESULT:      -7.5      0.894      1.156
REMARK  Name = 
REMARK  6 active torsions:
REMARK  status: ('A' for Active; 'I' for Inactive)
REMARK    1  A    between atoms: C_1  and  C_2
REMARK    2  A    between atoms: C_11  and  C_13
REMARK    3  A    between atoms: C_13  and  N_14
REMARK    4  A    between atoms: C_18  and  C_19
REMARK    5  A    between atoms: C_19  and  O_20
REMARK    6  A    between atoms: O_20  and  C_21
REMARK                            x       y       z     vdW  Elec       q    Type
REMARK                         _______ _______ _______ _____ _____    ______ ____
ROOT
ATOM      1  N   UNL     1       6.403   5.993  16.181  0.00  0.00    +0.000 NA
ATOM      2  C   UNL     1       7.105   4.729  16.529  0.00  0.00    +0.000 C 
ATOM      3  C   UNL     1       7.430   4.592  18.030  0.00  0.00    +0.000 C 
ATOM      4  O   UNL     1       8.203   5.701  18.493  0.00  0.00    +0.000 OA
ATOM      5  C   UNL     1       7.519   6.951  18.258  0.00  0.00    +0.000 C 
ATOM      6  C   UNL     1       7.182   7.102  16.760  0.00  0.00    +0.000 C 
ENDROOT
BRANCH   1   7
ATOM      7  C   UNL     1       4.988   5.890  16.613  0.00  0.00    +0.000 C 
BRANCH   7  18
ATOM      8  C   UNL     1       3.646   1.752  17.918  0.00  0.00    +0.000 C 
ATOM      9  C   UNL     1       2.700   2.927  17.652  0.00  0.00    +0.000 C 
ATOM     10  C   UNL     1       1.620   2.996  18.747  0.00  0.00    +0.000 C 
ATOM     11  C   UNL     1       1.826   4.362  19.315  0.00  0.00    +0.000 A 
ATOM     12  C   UNL     1       1.117   4.911  20.380  0.00  0.00    +0.000 A 
ATOM     13  C   UNL     1       1.399   6.216  20.766  0.00  0.00    +0.000 A 
ATOM     14  C   UNL     1       2.353   6.955  20.067  0.00  0.00    +0.000 A 
ATOM     15  C   UNL     1       3.045   6.396  18.984  0.00  0.00    +0.000 A 
ATOM     16  C   UNL     1       2.808   5.075  18.625  0.00  0.00    +0.000 A 
ATOM     17  N   UNL     1       3.380   4.250  17.622  0.00  0.00    +0.000 N 
ATOM     18  C   UNL     1       4.333   4.510  16.635  0.00  0.00    +0.000 C 
ATOM     19  O   UNL     1       4.568   3.665  15.764  0.00  0.00    +0.000 OA
ENDBRANCH   7  18
ENDBRANCH   1   7
BRANCH   5  20
ATOM     20  C   UNL     1       8.446   8.103  18.662  0.00  0.00    +0.000 C 
BRANCH  20  21
ATOM     21  O   UNL     1       8.232   9.234  17.811  0.00  0.00    +0.000 OA
BRANCH  21  22
ATOM     22  C   UNL     1       8.755  10.393  18.359  0.00  0.00    +0.000 A 
ATOM     23  C   UNL     1       9.453  10.256  19.546  0.00  0.00    +0.000 A 
ATOM     24  C   UNL     1       9.976  11.405  20.135  0.00  0.00    +0.000 A 
ATOM     25  C   UNL     1       9.784  12.636  19.516  0.00  0.00    +0.000 A 
ATOM     26  C   UNL     1       9.077  12.669  18.328  0.00  0.00    +0.000 A 
ATOM     27  N   UNL     1       8.555  11.575  17.736  0.00  0.00    +0.000 NA
ENDBRANCH  21  22
ENDBRANCH  20  21
ENDBRANCH   5  20
TORSDOF 5
ENDMDL
MODEL 7
REMARK VINA RESULT:      -7.4      3.570      6.331
REMARK  Name = 
REMARK  6 active torsions:
REMARK  status: ('A' for Active; 'I' for Inactive)
REMARK    1  A    between atoms: C_1  and  C_2
REMARK    2  A    between atoms: C_11  and  C_13
REMARK    3  A    between atoms: C_13  and  N_14
REMARK    4  A    between atoms: C_18  and  C_19
REMARK    5  A    between atoms: C_19  and  O_20
REMARK    6  A    between atoms: O_20  and  C_21
REMARK                            x       y       z     vdW  Elec       q    Type
REMARK                         _______ _______ _______ _____ _____    ______ ____
ROOT
ATOM      1  N   UNL     1       1.800   6.143  18.901  0.00  0.00    +0.000 NA
ATOM      2  C   UNL     1       1.818   5.310  20.132  0.00  0.00    +0.000 C 
ATOM      3  C   UNL     1       3.231   4.873  20.566  0.00  0.00    +0.000 C 
ATOM      4  O   UNL     1       3.899   4.170  19.516  0.00  0.00    +0.000 OA
ATOM      5  C   UNL     1       3.987   4.977  18.321  0.00  0.00    +0.000 C 
ATOM      6  C   UNL     1       2.580   5.427  17.876  0.00  0.00    +0.000 C 
ENDROOT
BRANCH   1   7
ATOM      7  C   UNL     1       2.263   7.510  19.240  0.00  0.00    +0.000 C 
BRANCH   7  18
ATOM      8  C   UNL     1      -0.819  10.367  17.518  0.00  0.00    +0.000 C 
ATOM      9  C   UNL     1       0.173  10.727  18.629  0.00  0.00    +0.000 C 
ATOM     10  C   UNL     1      -0.537  11.534  19.731  0.00  0.00    +0.000 C 
ATOM     11  C   UNL     1      -0.315  10.687  20.941  0.00  0.00    +0.000 A 
ATOM     12  C   UNL     1      -0.802  10.956  22.217  0.00  0.00    +0.000 A 
ATOM     13  C   UNL     1      -0.472  10.089  23.253  0.00  0.00    +0.000 A 
ATOM     14  C   UNL     1       0.357   8.996  23.004  0.00  0.00    +0.000 A 
ATOM     15  C   UNL     1       0.856   8.749  21.718  0.00  0.00    +0.000 A 
ATOM     16  C   UNL     1       0.488   9.579  20.667  0.00  0.00    +0.000 A 
ATOM     17  N   UNL     1       0.797   9.545  19.282  0.00  0.00    +0.000 N 
ATOM     18  C   UNL     1       1.611   8.696  18.531  0.00  0.00    +0.000 C 
ATOM     19  O   UNL     1       1.851   8.956  17.347  0.00  0.00    +0.000 OA
ENDBRANCH   7  18
ENDBRANCH   1   7
BRANCH   5  20
ATOM     20  C   UNL     1       4.600   4.129  17.201  0.00  0.00    +0.000 C 
BRANCH  20  21
ATOM     21  O   UNL     1       5.396   4.949  16.338  0.00  0.00    +0.000 OA
BRANCH  21  22
ATOM     22  C   UNL     1       6.315   5.701  17.049  0.00  0.00    +0.000 A 
ATOM     23  C   UNL     1       7.013   5.043  18.047  0.00  0.00    +0.000 A 
ATOM     24  C   UNL     1       7.931   5.774  18.797  0.00  0.00    +0.000 A 
ATOM     25  C   UNL     1       8.117   7.125  18.518  0.00  0.00    +0.000 A 
ATOM     26  C   UNL     1       7.376   7.691  17.497  0.00  0.00    +0.000 A 
ATOM     27  N   UNL     1       6.476   7.010  16.757  0.00  0.00    +0.000 NA
ENDBRANCH  21  22
ENDBRANCH  20  21
ENDBRANCH   5  20
TORSDOF 5
ENDMDL
MODEL 8
REMARK VINA RESULT:      -7.3      4.377      6.957
REMARK  Name = 
REMARK  6 active torsions:
REMARK  status: ('A' for Active; 'I' for Inactive)
REMARK    1  A    between atoms: C_1  and  C_2
REMARK    2  A    between atoms: C_11  and  C_13
REMARK    3  A    between atoms: C_13  and  N_14
REMARK    4  A    between atoms: C_18  and  C_19
REMARK    5  A    between atoms: C_19  and  O_20
REMARK    6  A    between atoms: O_20  and  C_21
REMARK                            x       y       z     vdW  Elec       q    Type
REMARK                         _______ _______ _______ _____ _____    ______ ____
ROOT
ATOM      1  N   UNL     1       1.193   4.671  20.181  0.00  0.00    +0.000 NA
ATOM      2  C   UNL     1       1.282   3.648  21.257  0.00  0.00    +0.000 C 
ATOM      3  C   UNL     1       2.696   3.064  21.442  0.00  0.00    +0.000 C 
ATOM      4  O   UNL     1       3.188   2.505  20.223  0.00  0.00    +0.000 OA
ATOM      5  C   UNL     1       3.205   3.489  19.166  0.00  0.00    +0.000 C 
ATOM      6  C   UNL     1       1.798   4.088  18.970  0.00  0.00    +0.000 C 
ENDROOT
BRANCH   1   7
ATOM      7  C   UNL     1       1.795   5.935  20.670  0.00  0.00    +0.000 C 
BRANCH   7  18
ATOM      8  C   UNL     1       1.383   9.142  17.481  0.00  0.00    +0.000 C 
ATOM      9  C   UNL     1       1.894   9.393  18.904  0.00  0.00    +0.000 C 
ATOM     10  C   UNL     1       1.274  10.684  19.468  0.00  0.00    +0.000 C 
ATOM     11  C   UNL     1       0.573  10.194  20.692  0.00  0.00    +0.000 A 
ATOM     12  C   UNL     1      -0.191  10.975  21.555  0.00  0.00    +0.000 A 
ATOM     13  C   UNL     1      -0.748  10.377  22.680  0.00  0.00    +0.000 A 
ATOM     14  C   UNL     1      -0.507   9.028  22.938  0.00  0.00    +0.000 A 
ATOM     15  C   UNL     1       0.281   8.258  22.071  0.00  0.00    +0.000 A 
ATOM     16  C   UNL     1       0.797   8.834  20.917  0.00  0.00    +0.000 A 
ATOM     17  N   UNL     1       1.574   8.298  19.858  0.00  0.00    +0.000 N 
ATOM     18  C   UNL     1       2.117   7.028  19.653  0.00  0.00    +0.000 C 
ATOM     19  O   UNL     1       2.898   6.833  18.716  0.00  0.00    +0.000 OA
ENDBRANCH   7  18
ENDBRANCH   1   7
BRANCH   5  20
ATOM     20  C   UNL     1       3.624   2.802  17.861  0.00  0.00    +0.000 C 
BRANCH  20  21
ATOM     21  O   UNL     1       3.631   3.746  16.784  0.00  0.00    +0.000 OA
BRANCH  21  22
ATOM     22  C   UNL     1       4.918   4.125  16.444  0.00  0.00    +0.000 A 
ATOM     23  C   UNL     1       5.204   4.202  15.092  0.00  0.00    +0.000 A 
ATOM     24  C   UNL     1       6.495   4.561  14.714  0.00  0.00    +0.000 A 
ATOM     25  C   UNL     1       7.443   4.832  15.697  0.00  0.00    +0.000 A 
ATOM     26  C   UNL     1       7.058   4.735  17.021  0.00  0.00    +0.000 A 
ATOM     27  N   UNL     1       5.817   4.385  17.418  0.00  0.00    +0.000 NA
ENDBRANCH  21  22
ENDBRANCH  20  21
ENDBRANCH   5  20
TORSDOF 5
ENDMDL
MODEL 9
REMARK VINA RESULT:      -7.3      1.220      1.601
REMARK  Name = 
REMARK  6 active torsions:
REMARK  status: ('A' for Active; 'I' for Inactive)
REMARK    1  A    between atoms: C_1  and  C_2
REMARK    2  A    between atoms: C_11  and  C_13
REMARK    3  A    between atoms: C_13  and  N_14
REMARK    4  A    between atoms: C_18  and  C_19
REMARK    5  A    between atoms: C_19  and  O_20
REMARK    6  A    between atoms: O_20  and  C_21
REMARK                            x       y       z     vdW  Elec       q    Type
REMARK                         _______ _______ _______ _____ _____    ______ ____
ROOT
ATOM      1  N   UNL     1       6.144   4.878  16.832  0.00  0.00    +0.000 NA
ATOM      2  C   UNL     1       6.714   4.288  18.072  0.00  0.00    +0.000 C 
ATOM      3  C   UNL     1       6.729   5.256  19.271  0.00  0.00    +0.000 C 
ATOM      4  O   UNL     1       7.437   6.457  18.957  0.00  0.00    +0.000 OA
ATOM      5  C   UNL     1       6.862   7.117  17.808  0.00  0.00    +0.000 C 
ATOM      6  C   UNL     1       6.835   6.159  16.599  0.00  0.00    +0.000 C 
ENDROOT
BRANCH   1   7
ATOM      7  C   UNL     1       4.669   4.945  16.966  0.00  0.00    +0.000 C 
BRANCH   7  18
ATOM      8  C   UNL     1       3.286   2.355  20.431  0.00  0.00    +0.000 C 
ATOM      9  C   UNL     1       2.367   3.257  19.601  0.00  0.00    +0.000 C 
ATOM     10  C   UNL     1       1.391   4.010  20.524  0.00  0.00    +0.000 C 
ATOM     11  C   UNL     1       1.700   5.439  20.218  0.00  0.00    +0.000 A 
ATOM     12  C   UNL     1       1.110   6.542  20.827  0.00  0.00    +0.000 A 
ATOM     13  C   UNL     1       1.475   7.815  20.401  0.00  0.00    +0.000 A 
ATOM     14  C   UNL     1       2.392   7.960  19.360  0.00  0.00    +0.000 A 
ATOM     15  C   UNL     1       2.963   6.839  18.743  0.00  0.00    +0.000 A 
ATOM     16  C   UNL     1       2.644   5.566  19.198  0.00  0.00    +0.000 A 
ATOM     17  N   UNL     1       3.094   4.280  18.801  0.00  0.00    +0.000 N 
ATOM     18  C   UNL     1       3.965   3.869  17.791  0.00  0.00    +0.000 C 
ATOM     19  O   UNL     1       4.089   2.667  17.532  0.00  0.00    +0.000 OA
ENDBRANCH   7  18
ENDBRANCH   1   7
BRANCH   5  20
ATOM     20  C   UNL     1       7.734   8.325  17.448  0.00  0.00    +0.000 C 
BRANCH  20  21
ATOM     21  O   UNL     1       8.617   8.639  18.531  0.00  0.00    +0.000 OA
BRANCH  21  22
ATOM     22  C   UNL     1       8.876   9.997  18.603  0.00  0.00    +0.000 A 
ATOM     23  C   UNL     1       9.687  10.417  19.644  0.00  0.00    +0.000 A 
ATOM     24  C   UNL     1       9.952  11.780  19.759  0.00  0.00    +0.000 A 
ATOM     25  C   UNL     1       9.404  12.662  18.832  0.00  0.00    +0.000 A 
ATOM     26  C   UNL     1       8.612  12.143  17.825  0.00  0.00    +0.000 A 
ATOM     27  N   UNL     1       8.333  10.830  17.690  0.00  0.00    +0.000 NA
ENDBRANCH  21  22
ENDBRANCH  20  21
ENDBRANCH   5  20
TORSDOF 5
ENDMDL
