MODEL 1
REMARK VINA RESULT:      -8.2      0.000      0.000
REMARK  Name = 
REMARK  12 active torsions:
REMARK  status: ('A' for Active; 'I' for Inactive)
REMARK    1  A    between atoms: C_1  and  O_2
REMARK    2  A    between atoms: O_2  and  C_3
REMARK    3  A    between atoms: C_6  and  C_7
REMARK    4  A    between atoms: C_9  and  C_10
REMARK    5  A    between atoms: C_10  and  C_11
REMARK    6  A    between atoms: C_12  and  C_13
REMARK    7  A    between atoms: C_12  and  C_14
REMARK    8  A    between atoms: C_17  and  O_18
REMARK    9  A    between atoms: C_20  and  C_21
REMARK   10  A    between atoms: C_21  and  C_22
REMARK   11  A    between atoms: C_23  and  C_24
REMARK   12  A    between atoms: C_23  and  C_25
REMARK                            x       y       z     vdW  Elec       q    Type
REMARK                         _______ _______ _______ _____ _____    ______ ____
ROOT
ATOM      1  C   UNL     1       2.084   3.557  20.144  0.00  0.00    +0.000 A 
ATOM      2  C   UNL     1       2.729   2.521  19.466  0.00  0.00    +0.000 A 
ATOM      3  C   UNL     1       3.733   2.792  18.536  0.00  0.00    +0.000 A 
ATOM      4  C   UNL     1       4.157   4.099  18.270  0.00  0.00    +0.000 A 
ATOM      5  C   UNL     1       3.505   5.131  18.972  0.00  0.00    +0.000 A 
ATOM      6  C   UNL     1       2.484   4.886  19.918  0.00  0.00    +0.000 A 
ENDROOT
BRANCH   4   7
ATOM      7  C   UNL     1       5.234   4.372  17.282  0.00  0.00    +0.000 A 
ATOM      8  C   UNL     1       4.938   4.391  15.903  0.00  0.00    +0.000 A 
ATOM      9  C   UNL     1       5.928   4.595  14.927  0.00  0.00    +0.000 A 
ATOM     10  C   UNL     1       7.242   4.825  15.335  0.00  0.00    +0.000 A 
ATOM     11  C   UNL     1       7.572   4.813  16.682  0.00  0.00    +0.000 A 
ATOM     12  C   UNL     1       6.581   4.584  17.642  0.00  0.00    +0.000 A 
BRANCH  12  13
ATOM     13  O   UNL     1       6.956   4.580  18.961  0.00  0.00    +0.000 OA
ATOM     14  H   UNL     1       7.677   3.942  19.084  0.00  0.00    +0.000 HD
ENDBRANCH  12  13
BRANCH   9  15
ATOM     15  C   UNL     1       5.575   4.543  13.457  0.00  0.00    +0.000 C 
BRANCH  15  16
ATOM     16  C   UNL     1       6.053   3.301  12.757  0.00  0.00    +0.000 C 
ATOM     17  C   UNL     1       5.416   2.644  11.766  0.00  0.00    +0.000 C 
ATOM     18  C   UNL     1       4.086   3.043  11.180  0.00  0.00    +0.000 C 
ATOM     19  C   UNL     1       5.996   1.390  11.166  0.00  0.00    +0.000 C 
ENDBRANCH  15  16
ENDBRANCH   9  15
ENDBRANCH   4   7
BRANCH   1  21
ATOM     20  C   UNL     1       1.345   2.335  22.033  0.00  0.00    +0.000 C 
ATOM     21  O   UNL     1       1.078   3.339  21.053  0.00  0.00    +0.000 OA
ENDBRANCH   1  21
BRANCH   6  22
ATOM     22  C   UNL     1       1.876   6.068  20.648  0.00  0.00    +0.000 C 
BRANCH  22  23
ATOM     23  C   UNL     1       1.763   7.308  19.799  0.00  0.00    +0.000 C 
ATOM     24  C   UNL     1       1.373   8.550  20.153  0.00  0.00    +0.000 C 
ATOM     25  C   UNL     1       0.894   8.970  21.514  0.00  0.00    +0.000 C 
ATOM     26  C   UNL     1       1.409   9.668  19.142  0.00  0.00    +0.000 C 
ENDBRANCH  22  23
ENDBRANCH   6  22
TORSDOF 7
ENDMDL
MODEL 2
REMARK VINA RESULT:      -8.2      1.647      3.657
REMARK  Name = 
REMARK  12 active torsions:
REMARK  status: ('A' for Active; 'I' for Inactive)
REMARK    1  A    between atoms: C_1  and  O_2
REMARK    2  A    between atoms: O_2  and  C_3
REMARK    3  A    between atoms: C_6  and  C_7
REMARK    4  A    between atoms: C_9  and  C_10
REMARK    5  A    between atoms: C_10  and  C_11
REMARK    6  A    between atoms: C_12  and  C_13
REMARK    7  A    between atoms: C_12  and  C_14
REMARK    8  A    between atoms: C_17  and  O_18
REMARK    9  A    between atoms: C_20  and  C_21
REMARK   10  A    between atoms: C_21  and  C_22
REMARK   11  A    between atoms: C_23  and  C_24
REMARK   12  A    between atoms: C_23  and  C_25
REMARK                            x       y       z     vdW  Elec       q    Type
REMARK                         _______ _______ _______ _____ _____    ______ ____
ROOT
ATOM      1  C   UNL     1       2.000   8.037  19.144  0.00  0.00    +0.000 A 
ATOM      2  C   UNL     1       2.648   8.579  18.032  0.00  0.00    +0.000 A 
ATOM      3  C   UNL     1       3.645   7.866  17.368  0.00  0.00    +0.000 A 
ATOM      4  C   UNL     1       4.012   6.574  17.761  0.00  0.00    +0.000 A 
ATOM      5  C   UNL     1       3.340   6.037  18.876  0.00  0.00    +0.000 A 
ATOM      6  C   UNL     1       2.328   6.737  19.569  0.00  0.00    +0.000 A 
ENDROOT
BRANCH   4   7
ATOM      7  C   UNL     1       5.071   5.822  17.038  0.00  0.00    +0.000 A 
ATOM      8  C   UNL     1       5.041   5.738  15.630  0.00  0.00    +0.000 A 
ATOM      9  C   UNL     1       5.989   4.998  14.902  0.00  0.00    +0.000 A 
ATOM     10  C   UNL     1       7.019   4.357  15.591  0.00  0.00    +0.000 A 
ATOM     11  C   UNL     1       7.081   4.416  16.975  0.00  0.00    +0.000 A 
ATOM     12  C   UNL     1       6.117   5.135  17.688  0.00  0.00    +0.000 A 
BRANCH  12  13
ATOM     13  O   UNL     1       6.221   5.163  19.056  0.00  0.00    +0.000 OA
ATOM     14  H   UNL     1       5.476   5.666  19.420  0.00  0.00    +0.000 HD
ENDBRANCH  12  13
BRANCH   9  15
ATOM     15  C   UNL     1       5.878   4.884  13.398  0.00  0.00    +0.000 C 
BRANCH  15  16
ATOM     16  C   UNL     1       6.240   3.527  12.860  0.00  0.00    +0.000 C 
ATOM     17  C   UNL     1       5.548   2.817  11.946  0.00  0.00    +0.000 C 
ATOM     18  C   UNL     1       4.265   3.263  11.296  0.00  0.00    +0.000 C 
ATOM     19  C   UNL     1       6.011   1.451  11.510  0.00  0.00    +0.000 C 
ENDBRANCH  15  16
ENDBRANCH   9  15
ENDBRANCH   4   7
BRANCH   1  21
ATOM     20  C   UNL     1       0.738  10.028  19.372  0.00  0.00    +0.000 C 
ATOM     21  O   UNL     1       1.026   8.710  19.841  0.00  0.00    +0.000 OA
ENDBRANCH   1  21
BRANCH   6  22
ATOM     22  C   UNL     1       1.639   6.049  20.732  0.00  0.00    +0.000 C 
BRANCH  22  23
ATOM     23  C   UNL     1       2.298   4.759  21.146  0.00  0.00    +0.000 C 
ATOM     24  C   UNL     1       1.984   3.493  20.801  0.00  0.00    +0.000 C 
ATOM     25  C   UNL     1       0.825   3.075  19.940  0.00  0.00    +0.000 C 
ATOM     26  C   UNL     1       2.839   2.347  21.280  0.00  0.00    +0.000 C 
ENDBRANCH  22  23
ENDBRANCH   6  22
TORSDOF 7
ENDMDL
MODEL 3
REMARK VINA RESULT:      -7.9      2.238      7.849
REMARK  Name = 
REMARK  12 active torsions:
REMARK  status: ('A' for Active; 'I' for Inactive)
REMARK    1  A    between atoms: C_1  and  O_2
REMARK    2  A    between atoms: O_2  and  C_3
REMARK    3  A    between atoms: C_6  and  C_7
REMARK    4  A    between atoms: C_9  and  C_10
REMARK    5  A    between atoms: C_10  and  C_11
REMARK    6  A    between atoms: C_12  and  C_13
REMARK    7  A    between atoms: C_12  and  C_14
REMARK    8  A    between atoms: C_17  and  O_18
REMARK    9  A    between atoms: C_20  and  C_21
REMARK   10  A    between atoms: C_21  and  C_22
REMARK   11  A    between atoms: C_23  and  C_24
REMARK   12  A    between atoms: C_23  and  C_25
REMARK                            x       y       z     vdW  Elec       q    Type
REMARK                         _______ _______ _______ _____ _____    ______ ____
ROOT
ATOM      1  C   UNL     1       4.626   5.031  16.564  0.00  0.00    +0.000 A 
ATOM      2  C   UNL     1       4.947   6.388  16.642  0.00  0.00    +0.000 A 
ATOM      3  C   UNL     1       4.156   7.268  17.380  0.00  0.00    +0.000 A 
ATOM      4  C   UNL     1       3.037   6.829  18.096  0.00  0.00    +0.000 A 
ATOM      5  C   UNL     1       2.735   5.456  18.018  0.00  0.00    +0.000 A 
ATOM      6  C   UNL     1       3.516   4.542  17.277  0.00  0.00    +0.000 A 
ENDROOT
BRANCH   4   7
ATOM      7  C   UNL     1       2.209   7.778  18.886  0.00  0.00    +0.000 A 
ATOM      8  C   UNL     1       1.758   8.979  18.298  0.00  0.00    +0.000 A 
ATOM      9  C   UNL     1       1.015   9.932  19.016  0.00  0.00    +0.000 A 
ATOM     10  C   UNL     1       0.676   9.665  20.343  0.00  0.00    +0.000 A 
ATOM     11  C   UNL     1       1.102   8.495  20.955  0.00  0.00    +0.000 A 
ATOM     12  C   UNL     1       1.862   7.568  20.237  0.00  0.00    +0.000 A 
BRANCH  12  13
ATOM     13  O   UNL     1       2.260   6.427  20.886  0.00  0.00    +0.000 OA
ATOM     14  H   UNL     1       2.978   6.646  21.501  0.00  0.00    +0.000 HD
ENDBRANCH  12  13
BRANCH   9  15
ATOM     15  C   UNL     1       0.609  11.235  18.363  0.00  0.00    +0.000 C 
BRANCH  15  16
ATOM     16  C   UNL     1      -0.822  11.624  18.615  0.00  0.00    +0.000 C 
ATOM     17  C   UNL     1      -1.913  11.081  18.038  0.00  0.00    +0.000 C 
ATOM     18  C   UNL     1      -1.890   9.973  17.018  0.00  0.00    +0.000 C 
ATOM     19  C   UNL     1      -3.295  11.584  18.362  0.00  0.00    +0.000 C 
ENDBRANCH  15  16
ENDBRANCH   9  15
ENDBRANCH   4   7
BRANCH   1  21
ATOM     20  C   UNL     1       5.957   4.649  14.644  0.00  0.00    +0.000 C 
ATOM     21  O   UNL     1       5.363   4.131  15.835  0.00  0.00    +0.000 OA
ENDBRANCH   1  21
BRANCH   6  22
ATOM     22  C   UNL     1       3.125   3.076  17.293  0.00  0.00    +0.000 C 
BRANCH  22  23
ATOM     23  C   UNL     1       2.231   2.704  18.447  0.00  0.00    +0.000 C 
ATOM     24  C   UNL     1       2.551   2.509  19.744  0.00  0.00    +0.000 C 
ATOM     25  C   UNL     1       3.933   2.568  20.330  0.00  0.00    +0.000 C 
ATOM     26  C   UNL     1       1.468   2.214  20.751  0.00  0.00    +0.000 C 
ENDBRANCH  22  23
ENDBRANCH   6  22
TORSDOF 7
ENDMDL
MODEL 4
REMARK VINA RESULT:      -7.8      1.105      1.581
REMARK  Name = 
REMARK  12 active torsions:
REMARK  status: ('A' for Active; 'I' for Inactive)
REMARK    1  A    between atoms: C_1  and  O_2
REMARK    2  A    between atoms: O_2  and  C_3
REMARK    3  A    between atoms: C_6  and  C_7
REMARK    4  A    between atoms: C_9  and  C_10
REMARK    5  A    between atoms: C_10  and  C_11
REMARK    6  A    between atoms: C_12  and  C_13
REMARK    7  A    between atoms: C_12  and  C_14
REMARK    8  A    between atoms: C_17  and  O_18
REMARK    9  A    between atoms: C_20  and  C_21
REMARK   10  A    between atoms: C_21  and  C_22
REMARK   11  A    between atoms: C_23  and  C_24
REMARK   12  A    between atoms: C_23  and  C_25
REMARK                            x       y       z     vdW  Elec       q    Type
REMARK                         _______ _______ _______ _____ _____    ______ ____
ROOT
ATOM      1  C   UNL     1       2.532   4.018  19.191  0.00  0.00    +0.000 A 
ATOM      2  C   UNL     1       3.000   2.896  18.503  0.00  0.00    +0.000 A 
ATOM      3  C   UNL     1       3.877   3.032  17.427  0.00  0.00    +0.000 A 
ATOM      4  C   UNL     1       4.349   4.284  17.016  0.00  0.00    +0.000 A 
ATOM      5  C   UNL     1       3.877   5.404  17.729  0.00  0.00    +0.000 A 
ATOM      6  C   UNL     1       2.987   5.296  18.821  0.00  0.00    +0.000 A 
ENDROOT
BRANCH   4   7
ATOM      7  C   UNL     1       5.291   4.414  15.873  0.00  0.00    +0.000 A 
ATOM      8  C   UNL     1       4.863   4.095  14.567  0.00  0.00    +0.000 A 
ATOM      9  C   UNL     1       5.728   4.152  13.460  0.00  0.00    +0.000 A 
ATOM     10  C   UNL     1       7.043   4.577  13.651  0.00  0.00    +0.000 A 
ATOM     11  C   UNL     1       7.500   4.898  14.921  0.00  0.00    +0.000 A 
ATOM     12  C   UNL     1       6.636   4.812  16.017  0.00  0.00    +0.000 A 
BRANCH  12  13
ATOM     13  O   UNL     1       7.135   5.139  17.252  0.00  0.00    +0.000 OA
ATOM     14  H   UNL     1       7.455   4.333  17.688  0.00  0.00    +0.000 HD
ENDBRANCH  12  13
BRANCH   9  15
ATOM     15  C   UNL     1       5.242   3.739  12.089  0.00  0.00    +0.000 C 
BRANCH  15  16
ATOM     16  C   UNL     1       5.225   2.251  11.869  0.00  0.00    +0.000 C 
ATOM     17  C   UNL     1       6.235   1.502  11.381  0.00  0.00    +0.000 C 
ATOM     18  C   UNL     1       7.578   2.034  10.956  0.00  0.00    +0.000 C 
ATOM     19  C   UNL     1       6.077   0.017  11.186  0.00  0.00    +0.000 C 
ENDBRANCH  15  16
ENDBRANCH   9  15
ENDBRANCH   4   7
BRANCH   1  21
ATOM     20  C   UNL     1       1.438   2.618  20.757  0.00  0.00    +0.000 C 
ATOM     21  O   UNL     1       1.653   3.933  20.243  0.00  0.00    +0.000 OA
ENDBRANCH   1  21
BRANCH   6  22
ATOM     22  C   UNL     1       2.573   6.563  19.545  0.00  0.00    +0.000 C 
BRANCH  22  23
ATOM     23  C   UNL     1       2.379   7.743  18.630  0.00  0.00    +0.000 C 
ATOM     24  C   UNL     1       1.709   8.893  18.853  0.00  0.00    +0.000 C 
ATOM     25  C   UNL     1       0.934   9.235  20.094  0.00  0.00    +0.000 C 
ATOM     26  C   UNL     1       1.710   9.981  17.809  0.00  0.00    +0.000 C 
ENDBRANCH  22  23
ENDBRANCH   6  22
TORSDOF 7
ENDMDL
MODEL 5
REMARK VINA RESULT:      -7.8      2.916      8.025
REMARK  Name = 
REMARK  12 active torsions:
REMARK  status: ('A' for Active; 'I' for Inactive)
REMARK    1  A    between atoms: C_1  and  O_2
REMARK    2  A    between atoms: O_2  and  C_3
REMARK    3  A    between atoms: C_6  and  C_7
REMARK    4  A    between atoms: C_9  and  C_10
REMARK    5  A    between atoms: C_10  and  C_11
REMARK    6  A    between atoms: C_12  and  C_13
REMARK    7  A    between atoms: C_12  and  C_14
REMARK    8  A    between atoms: C_17  and  O_18
REMARK    9  A    between atoms: C_20  and  C_21
REMARK   10  A    between atoms: C_21  and  C_22
REMARK   11  A    between atoms: C_23  and  C_24
REMARK   12  A    between atoms: C_23  and  C_25
REMARK                            x       y       z     vdW  Elec       q    Type
REMARK                         _______ _______ _______ _____ _____    ______ ____
ROOT
ATOM      1  C   UNL     1       3.966   5.518  17.110  0.00  0.00    +0.000 A 
ATOM      2  C   UNL     1       4.362   6.856  17.173  0.00  0.00    +0.000 A 
ATOM      3  C   UNL     1       3.571   7.807  17.817  0.00  0.00    +0.000 A 
ATOM      4  C   UNL     1       2.373   7.459  18.452  0.00  0.00    +0.000 A 
ATOM      5  C   UNL     1       1.994   6.104  18.390  0.00  0.00    +0.000 A 
ATOM      6  C   UNL     1       2.776   5.120  17.743  0.00  0.00    +0.000 A 
ENDROOT
BRANCH   4   7
ATOM      7  C   UNL     1       1.543   8.481  19.142  0.00  0.00    +0.000 A 
ATOM      8  C   UNL     1       0.937   9.516  18.399  0.00  0.00    +0.000 A 
ATOM      9  C   UNL     1       0.185  10.535  19.009  0.00  0.00    +0.000 A 
ATOM     10  C   UNL     1      -0.004  10.501  20.391  0.00  0.00    +0.000 A 
ATOM     11  C   UNL     1       0.578   9.499  21.155  0.00  0.00    +0.000 A 
ATOM     12  C   UNL     1       1.344   8.506  20.538  0.00  0.00    +0.000 A 
BRANCH  12  13
ATOM     13  O   UNL     1       1.899   7.538  21.335  0.00  0.00    +0.000 OA
ATOM     14  H   UNL     1       2.716   7.217  20.922  0.00  0.00    +0.000 HD
ENDBRANCH  12  13
BRANCH   9  15
ATOM     15  C   UNL     1      -0.392  11.661  18.179  0.00  0.00    +0.000 C 
BRANCH  15  16
ATOM     16  C   UNL     1      -1.893  11.743  18.222  0.00  0.00    +0.000 C 
ATOM     17  C   UNL     1      -2.757  11.017  17.483  0.00  0.00    +0.000 C 
ATOM     18  C   UNL     1      -2.362   9.982  16.462  0.00  0.00    +0.000 C 
ATOM     19  C   UNL     1      -4.244  11.218  17.605  0.00  0.00    +0.000 C 
ENDBRANCH  15  16
ENDBRANCH   9  15
ENDBRANCH   4   7
BRANCH   1  21
ATOM     20  C   UNL     1       6.010   4.327  17.003  0.00  0.00    +0.000 C 
ATOM     21  O   UNL     1       4.704   4.553  16.471  0.00  0.00    +0.000 OA
ENDBRANCH   1  21
BRANCH   6  22
ATOM     22  C   UNL     1       2.296   3.681  17.771  0.00  0.00    +0.000 C 
BRANCH  22  23
ATOM     23  C   UNL     1       1.663   3.282  19.078  0.00  0.00    +0.000 C 
ATOM     24  C   UNL     1       2.253   2.865  20.218  0.00  0.00    +0.000 C 
ATOM     25  C   UNL     1       3.726   2.643  20.419  0.00  0.00    +0.000 C 
ATOM     26  C   UNL     1       1.417   2.588  21.442  0.00  0.00    +0.000 C 
ENDBRANCH  22  23
ENDBRANCH   6  22
TORSDOF 7
ENDMDL
MODEL 6
REMARK VINA RESULT:      -7.6      3.042      5.594
REMARK  Name = 
REMARK  12 active torsions:
REMARK  status: ('A' for Active; 'I' for Inactive)
REMARK    1  A    between atoms: C_1  and  O_2
REMARK    2  A    between atoms: O_2  and  C_3
REMARK    3  A    between atoms: C_6  and  C_7
REMARK    4  A    between atoms: C_9  and  C_10
REMARK    5  A    between atoms: C_10  and  C_11
REMARK    6  A    between atoms: C_12  and  C_13
REMARK    7  A    between atoms: C_12  and  C_14
REMARK    8  A    between atoms: C_17  and  O_18
REMARK    9  A    between atoms: C_20  and  C_21
REMARK   10  A    between atoms: C_21  and  C_22
REMARK   11  A    between atoms: C_23  and  C_24
REMARK   12  A    between atoms: C_23  and  C_25
REMARK                            x       y       z     vdW  Elec       q    Type
REMARK                         _______ _______ _______ _____ _____    ______ ____
ROOT
ATOM      1  C   UNL     1       0.738   9.358  20.701  0.00  0.00    +0.000 A 
ATOM      2  C   UNL     1       1.306   8.283  21.389  0.00  0.00    +0.000 A 
ATOM      3  C   UNL     1       1.955   7.257  20.703  0.00  0.00    +0.000 A 
ATOM      4  C   UNL     1       2.095   7.277  19.311  0.00  0.00    +0.000 A 
ATOM      5  C   UNL     1       1.528   8.374  18.633  0.00  0.00    +0.000 A 
ATOM      6  C   UNL     1       0.864   9.426  19.302  0.00  0.00    +0.000 A 
ENDROOT
BRANCH   4   7
ATOM      7  C   UNL     1       2.796   6.180  18.593  0.00  0.00    +0.000 A 
ATOM      8  C   UNL     1       3.930   6.467  17.802  0.00  0.00    +0.000 A 
ATOM      9  C   UNL     1       4.598   5.475  17.064  0.00  0.00    +0.000 A 
ATOM     10  C   UNL     1       4.152   4.156  17.145  0.00  0.00    +0.000 A 
ATOM     11  C   UNL     1       3.041   3.836  17.911  0.00  0.00    +0.000 A 
ATOM     12  C   UNL     1       2.370   4.836  18.620  0.00  0.00    +0.000 A 
BRANCH  12  13
ATOM     13  O   UNL     1       1.276   4.471  19.362  0.00  0.00    +0.000 OA
ATOM     14  H   UNL     1       1.085   5.167  20.011  0.00  0.00    +0.000 HD
ENDBRANCH  12  13
BRANCH   9  15
ATOM     15  C   UNL     1       5.770   5.841  16.180  0.00  0.00    +0.000 C 
BRANCH  15  16
ATOM     16  C   UNL     1       6.553   7.030  16.664  0.00  0.00    +0.000 C 
ATOM     17  C   UNL     1       7.415   7.053  17.702  0.00  0.00    +0.000 C 
ATOM     18  C   UNL     1       7.745   5.873  18.577  0.00  0.00    +0.000 C 
ATOM     19  C   UNL     1       8.118   8.324  18.099  0.00  0.00    +0.000 C 
ENDBRANCH  15  16
ENDBRANCH   9  15
ENDBRANCH   4   7
BRANCH   1  21
ATOM     20  C   UNL     1      -0.347  10.102  22.669  0.00  0.00    +0.000 C 
ATOM     21  O   UNL     1       0.074  10.380  21.333  0.00  0.00    +0.000 OA
ENDBRANCH   1  21
BRANCH   6  22
ATOM     22  C   UNL     1       0.325  10.581  18.479  0.00  0.00    +0.000 C 
BRANCH  22  23
ATOM     23  C   UNL     1      -1.003  10.291  17.831  0.00  0.00    +0.000 C 
ATOM     24  C   UNL     1      -2.208  10.847  18.072  0.00  0.00    +0.000 C 
ATOM     25  C   UNL     1      -2.510  11.878  19.123  0.00  0.00    +0.000 C 
ATOM     26  C   UNL     1      -3.402  10.450  17.240  0.00  0.00    +0.000 C 
ENDBRANCH  22  23
ENDBRANCH   6  22
TORSDOF 7
ENDMDL
MODEL 7
REMARK VINA RESULT:      -7.6      3.142      9.023
REMARK  Name = 
REMARK  12 active torsions:
REMARK  status: ('A' for Active; 'I' for Inactive)
REMARK    1  A    between atoms: C_1  and  O_2
REMARK    2  A    between atoms: O_2  and  C_3
REMARK    3  A    between atoms: C_6  and  C_7
REMARK    4  A    between atoms: C_9  and  C_10
REMARK    5  A    between atoms: C_10  and  C_11
REMARK    6  A    between atoms: C_12  and  C_13
REMARK    7  A    between atoms: C_12  and  C_14
REMARK    8  A    between atoms: C_17  and  O_18
REMARK    9  A    between atoms: C_20  and  C_21
REMARK   10  A    between atoms: C_21  and  C_22
REMARK   11  A    between atoms: C_23  and  C_24
REMARK   12  A    between atoms: C_23  and  C_25
REMARK                            x       y       z     vdW  Elec       q    Type
REMARK                         _______ _______ _______ _____ _____    ______ ____
ROOT
ATOM      1  C   UNL     1       3.516   4.747  18.891  0.00  0.00    +0.000 A 
ATOM      2  C   UNL     1       2.563   4.857  19.906  0.00  0.00    +0.000 A 
ATOM      3  C   UNL     1       1.946   6.078  20.177  0.00  0.00    +0.000 A 
ATOM      4  C   UNL     1       2.226   7.226  19.429  0.00  0.00    +0.000 A 
ATOM      5  C   UNL     1       3.179   7.095  18.400  0.00  0.00    +0.000 A 
ATOM      6  C   UNL     1       3.822   5.872  18.105  0.00  0.00    +0.000 A 
ENDROOT
BRANCH   4   7
ATOM      7  C   UNL     1       1.554   8.519  19.723  0.00  0.00    +0.000 A 
ATOM      8  C   UNL     1       1.164   8.827  21.044  0.00  0.00    +0.000 A 
ATOM      9  C   UNL     1       0.481  10.013  21.367  0.00  0.00    +0.000 A 
ATOM     10  C   UNL     1       0.214  10.935  20.356  0.00  0.00    +0.000 A 
ATOM     11  C   UNL     1       0.580  10.667  19.045  0.00  0.00    +0.000 A 
ATOM     12  C   UNL     1       1.236   9.473  18.733  0.00  0.00    +0.000 A 
BRANCH  12  13
ATOM     13  O   UNL     1       1.577   9.252  17.423  0.00  0.00    +0.000 OA
ATOM     14  H   UNL     1       1.487  10.082  16.928  0.00  0.00    +0.000 HD
ENDBRANCH  12  13
BRANCH   9  15
ATOM     15  C   UNL     1       0.027  10.270  22.787  0.00  0.00    +0.000 C 
BRANCH  15  16
ATOM     16  C   UNL     1      -1.401  10.730  22.898  0.00  0.00    +0.000 C 
ATOM     17  C   UNL     1      -1.825  12.005  23.006  0.00  0.00    +0.000 C 
ATOM     18  C   UNL     1      -0.928  13.215  23.043  0.00  0.00    +0.000 C 
ATOM     19  C   UNL     1      -3.291  12.328  23.136  0.00  0.00    +0.000 C 
ENDBRANCH  15  16
ENDBRANCH   9  15
ENDBRANCH   4   7
BRANCH   1  21
ATOM     20  C   UNL     1       3.326   2.417  18.510  0.00  0.00    +0.000 C 
ATOM     21  O   UNL     1       4.164   3.571  18.601  0.00  0.00    +0.000 OA
ENDBRANCH   1  21
BRANCH   6  22
ATOM     22  C   UNL     1       4.803   5.831  16.949  0.00  0.00    +0.000 C 
BRANCH  22  23
ATOM     23  C   UNL     1       5.849   6.914  17.008  0.00  0.00    +0.000 C 
ATOM     24  C   UNL     1       7.009   6.942  17.697  0.00  0.00    +0.000 C 
ATOM     25  C   UNL     1       7.502   5.878  18.637  0.00  0.00    +0.000 C 
ATOM     26  C   UNL     1       7.948   8.112  17.546  0.00  0.00    +0.000 C 
ENDBRANCH  22  23
ENDBRANCH   6  22
TORSDOF 7
ENDMDL
MODEL 8
REMARK VINA RESULT:      -7.5      3.102      5.926
REMARK  Name = 
REMARK  12 active torsions:
REMARK  status: ('A' for Active; 'I' for Inactive)
REMARK    1  A    between atoms: C_1  and  O_2
REMARK    2  A    between atoms: O_2  and  C_3
REMARK    3  A    between atoms: C_6  and  C_7
REMARK    4  A    between atoms: C_9  and  C_10
REMARK    5  A    between atoms: C_10  and  C_11
REMARK    6  A    between atoms: C_12  and  C_13
REMARK    7  A    between atoms: C_12  and  C_14
REMARK    8  A    between atoms: C_17  and  O_18
REMARK    9  A    between atoms: C_20  and  C_21
REMARK   10  A    between atoms: C_21  and  C_22
REMARK   11  A    between atoms: C_23  and  C_24
REMARK   12  A    between atoms: C_23  and  C_25
REMARK                            x       y       z     vdW  Elec       q    Type
REMARK                         _______ _______ _______ _____ _____    ______ ____
ROOT
ATOM      1  C   UNL     1       0.593   9.995  20.983  0.00  0.00    +0.000 A 
ATOM      2  C   UNL     1       0.971   8.891  21.751  0.00  0.00    +0.000 A 
ATOM      3  C   UNL     1       1.568   7.778  21.160  0.00  0.00    +0.000 A 
ATOM      4  C   UNL     1       1.843   7.732  19.789  0.00  0.00    +0.000 A 
ATOM      5  C   UNL     1       1.468   8.858  19.030  0.00  0.00    +0.000 A 
ATOM      6  C   UNL     1       0.861   9.998  19.602  0.00  0.00    +0.000 A 
ENDROOT
BRANCH   4   7
ATOM      7  C   UNL     1       2.488   6.543  19.173  0.00  0.00    +0.000 A 
ATOM      8  C   UNL     1       3.482   6.710  18.186  0.00  0.00    +0.000 A 
ATOM      9  C   UNL     1       4.086   5.619  17.538  0.00  0.00    +0.000 A 
ATOM     10  C   UNL     1       3.720   4.325  17.909  0.00  0.00    +0.000 A 
ATOM     11  C   UNL     1       2.745   4.121  18.874  0.00  0.00    +0.000 A 
ATOM     12  C   UNL     1       2.134   5.215  19.494  0.00  0.00    +0.000 A 
BRANCH  12  13
ATOM     13  O   UNL     1       1.176   4.962  20.441  0.00  0.00    +0.000 OA
ATOM     14  H   UNL     1       1.461   4.213  20.989  0.00  0.00    +0.000 HD
ENDBRANCH  12  13
BRANCH   9  15
ATOM     15  C   UNL     1       5.101   5.849  16.440  0.00  0.00    +0.000 C 
BRANCH  15  16
ATOM     16  C   UNL     1       6.049   6.984  16.713  0.00  0.00    +0.000 C 
ATOM     17  C   UNL     1       7.113   6.958  17.541  0.00  0.00    +0.000 C 
ATOM     18  C   UNL     1       7.542   5.768  18.359  0.00  0.00    +0.000 C 
ATOM     19  C   UNL     1       7.970   8.180  17.744  0.00  0.00    +0.000 C 
ENDBRANCH  15  16
ENDBRANCH   9  15
ENDBRANCH   4   7
BRANCH   1  21
ATOM     20  C   UNL     1      -0.684  10.894  22.762  0.00  0.00    +0.000 C 
ATOM     21  O   UNL     1      -0.014  11.103  21.518  0.00  0.00    +0.000 OA
ENDBRANCH   1  21
BRANCH   6  22
ATOM     22  C   UNL     1       0.534  11.173  18.700  0.00  0.00    +0.000 C 
BRANCH  22  23
ATOM     23  C   UNL     1      -0.924  11.553  18.710  0.00  0.00    +0.000 C 
ATOM     24  C   UNL     1      -1.955  10.994  18.043  0.00  0.00    +0.000 C 
ATOM     25  C   UNL     1      -1.859   9.859  17.061  0.00  0.00    +0.000 C 
ATOM     26  C   UNL     1      -3.359  11.496  18.265  0.00  0.00    +0.000 C 
ENDBRANCH  22  23
ENDBRANCH   6  22
TORSDOF 7
ENDMDL
MODEL 9
REMARK VINA RESULT:      -7.4      2.537      7.969
REMARK  Name = 
REMARK  12 active torsions:
REMARK  status: ('A' for Active; 'I' for Inactive)
REMARK    1  A    between atoms: C_1  and  O_2
REMARK    2  A    between atoms: O_2  and  C_3
REMARK    3  A    between atoms: C_6  and  C_7
REMARK    4  A    between atoms: C_9  and  C_10
REMARK    5  A    between atoms: C_10  and  C_11
REMARK    6  A    between atoms: C_12  and  C_13
REMARK    7  A    between atoms: C_12  and  C_14
REMARK    8  A    between atoms: C_17  and  O_18
REMARK    9  A    between atoms: C_20  and  C_21
REMARK   10  A    between atoms: C_21  and  C_22
REMARK   11  A    between atoms: C_23  and  C_24
REMARK   12  A    between atoms: C_23  and  C_25
REMARK                            x       y       z     vdW  Elec       q    Type
REMARK                         _______ _______ _______ _____ _____    ______ ____
ROOT
ATOM      1  C   UNL     1       4.640   5.145  16.824  0.00  0.00    +0.000 A 
ATOM      2  C   UNL     1       4.735   6.520  16.597  0.00  0.00    +0.000 A 
ATOM      3  C   UNL     1       3.933   7.418  17.300  0.00  0.00    +0.000 A 
ATOM      4  C   UNL     1       3.031   6.989  18.279  0.00  0.00    +0.000 A 
ATOM      5  C   UNL     1       2.956   5.600  18.506  0.00  0.00    +0.000 A 
ATOM      6  C   UNL     1       3.755   4.668  17.807  0.00  0.00    +0.000 A 
ENDROOT
BRANCH   4   7
ATOM      7  C   UNL     1       2.188   7.958  19.027  0.00  0.00    +0.000 A 
ATOM      8  C   UNL     1       1.863   9.203  18.449  0.00  0.00    +0.000 A 
ATOM      9  C   UNL     1       1.112  10.175  19.134  0.00  0.00    +0.000 A 
ATOM     10  C   UNL     1       0.638   9.884  20.413  0.00  0.00    +0.000 A 
ATOM     11  C   UNL     1       0.939   8.671  21.015  0.00  0.00    +0.000 A 
ATOM     12  C   UNL     1       1.708   7.724  20.333  0.00  0.00    +0.000 A 
BRANCH  12  13
ATOM     13  O   UNL     1       1.979   6.541  20.970  0.00  0.00    +0.000 OA
ATOM     14  H   UNL     1       1.486   6.510  21.805  0.00  0.00    +0.000 HD
ENDBRANCH  12  13
BRANCH   9  15
ATOM     15  C   UNL     1       0.842  11.520  18.498  0.00  0.00    +0.000 C 
BRANCH  15  16
ATOM     16  C   UNL     1       2.079  12.343  18.261  0.00  0.00    +0.000 C 
ATOM     17  C   UNL     1       2.241  13.649  18.556  0.00  0.00    +0.000 C 
ATOM     18  C   UNL     1       1.190  14.531  19.178  0.00  0.00    +0.000 C 
ATOM     19  C   UNL     1       3.529  14.363  18.242  0.00  0.00    +0.000 C 
ENDBRANCH  15  16
ENDBRANCH   9  15
ENDBRANCH   4   7
BRANCH   1  21
ATOM     20  C   UNL     1       6.809   4.386  16.255  0.00  0.00    +0.000 C 
ATOM     21  O   UNL     1       5.395   4.223  16.143  0.00  0.00    +0.000 OA
ENDBRANCH   1  21
BRANCH   6  22
ATOM     22  C   UNL     1       3.624   3.197  18.158  0.00  0.00    +0.000 C 
BRANCH  22  23
ATOM     23  C   UNL     1       3.163   2.954  19.572  0.00  0.00    +0.000 C 
ATOM     24  C   UNL     1       1.918   2.709  20.031  0.00  0.00    +0.000 C 
ATOM     25  C   UNL     1       0.663   2.680  19.205  0.00  0.00    +0.000 C 
ATOM     26  C   UNL     1       1.699   2.417  21.494  0.00  0.00    +0.000 C 
ENDBRANCH  22  23
ENDBRANCH   6  22
TORSDOF 7
ENDMDL
