MODEL 1
REMARK VINA RESULT:      -9.0      0.000      0.000
REMARK  Name = 
REMARK  7 active torsions:
REMARK  status: ('A' for Active; 'I' for Inactive)
REMARK    1  A    between atoms: C_1  and  C_2
REMARK    2  A    between atoms: C_4  and  C_5
REMARK    3  A    between atoms: C_13  and  C_14
REMARK    4  A    between atoms: C_14  and  N_15
REMARK    5  A    between atoms: C_18  and  C_19
REMARK    6  A    between atoms: N_21  and  C_22
REMARK    7  A    between atoms: C_22  and  C_23
REMARK                            x       y       z     vdW  Elec       q    Type
REMARK                         _______ _______ _______ _____ _____    ______ ____
ROOT
ATOM      1  N   UNL     1       5.332   4.151  18.298  0.00  0.00    +0.000 NA
ATOM      2  C   UNL     1       6.053   4.397  17.040  0.00  0.00    +0.000 C 
ATOM      3  C   UNL     1       7.537   4.734  17.232  0.00  0.00    +0.000 C 
ATOM      4  C   UNL     1       7.785   5.862  18.234  0.00  0.00    +0.000 C 
ATOM      5  C   UNL     1       6.991   5.597  19.516  0.00  0.00    +0.000 C 
ATOM      6  C   UNL     1       5.523   5.259  19.255  0.00  0.00    +0.000 C 
ENDROOT
BRANCH   4   7
ATOM      7  C   UNL     1       7.536   7.266  17.671  0.00  0.00    +0.000 C 
ATOM      8  O   UNL     1       6.691   7.503  16.813  0.00  0.00    +0.000 OA
ATOM      9  N   UNL     1       8.288   8.261  18.262  0.00  0.00    +0.000 N 
ATOM     10  H   UNL     1       9.111   8.018  18.797  0.00  0.00    +0.000 HD
BRANCH   9  11
ATOM     11  C   UNL     1       8.096   9.654  17.911  0.00  0.00    +0.000 C 
BRANCH  11  12
ATOM     12  C   UNL     1       9.214  10.478  18.482  0.00  0.00    +0.000 A 
ATOM     13  C   UNL     1      10.257  11.089  17.813  0.00  0.00    +0.000 A 
ATOM     14  C   UNL     1      11.168  11.735  18.697  0.00  0.00    +0.000 A 
ATOM     15  C   UNL     1      10.793  11.606  20.012  0.00  0.00    +0.000 A 
ATOM     16  S   UNL     1       9.341  10.714  20.178  0.00  0.00    +0.000 S 
ENDBRANCH  11  12
ENDBRANCH   9  11
ENDBRANCH   4   7
BRANCH   1  17
ATOM     17  C   UNL     1       3.870   4.028  18.039  0.00  0.00    +0.000 C 
BRANCH  17  23
ATOM     18  C   UNL     1       2.360   3.657  21.060  0.00  0.00    +0.000 C 
ATOM     19  C   UNL     1       2.465   4.772  20.106  0.00  0.00    +0.000 A 
ATOM     20  O   UNL     1       1.911   5.955  20.496  0.00  0.00    +0.000 OA
ATOM     21  C   UNL     1       2.172   6.820  19.470  0.00  0.00    +0.000 A 
ATOM     22  N   UNL     1       2.800   6.263  18.451  0.00  0.00    +0.000 NA
ATOM     23  C   UNL     1       3.034   4.957  18.861  0.00  0.00    +0.000 A 
BRANCH  21  24
ATOM     24  C   UNL     1       1.689   8.179  19.650  0.00  0.00    +0.000 A 
ATOM     25  C   UNL     1       1.240   8.612  20.907  0.00  0.00    +0.000 A 
ATOM     26  C   UNL     1       0.805   9.932  21.093  0.00  0.00    +0.000 A 
ATOM     27  C   UNL     1       0.802  10.824  20.022  0.00  0.00    +0.000 A 
ATOM     28  C   UNL     1       1.223  10.401  18.764  0.00  0.00    +0.000 A 
ATOM     29  C   UNL     1       1.655   9.092  18.587  0.00  0.00    +0.000 A 
ATOM     30  F   UNL     1       2.034   8.722  17.351  0.00  0.00    +0.000 F 
ENDBRANCH  21  24
ENDBRANCH  17  23
ENDBRANCH   1  17
TORSDOF 6
ENDMDL
MODEL 2
REMARK VINA RESULT:      -8.7      0.854      1.233
REMARK  Name = 
REMARK  7 active torsions:
REMARK  status: ('A' for Active; 'I' for Inactive)
REMARK    1  A    between atoms: C_1  and  C_2
REMARK    2  A    between atoms: C_4  and  C_5
REMARK    3  A    between atoms: C_13  and  C_14
REMARK    4  A    between atoms: C_14  and  N_15
REMARK    5  A    between atoms: C_18  and  C_19
REMARK    6  A    between atoms: N_21  and  C_22
REMARK    7  A    between atoms: C_22  and  C_23
REMARK                            x       y       z     vdW  Elec       q    Type
REMARK                         _______ _______ _______ _____ _____    ______ ____
ROOT
ATOM      1  N   UNL     1       5.344   4.109  18.272  0.00  0.00    +0.000 NA
ATOM      2  C   UNL     1       6.039   4.377  17.003  0.00  0.00    +0.000 C 
ATOM      3  C   UNL     1       7.523   4.723  17.172  0.00  0.00    +0.000 C 
ATOM      4  C   UNL     1       7.781   5.840  18.183  0.00  0.00    +0.000 C 
ATOM      5  C   UNL     1       7.015   5.553  19.476  0.00  0.00    +0.000 C 
ATOM      6  C   UNL     1       5.545   5.207  19.239  0.00  0.00    +0.000 C 
ENDROOT
BRANCH   4   7
ATOM      7  C   UNL     1       7.511   7.250  17.642  0.00  0.00    +0.000 C 
ATOM      8  O   UNL     1       6.639   7.492  16.812  0.00  0.00    +0.000 OA
ATOM      9  N   UNL     1       8.276   8.241  18.220  0.00  0.00    +0.000 N 
ATOM     10  H   UNL     1       9.116   7.996  18.727  0.00  0.00    +0.000 HD
BRANCH   9  11
ATOM     11  C   UNL     1       8.069   9.637  17.890  0.00  0.00    +0.000 C 
BRANCH  11  12
ATOM     12  C   UNL     1       9.181  10.464  18.468  0.00  0.00    +0.000 A 
ATOM     13  C   UNL     1      10.218  11.090  17.803  0.00  0.00    +0.000 A 
ATOM     14  C   UNL     1      11.125  11.735  18.692  0.00  0.00    +0.000 A 
ATOM     15  C   UNL     1      10.753  11.590  20.007  0.00  0.00    +0.000 A 
ATOM     16  S   UNL     1       9.309  10.684  20.166  0.00  0.00    +0.000 S 
ENDBRANCH  11  12
ENDBRANCH   9  11
ENDBRANCH   4   7
BRANCH   1  17
ATOM     17  C   UNL     1       3.878   3.978  18.040  0.00  0.00    +0.000 C 
BRANCH  17  23
ATOM     18  C   UNL     1       2.315   3.881  21.055  0.00  0.00    +0.000 C 
ATOM     19  C   UNL     1       2.468   4.917  20.022  0.00  0.00    +0.000 A 
ATOM     20  O   UNL     1       1.945   6.142  20.313  0.00  0.00    +0.000 OA
ATOM     21  C   UNL     1       2.248   6.919  19.230  0.00  0.00    +0.000 A 
ATOM     22  N   UNL     1       2.873   6.268  18.266  0.00  0.00    +0.000 NA
ATOM     23  C   UNL     1       3.060   4.991  18.776  0.00  0.00    +0.000 A 
BRANCH  21  24
ATOM     24  C   UNL     1       1.805   8.301  19.299  0.00  0.00    +0.000 A 
ATOM     25  C   UNL     1       1.974   9.156  18.199  0.00  0.00    +0.000 A 
ATOM     26  C   UNL     1       1.517  10.481  18.249  0.00  0.00    +0.000 A 
ATOM     27  C   UNL     1       0.902  10.965  19.402  0.00  0.00    +0.000 A 
ATOM     28  C   UNL     1       0.749  10.135  20.509  0.00  0.00    +0.000 A 
ATOM     29  C   UNL     1       1.202   8.822  20.452  0.00  0.00    +0.000 A 
ATOM     30  F   UNL     1       1.051   8.062  21.551  0.00  0.00    +0.000 F 
ENDBRANCH  21  24
ENDBRANCH  17  23
ENDBRANCH   1  17
TORSDOF 6
ENDMDL
MODEL 3
REMARK VINA RESULT:      -8.4      1.373      1.796
REMARK  Name = 
REMARK  7 active torsions:
REMARK  status: ('A' for Active; 'I' for Inactive)
REMARK    1  A    between atoms: C_1  and  C_2
REMARK    2  A    between atoms: C_4  and  C_5
REMARK    3  A    between atoms: C_13  and  C_14
REMARK    4  A    between atoms: C_14  and  N_15
REMARK    5  A    between atoms: C_18  and  C_19
REMARK    6  A    between atoms: N_21  and  C_22
REMARK    7  A    between atoms: C_22  and  C_23
REMARK                            x       y       z     vdW  Elec       q    Type
REMARK                         _______ _______ _______ _____ _____    ______ ____
ROOT
ATOM      1  N   UNL     1       5.879   4.132  18.876  0.00  0.00    +0.000 NA
ATOM      2  C   UNL     1       5.787   4.514  17.458  0.00  0.00    +0.000 C 
ATOM      3  C   UNL     1       7.133   4.898  16.832  0.00  0.00    +0.000 C 
ATOM      4  C   UNL     1       7.904   5.948  17.632  0.00  0.00    +0.000 C 
ATOM      5  C   UNL     1       7.950   5.542  19.107  0.00  0.00    +0.000 C 
ATOM      6  C   UNL     1       6.579   5.163  19.668  0.00  0.00    +0.000 C 
ENDROOT
BRANCH   4   7
ATOM      7  C   UNL     1       7.400   7.383  17.435  0.00  0.00    +0.000 C 
ATOM      8  O   UNL     1       6.280   7.645  17.004  0.00  0.00    +0.000 OA
ATOM      9  N   UNL     1       8.279   8.361  17.851  0.00  0.00    +0.000 N 
ATOM     10  H   UNL     1       9.254   8.133  17.993  0.00  0.00    +0.000 HD
BRANCH   9  11
ATOM     11  C   UNL     1       7.909   9.762  17.824  0.00  0.00    +0.000 C 
BRANCH  11  12
ATOM     12  C   UNL     1       8.922  10.567  18.586  0.00  0.00    +0.000 A 
ATOM     13  C   UNL     1       9.352  10.393  19.888  0.00  0.00    +0.000 A 
ATOM     14  C   UNL     1      10.282  11.392  20.294  0.00  0.00    +0.000 A 
ATOM     15  C   UNL     1      10.542  12.295  19.291  0.00  0.00    +0.000 A 
ATOM     16  S   UNL     1       9.671  11.931  17.862  0.00  0.00    +0.000 S 
ENDBRANCH  11  12
ENDBRANCH   9  11
ENDBRANCH   4   7
BRANCH   1  17
ATOM     17  C   UNL     1       4.517   3.968  19.456  0.00  0.00    +0.000 C 
BRANCH  17  23
ATOM     18  C   UNL     1       1.895   3.728  17.307  0.00  0.00    +0.000 C 
ATOM     19  C   UNL     1       2.453   4.826  18.113  0.00  0.00    +0.000 A 
ATOM     20  O   UNL     1       1.772   6.006  18.078  0.00  0.00    +0.000 OA
ATOM     21  C   UNL     1       2.460   6.832  18.922  0.00  0.00    +0.000 A 
ATOM     22  N   UNL     1       3.541   6.282  19.443  0.00  0.00    +0.000 NA
ATOM     23  C   UNL     1       3.529   4.978  18.966  0.00  0.00    +0.000 A 
BRANCH  21  24
ATOM     24  C   UNL     1       1.919   8.173  19.075  0.00  0.00    +0.000 A 
ATOM     25  C   UNL     1       1.968   9.083  18.009  0.00  0.00    +0.000 A 
ATOM     26  C   UNL     1       1.418  10.366  18.140  0.00  0.00    +0.000 A 
ATOM     27  C   UNL     1       0.826  10.753  19.342  0.00  0.00    +0.000 A 
ATOM     28  C   UNL     1       0.791   9.867  20.415  0.00  0.00    +0.000 A 
ATOM     29  C   UNL     1       1.337   8.597  20.277  0.00  0.00    +0.000 A 
ATOM     30  F   UNL     1       1.297   7.781  21.346  0.00  0.00    +0.000 F 
ENDBRANCH  21  24
ENDBRANCH  17  23
ENDBRANCH   1  17
TORSDOF 6
ENDMDL
MODEL 4
REMARK VINA RESULT:      -8.4      1.123      1.320
REMARK  Name = 
REMARK  7 active torsions:
REMARK  status: ('A' for Active; 'I' for Inactive)
REMARK    1  A    between atoms: C_1  and  C_2
REMARK    2  A    between atoms: C_4  and  C_5
REMARK    3  A    between atoms: C_13  and  C_14
REMARK    4  A    between atoms: C_14  and  N_15
REMARK    5  A    between atoms: C_18  and  C_19
REMARK    6  A    between atoms: N_21  and  C_22
REMARK    7  A    between atoms: C_22  and  C_23
REMARK                            x       y       z     vdW  Elec       q    Type
REMARK                         _______ _______ _______ _____ _____    ______ ____
ROOT
ATOM      1  N   UNL     1       5.913   4.058  18.873  0.00  0.00    +0.000 NA
ATOM      2  C   UNL     1       5.783   4.409  17.450  0.00  0.00    +0.000 C 
ATOM      3  C   UNL     1       7.104   4.819  16.790  0.00  0.00    +0.000 C 
ATOM      4  C   UNL     1       7.859   5.907  17.554  0.00  0.00    +0.000 C 
ATOM      5  C   UNL     1       7.945   5.532  19.036  0.00  0.00    +0.000 C 
ATOM      6  C   UNL     1       6.597   5.125  19.631  0.00  0.00    +0.000 C 
ENDROOT
BRANCH   4   7
ATOM      7  C   UNL     1       7.309   7.322  17.339  0.00  0.00    +0.000 C 
ATOM      8  O   UNL     1       6.204   7.543  16.851  0.00  0.00    +0.000 OA
ATOM      9  N   UNL     1       8.124   8.331  17.808  0.00  0.00    +0.000 N 
ATOM     10  H   UNL     1       9.099   8.141  18.000  0.00  0.00    +0.000 HD
BRANCH   9  11
ATOM     11  C   UNL     1       7.700   9.717  17.770  0.00  0.00    +0.000 C 
BRANCH  11  12
ATOM     12  C   UNL     1       8.736  10.580  18.429  0.00  0.00    +0.000 A 
ATOM     13  C   UNL     1       9.519  10.290  19.531  0.00  0.00    +0.000 A 
ATOM     14  C   UNL     1      10.350  11.383  19.912  0.00  0.00    +0.000 A 
ATOM     15  C   UNL     1      10.184  12.471  19.089  0.00  0.00    +0.000 A 
ATOM     16  S   UNL     1       9.035  12.171  17.856  0.00  0.00    +0.000 S 
ENDBRANCH  11  12
ENDBRANCH   9  11
ENDBRANCH   4   7
BRANCH   1  17
ATOM     17  C   UNL     1       4.568   3.866  19.483  0.00  0.00    +0.000 C 
BRANCH  17  23
ATOM     18  C   UNL     1       1.994   3.735  17.269  0.00  0.00    +0.000 C 
ATOM     19  C   UNL     1       2.507   4.778  18.172  0.00  0.00    +0.000 A 
ATOM     20  O   UNL     1       1.795   5.939  18.219  0.00  0.00    +0.000 OA
ATOM     21  C   UNL     1       2.445   6.711  19.141  0.00  0.00    +0.000 A 
ATOM     22  N   UNL     1       3.531   6.148  19.637  0.00  0.00    +0.000 NA
ATOM     23  C   UNL     1       3.562   4.887  19.056  0.00  0.00    +0.000 A 
BRANCH  21  24
ATOM     24  C   UNL     1       1.866   8.021  19.391  0.00  0.00    +0.000 A 
ATOM     25  C   UNL     1       1.338   8.334  20.652  0.00  0.00    +0.000 A 
ATOM     26  C   UNL     1       0.808   9.607  20.908  0.00  0.00    +0.000 A 
ATOM     27  C   UNL     1       0.790  10.571  19.901  0.00  0.00    +0.000 A 
ATOM     28  C   UNL     1       1.289  10.266  18.638  0.00  0.00    +0.000 A 
ATOM     29  C   UNL     1       1.814   9.003  18.393  0.00  0.00    +0.000 A 
ATOM     30  F   UNL     1       2.268   8.746  17.152  0.00  0.00    +0.000 F 
ENDBRANCH  21  24
ENDBRANCH  17  23
ENDBRANCH   1  17
TORSDOF 6
ENDMDL
MODEL 5
REMARK VINA RESULT:      -8.3      4.425      8.580
REMARK  Name = 
REMARK  7 active torsions:
REMARK  status: ('A' for Active; 'I' for Inactive)
REMARK    1  A    between atoms: C_1  and  C_2
REMARK    2  A    between atoms: C_4  and  C_5
REMARK    3  A    between atoms: C_13  and  C_14
REMARK    4  A    between atoms: C_14  and  N_15
REMARK    5  A    between atoms: C_18  and  C_19
REMARK    6  A    between atoms: N_21  and  C_22
REMARK    7  A    between atoms: C_22  and  C_23
REMARK                            x       y       z     vdW  Elec       q    Type
REMARK                         _______ _______ _______ _____ _____    ______ ____
ROOT
ATOM      1  N   UNL     1       1.653   8.121  20.659  0.00  0.00    +0.000 NA
ATOM      2  C   UNL     1       1.292   8.716  19.364  0.00  0.00    +0.000 C 
ATOM      3  C   UNL     1       1.489  10.236  19.303  0.00  0.00    +0.000 C 
ATOM      4  C   UNL     1       0.820  10.987  20.455  0.00  0.00    +0.000 C 
ATOM      5  C   UNL     1       1.184  10.321  21.785  0.00  0.00    +0.000 C 
ATOM      6  C   UNL     1       0.973   8.807  21.776  0.00  0.00    +0.000 C 
ENDROOT
BRANCH   4   7
ATOM      7  C   UNL     1      -0.693  11.173  20.288  0.00  0.00    +0.000 C 
ATOM      8  O   UNL     1      -1.481  11.125  21.229  0.00  0.00    +0.000 OA
ATOM      9  N   UNL     1      -1.093  11.476  19.003  0.00  0.00    +0.000 N 
ATOM     10  H   UNL     1      -0.469  11.298  18.227  0.00  0.00    +0.000 HD
BRANCH   9  11
ATOM     11  C   UNL     1      -2.478  11.781  18.702  0.00  0.00    +0.000 C 
BRANCH  11  12
ATOM     12  C   UNL     1      -2.872  11.118  17.414  0.00  0.00    +0.000 A 
ATOM     13  C   UNL     1      -2.129  10.254  16.632  0.00  0.00    +0.000 A 
ATOM     14  C   UNL     1      -2.810   9.873  15.440  0.00  0.00    +0.000 A 
ATOM     15  C   UNL     1      -4.054  10.450  15.349  0.00  0.00    +0.000 A 
ATOM     16  S   UNL     1      -4.400  11.441  16.701  0.00  0.00    +0.000 S 
ENDBRANCH  11  12
ENDBRANCH   9  11
ENDBRANCH   4   7
BRANCH   1  17
ATOM     17  C   UNL     1       1.249   6.688  20.700  0.00  0.00    +0.000 C 
BRANCH  17  23
ATOM     18  C   UNL     1       1.878   3.432  21.440  0.00  0.00    +0.000 C 
ATOM     19  C   UNL     1       2.519   4.415  20.552  0.00  0.00    +0.000 A 
ATOM     20  O   UNL     1       3.551   3.957  19.790  0.00  0.00    +0.000 OA
ATOM     21  C   UNL     1       3.939   5.034  19.042  0.00  0.00    +0.000 A 
ATOM     22  N   UNL     1       3.267   6.138  19.309  0.00  0.00    +0.000 NA
ATOM     23  C   UNL     1       2.321   5.748  20.248  0.00  0.00    +0.000 A 
BRANCH  21  24
ATOM     24  C   UNL     1       5.037   4.800  18.118  0.00  0.00    +0.000 A 
ATOM     25  C   UNL     1       4.790   4.268  16.844  0.00  0.00    +0.000 A 
ATOM     26  C   UNL     1       5.841   4.072  15.936  0.00  0.00    +0.000 A 
ATOM     27  C   UNL     1       7.147   4.393  16.301  0.00  0.00    +0.000 A 
ATOM     28  C   UNL     1       7.410   4.900  17.571  0.00  0.00    +0.000 A 
ATOM     29  C   UNL     1       6.363   5.094  18.464  0.00  0.00    +0.000 A 
ATOM     30  F   UNL     1       6.664   5.567  19.686  0.00  0.00    +0.000 F 
ENDBRANCH  21  24
ENDBRANCH  17  23
ENDBRANCH   1  17
TORSDOF 6
ENDMDL
MODEL 6
REMARK VINA RESULT:      -8.1      4.354      9.025
REMARK  Name = 
REMARK  7 active torsions:
REMARK  status: ('A' for Active; 'I' for Inactive)
REMARK    1  A    between atoms: C_1  and  C_2
REMARK    2  A    between atoms: C_4  and  C_5
REMARK    3  A    between atoms: C_13  and  C_14
REMARK    4  A    between atoms: C_14  and  N_15
REMARK    5  A    between atoms: C_18  and  C_19
REMARK    6  A    between atoms: N_21  and  C_22
REMARK    7  A    between atoms: C_22  and  C_23
REMARK                            x       y       z     vdW  Elec       q    Type
REMARK                         _______ _______ _______ _____ _____    ______ ____
ROOT
ATOM      1  N   UNL     1       1.346  10.083  19.501  0.00  0.00    +0.000 NA
ATOM      2  C   UNL     1       1.442  11.470  19.019  0.00  0.00    +0.000 C 
ATOM      3  C   UNL     1       1.296  12.522  20.125  0.00  0.00    +0.000 C 
ATOM      4  C   UNL     1       0.053  12.330  20.994  0.00  0.00    +0.000 C 
ATOM      5  C   UNL     1      -0.039  10.871  21.448  0.00  0.00    +0.000 C 
ATOM      6  C   UNL     1       0.122   9.874  20.301  0.00  0.00    +0.000 C 
ENDROOT
BRANCH   4   7
ATOM      7  C   UNL     1      -1.246  12.825  20.348  0.00  0.00    +0.000 C 
ATOM      8  O   UNL     1      -1.487  14.014  20.156  0.00  0.00    +0.000 OA
ATOM      9  N   UNL     1      -2.095  11.822  19.928  0.00  0.00    +0.000 N 
ATOM     10  H   UNL     1      -1.979  10.883  20.285  0.00  0.00    +0.000 HD
BRANCH   9  11
ATOM     11  C   UNL     1      -3.316  12.126  19.208  0.00  0.00    +0.000 C 
BRANCH  11  12
ATOM     12  C   UNL     1      -3.289  11.459  17.863  0.00  0.00    +0.000 A 
ATOM     13  C   UNL     1      -2.248  10.772  17.268  0.00  0.00    +0.000 A 
ATOM     14  C   UNL     1      -2.568  10.329  15.953  0.00  0.00    +0.000 A 
ATOM     15  C   UNL     1      -3.844  10.682  15.584  0.00  0.00    +0.000 A 
ATOM     16  S   UNL     1      -4.654  11.539  16.826  0.00  0.00    +0.000 S 
ENDBRANCH  11  12
ENDBRANCH   9  11
ENDBRANCH   4   7
BRANCH   1  17
ATOM     17  C   UNL     1       1.299   9.138  18.351  0.00  0.00    +0.000 C 
BRANCH  17  23
ATOM     18  C   UNL     1       1.691   6.662  20.644  0.00  0.00    +0.000 C 
ATOM     19  C   UNL     1       2.383   7.007  19.392  0.00  0.00    +0.000 A 
ATOM     20  O   UNL     1       3.357   6.146  18.983  0.00  0.00    +0.000 OA
ATOM     21  C   UNL     1       3.807   6.663  17.800  0.00  0.00    +0.000 A 
ATOM     22  N   UNL     1       3.230   7.801  17.462  0.00  0.00    +0.000 NA
ATOM     23  C   UNL     1       2.282   8.016  18.454  0.00  0.00    +0.000 A 
BRANCH  21  24
ATOM     24  C   UNL     1       4.858   5.908  17.139  0.00  0.00    +0.000 A 
ATOM     25  C   UNL     1       4.600   4.623  16.638  0.00  0.00    +0.000 A 
ATOM     26  C   UNL     1       5.602   3.904  15.969  0.00  0.00    +0.000 A 
ATOM     27  C   UNL     1       6.871   4.457  15.810  0.00  0.00    +0.000 A 
ATOM     28  C   UNL     1       7.148   5.721  16.323  0.00  0.00    +0.000 A 
ATOM     29  C   UNL     1       6.150   6.429  16.983  0.00  0.00    +0.000 A 
ATOM     30  F   UNL     1       6.467   7.638  17.479  0.00  0.00    +0.000 F 
ENDBRANCH  21  24
ENDBRANCH  17  23
ENDBRANCH   1  17
TORSDOF 6
ENDMDL
MODEL 7
REMARK VINA RESULT:      -8.1      4.030      8.569
REMARK  Name = 
REMARK  7 active torsions:
REMARK  status: ('A' for Active; 'I' for Inactive)
REMARK    1  A    between atoms: C_1  and  C_2
REMARK    2  A    between atoms: C_4  and  C_5
REMARK    3  A    between atoms: C_13  and  C_14
REMARK    4  A    between atoms: C_14  and  N_15
REMARK    5  A    between atoms: C_18  and  C_19
REMARK    6  A    between atoms: N_21  and  C_22
REMARK    7  A    between atoms: C_22  and  C_23
REMARK                            x       y       z     vdW  Elec       q    Type
REMARK                         _______ _______ _______ _____ _____    ______ ____
ROOT
ATOM      1  N   UNL     1       1.506   8.206  20.799  0.00  0.00    +0.000 NA
ATOM      2  C   UNL     1       1.166   8.900  19.547  0.00  0.00    +0.000 C 
ATOM      3  C   UNL     1       1.380  10.417  19.602  0.00  0.00    +0.000 C 
ATOM      4  C   UNL     1       0.705  11.088  20.800  0.00  0.00    +0.000 C 
ATOM      5  C   UNL     1       1.046  10.321  22.080  0.00  0.00    +0.000 C 
ATOM      6  C   UNL     1       0.820   8.815  21.956  0.00  0.00    +0.000 C 
ENDROOT
BRANCH   4   7
ATOM      7  C   UNL     1      -0.803  11.303  20.630  0.00  0.00    +0.000 C 
ATOM      8  O   UNL     1      -1.583  11.350  21.577  0.00  0.00    +0.000 OA
ATOM      9  N   UNL     1      -1.208  11.517  19.328  0.00  0.00    +0.000 N 
ATOM     10  H   UNL     1      -0.597  11.262  18.564  0.00  0.00    +0.000 HD
BRANCH   9  11
ATOM     11  C   UNL     1      -2.587  11.836  19.015  0.00  0.00    +0.000 C 
BRANCH  11  12
ATOM     12  C   UNL     1      -2.951  11.247  17.683  0.00  0.00    +0.000 A 
ATOM     13  C   UNL     1      -4.049  11.529  16.893  0.00  0.00    +0.000 A 
ATOM     14  C   UNL     1      -4.098  10.723  15.719  0.00  0.00    +0.000 A 
ATOM     15  C   UNL     1      -3.035   9.856  15.642  0.00  0.00    +0.000 A 
ATOM     16  S   UNL     1      -1.979  10.019  16.980  0.00  0.00    +0.000 S 
ENDBRANCH  11  12
ENDBRANCH   9  11
ENDBRANCH   4   7
BRANCH   1  17
ATOM     17  C   UNL     1       1.087   6.779  20.728  0.00  0.00    +0.000 C 
BRANCH  17  23
ATOM     18  C   UNL     1       1.558   3.456  21.260  0.00  0.00    +0.000 C 
ATOM     19  C   UNL     1       2.321   4.489  20.542  0.00  0.00    +0.000 A 
ATOM     20  O   UNL     1       3.430   4.065  19.873  0.00  0.00    +0.000 OA
ATOM     21  C   UNL     1       3.927   5.187  19.271  0.00  0.00    +0.000 A 
ATOM     22  N   UNL     1       3.249   6.285  19.548  0.00  0.00    +0.000 NA
ATOM     23  C   UNL     1       2.188   5.847  20.330  0.00  0.00    +0.000 A 
BRANCH  21  24
ATOM     24  C   UNL     1       5.125   4.997  18.470  0.00  0.00    +0.000 A 
ATOM     25  C   UNL     1       6.381   5.370  18.972  0.00  0.00    +0.000 A 
ATOM     26  C   UNL     1       7.543   5.158  18.215  0.00  0.00    +0.000 A 
ATOM     27  C   UNL     1       7.456   4.585  16.948  0.00  0.00    +0.000 A 
ATOM     28  C   UNL     1       6.214   4.232  16.428  0.00  0.00    +0.000 A 
ATOM     29  C   UNL     1       5.067   4.444  17.183  0.00  0.00    +0.000 A 
ATOM     30  F   UNL     1       3.887   4.105  16.634  0.00  0.00    +0.000 F 
ENDBRANCH  21  24
ENDBRANCH  17  23
ENDBRANCH   1  17
TORSDOF 6
ENDMDL
MODEL 8
REMARK VINA RESULT:      -8.0      4.314      9.028
REMARK  Name = 
REMARK  7 active torsions:
REMARK  status: ('A' for Active; 'I' for Inactive)
REMARK    1  A    between atoms: C_1  and  C_2
REMARK    2  A    between atoms: C_4  and  C_5
REMARK    3  A    between atoms: C_13  and  C_14
REMARK    4  A    between atoms: C_14  and  N_15
REMARK    5  A    between atoms: C_18  and  C_19
REMARK    6  A    between atoms: N_21  and  C_22
REMARK    7  A    between atoms: C_22  and  C_23
REMARK                            x       y       z     vdW  Elec       q    Type
REMARK                         _______ _______ _______ _____ _____    ______ ____
ROOT
ATOM      1  N   UNL     1       1.287  10.050  19.671  0.00  0.00    +0.000 NA
ATOM      2  C   UNL     1       1.348  11.451  19.228  0.00  0.00    +0.000 C 
ATOM      3  C   UNL     1       1.173  12.468  20.363  0.00  0.00    +0.000 C 
ATOM      4  C   UNL     1      -0.068  12.219  21.222  0.00  0.00    +0.000 C 
ATOM      5  C   UNL     1      -0.123  10.746  21.634  0.00  0.00    +0.000 C 
ATOM      6  C   UNL     1       0.067   9.786  20.460  0.00  0.00    +0.000 C 
ENDROOT
BRANCH   4   7
ATOM      7  C   UNL     1      -1.378  12.699  20.586  0.00  0.00    +0.000 C 
ATOM      8  O   UNL     1      -1.772  13.859  20.661  0.00  0.00    +0.000 OA
ATOM      9  N   UNL     1      -2.045  11.738  19.855  0.00  0.00    +0.000 N 
ATOM     10  H   UNL     1      -1.820  10.761  19.987  0.00  0.00    +0.000 HD
BRANCH   9  11
ATOM     11  C   UNL     1      -3.245  12.062  19.110  0.00  0.00    +0.000 C 
BRANCH  11  12
ATOM     12  C   UNL     1      -3.225  11.352  17.787  0.00  0.00    +0.000 A 
ATOM     13  C   UNL     1      -2.216  10.580  17.244  0.00  0.00    +0.000 A 
ATOM     14  C   UNL     1      -2.529  10.117  15.933  0.00  0.00    +0.000 A 
ATOM     15  C   UNL     1      -3.768  10.540  15.517  0.00  0.00    +0.000 A 
ATOM     16  S   UNL     1      -4.553  11.487  16.708  0.00  0.00    +0.000 S 
ENDBRANCH  11  12
ENDBRANCH   9  11
ENDBRANCH   4   7
BRANCH   1  17
ATOM     17  C   UNL     1       1.267   9.137  18.494  0.00  0.00    +0.000 C 
BRANCH  17  23
ATOM     18  C   UNL     1       1.625   6.590  20.715  0.00  0.00    +0.000 C 
ATOM     19  C   UNL     1       2.343   6.981  19.491  0.00  0.00    +0.000 A 
ATOM     20  O   UNL     1       3.332   6.140  19.077  0.00  0.00    +0.000 OA
ATOM     21  C   UNL     1       3.806   6.698  17.923  0.00  0.00    +0.000 A 
ATOM     22  N   UNL     1       3.228   7.843  17.608  0.00  0.00    +0.000 NA
ATOM     23  C   UNL     1       2.256   8.019  18.583  0.00  0.00    +0.000 A 
BRANCH  21  24
ATOM     24  C   UNL     1       4.878   5.972  17.262  0.00  0.00    +0.000 A 
ATOM     25  C   UNL     1       6.157   6.538  17.154  0.00  0.00    +0.000 A 
ATOM     26  C   UNL     1       7.203   5.827  16.548  0.00  0.00    +0.000 A 
ATOM     27  C   UNL     1       6.975   4.552  16.034  0.00  0.00    +0.000 A 
ATOM     28  C   UNL     1       5.705   3.987  16.114  0.00  0.00    +0.000 A 
ATOM     29  C   UNL     1       4.674   4.697  16.718  0.00  0.00    +0.000 A 
ATOM     30  F   UNL     1       3.459   4.121  16.755  0.00  0.00    +0.000 F 
ENDBRANCH  21  24
ENDBRANCH  17  23
ENDBRANCH   1  17
TORSDOF 6
ENDMDL
MODEL 9
REMARK VINA RESULT:      -8.0      4.457      8.808
REMARK  Name = 
REMARK  7 active torsions:
REMARK  status: ('A' for Active; 'I' for Inactive)
REMARK    1  A    between atoms: C_1  and  C_2
REMARK    2  A    between atoms: C_4  and  C_5
REMARK    3  A    between atoms: C_13  and  C_14
REMARK    4  A    between atoms: C_14  and  N_15
REMARK    5  A    between atoms: C_18  and  C_19
REMARK    6  A    between atoms: N_21  and  C_22
REMARK    7  A    between atoms: C_22  and  C_23
REMARK                            x       y       z     vdW  Elec       q    Type
REMARK                         _______ _______ _______ _____ _____    ______ ____
ROOT
ATOM      1  N   UNL     1       1.630   8.357  20.350  0.00  0.00    +0.000 NA
ATOM      2  C   UNL     1       1.238   8.667  18.967  0.00  0.00    +0.000 C 
ATOM      3  C   UNL     1       1.379  10.150  18.602  0.00  0.00    +0.000 C 
ATOM      4  C   UNL     1       0.691  11.093  19.590  0.00  0.00    +0.000 C 
ATOM      5  C   UNL     1       1.088  10.720  21.020  0.00  0.00    +0.000 C 
ATOM      6  C   UNL     1       0.933   9.229  21.317  0.00  0.00    +0.000 C 
ENDROOT
BRANCH   4   7
ATOM      7  C   UNL     1      -0.829  11.189  19.410  0.00  0.00    +0.000 C 
ATOM      8  O   UNL     1      -1.484  10.354  18.793  0.00  0.00    +0.000 OA
ATOM      9  N   UNL     1      -1.416  12.253  20.063  0.00  0.00    +0.000 N 
ATOM     10  H   UNL     1      -0.846  13.029  20.373  0.00  0.00    +0.000 HD
BRANCH   9  11
ATOM     11  C   UNL     1      -2.855  12.425  20.074  0.00  0.00    +0.000 C 
BRANCH  11  12
ATOM     12  C   UNL     1      -3.332  12.611  21.485  0.00  0.00    +0.000 A 
ATOM     13  C   UNL     1      -2.683  12.277  22.659  0.00  0.00    +0.000 A 
ATOM     14  C   UNL     1      -3.474  12.544  23.814  0.00  0.00    +0.000 A 
ATOM     15  C   UNL     1      -4.697  13.080  23.490  0.00  0.00    +0.000 A 
ATOM     16  S   UNL     1      -4.887  13.266  21.799  0.00  0.00    +0.000 S 
ENDBRANCH  11  12
ENDBRANCH   9  11
ENDBRANCH   4   7
BRANCH   1  17
ATOM     17  C   UNL     1       1.280   6.948  20.682  0.00  0.00    +0.000 C 
BRANCH  17  23
ATOM     18  C   UNL     1       1.563   3.594  21.155  0.00  0.00    +0.000 C 
ATOM     19  C   UNL     1       2.334   4.581  20.382  0.00  0.00    +0.000 A 
ATOM     20  O   UNL     1       3.352   4.090  19.622  0.00  0.00    +0.000 OA
ATOM     21  C   UNL     1       3.874   5.182  18.987  0.00  0.00    +0.000 A 
ATOM     22  N   UNL     1       3.298   6.320  19.325  0.00  0.00    +0.000 NA
ATOM     23  C   UNL     1       2.278   5.948  20.190  0.00  0.00    +0.000 A 
BRANCH  21  24
ATOM     24  C   UNL     1       4.986   4.919  18.088  0.00  0.00    +0.000 A 
ATOM     25  C   UNL     1       4.750   4.463  16.782  0.00  0.00    +0.000 A 
ATOM     26  C   UNL     1       5.817   4.241  15.900  0.00  0.00    +0.000 A 
ATOM     27  C   UNL     1       7.128   4.460  16.321  0.00  0.00    +0.000 A 
ATOM     28  C   UNL     1       7.378   4.891  17.620  0.00  0.00    +0.000 A 
ATOM     29  C   UNL     1       6.315   5.111  18.488  0.00  0.00    +0.000 A 
ATOM     30  F   UNL     1       6.604   5.508  19.740  0.00  0.00    +0.000 F 
ENDBRANCH  21  24
ENDBRANCH  17  23
ENDBRANCH   1  17
TORSDOF 6
ENDMDL
