MODEL 1
REMARK VINA RESULT:      -6.7      0.000      0.000
REMARK  Name = 
REMARK  6 active torsions:
REMARK  status: ('A' for Active; 'I' for Inactive)
REMARK    1  A    between atoms: O_1  and  N_2
REMARK    2  A    between atoms: C_3  and  C_4
REMARK    3  A    between atoms: N_7  and  C_8
REMARK    4  A    between atoms: C_8  and  N_9
REMARK    5  A    between atoms: C_12  and  C_13
REMARK    6  A    between atoms: N_14  and  O_15
REMARK                            x       y       z     vdW  Elec       q    Type
REMARK                         _______ _______ _______ _____ _____    ______ ____
ROOT
ATOM      1  C   UNL     1       4.720   3.894  16.385  0.00  0.00    +0.000 C 
ENDROOT
BRANCH   1   5
ATOM      2  C   UNL     1       1.689   3.324  19.198  0.00  0.00    +0.000 A 
ATOM      3  C   UNL     1       2.178   2.233  18.485  0.00  0.00    +0.000 A 
ATOM      4  C   UNL     1       3.083   2.455  17.475  0.00  0.00    +0.000 A 
ATOM      5  N   UNL     1       3.498   3.714  17.196  0.00  0.00    +0.000 N 
ATOM      6  C   UNL     1       2.920   4.788  17.801  0.00  0.00    +0.000 A 
ATOM      7  C   UNL     1       1.991   4.618  18.812  0.00  0.00    +0.000 A 
BRANCH   2   9
ATOM      8  N   UNL     1       1.790   2.539  21.415  0.00  0.00    +0.000 NA
ATOM      9  C   UNL     1       1.053   3.075  20.496  0.00  0.00    +0.000 C 
BRANCH   8  10
ATOM     10  O   UNL     1       1.077   2.433  22.609  0.00  0.00    +0.000 OA
ATOM     11  H   UNL     1       0.861   3.361  22.834  0.00  0.00    +0.000 HD
ENDBRANCH   8  10
ENDBRANCH   2   9
ENDBRANCH   1   5
BRANCH   1  12
ATOM     12  N   UNL     1       5.721   4.913  16.781  0.00  0.00    +0.000 N 
ATOM     13  C   UNL     1       6.682   4.538  17.668  0.00  0.00    +0.000 A 
ATOM     14  C   UNL     1       7.553   5.470  18.210  0.00  0.00    +0.000 A 
ATOM     15  C   UNL     1       7.444   6.799  17.825  0.00  0.00    +0.000 A 
ATOM     16  C   UNL     1       6.516   7.161  16.854  0.00  0.00    +0.000 A 
ATOM     17  C   UNL     1       5.659   6.192  16.340  0.00  0.00    +0.000 A 
BRANCH  15  18
ATOM     18  C   UNL     1       8.250   7.842  18.487  0.00  0.00    +0.000 C 
ATOM     19  N   UNL     1       8.219   9.061  18.080  0.00  0.00    +0.000 NA
BRANCH  19  20
ATOM     20  O   UNL     1       9.123   9.807  18.845  0.00  0.00    +0.000 OA
ATOM     21  H   UNL     1       8.561  10.210  19.533  0.00  0.00    +0.000 HD
ENDBRANCH  19  20
ENDBRANCH  15  18
ENDBRANCH   1  12
TORSDOF 6
ENDMDL
MODEL 2
REMARK VINA RESULT:      -6.7      4.442      6.571
REMARK  Name = 
REMARK  6 active torsions:
REMARK  status: ('A' for Active; 'I' for Inactive)
REMARK    1  A    between atoms: O_1  and  N_2
REMARK    2  A    between atoms: C_3  and  C_4
REMARK    3  A    between atoms: N_7  and  C_8
REMARK    4  A    between atoms: C_8  and  N_9
REMARK    5  A    between atoms: C_12  and  C_13
REMARK    6  A    between atoms: N_14  and  O_15
REMARK                            x       y       z     vdW  Elec       q    Type
REMARK                         _______ _______ _______ _____ _____    ______ ____
ROOT
ATOM      1  C   UNL     1       3.011   5.621  19.660  0.00  0.00    +0.000 C 
ENDROOT
BRANCH   1   5
ATOM      2  C   UNL     1       5.816   4.515  16.773  0.00  0.00    +0.000 A 
ATOM      3  C   UNL     1       4.521   4.005  16.705  0.00  0.00    +0.000 A 
ATOM      4  C   UNL     1       3.649   4.277  17.730  0.00  0.00    +0.000 A 
ATOM      5  N   UNL     1       4.044   5.040  18.778  0.00  0.00    +0.000 N 
ATOM      6  C   UNL     1       5.344   5.423  18.909  0.00  0.00    +0.000 A 
ATOM      7  C   UNL     1       6.266   5.159  17.911  0.00  0.00    +0.000 A 
BRANCH   2   9
ATOM      8  N   UNL     1       7.302   5.640  15.335  0.00  0.00    +0.000 NA
ATOM      9  C   UNL     1       6.605   4.568  15.539  0.00  0.00    +0.000 C 
BRANCH   8  10
ATOM     10  O   UNL     1       8.055   5.516  14.168  0.00  0.00    +0.000 OA
ATOM     11  H   UNL     1       7.413   5.174  13.512  0.00  0.00    +0.000 HD
ENDBRANCH   8  10
ENDBRANCH   2   9
ENDBRANCH   1   5
BRANCH   1  12
ATOM     12  N   UNL     1       2.476   6.973  19.373  0.00  0.00    +0.000 N 
ATOM     13  C   UNL     1       1.852   7.631  20.387  0.00  0.00    +0.000 A 
ATOM     14  C   UNL     1       1.186   8.825  20.157  0.00  0.00    +0.000 A 
ATOM     15  C   UNL     1       1.174   9.354  18.874  0.00  0.00    +0.000 A 
ATOM     16  C   UNL     1       1.886   8.721  17.860  0.00  0.00    +0.000 A 
ATOM     17  C   UNL     1       2.537   7.523  18.136  0.00  0.00    +0.000 A 
BRANCH  15  18
ATOM     18  C   UNL     1       0.354  10.540  18.558  0.00  0.00    +0.000 C 
ATOM     19  N   UNL     1      -0.731  10.433  17.878  0.00  0.00    +0.000 NA
BRANCH  19  20
ATOM     20  O   UNL     1      -1.257  11.714  17.678  0.00  0.00    +0.000 OA
ATOM     21  H   UNL     1      -2.014  11.559  17.082  0.00  0.00    +0.000 HD
ENDBRANCH  19  20
ENDBRANCH  15  18
ENDBRANCH   1  12
TORSDOF 6
ENDMDL
MODEL 3
REMARK VINA RESULT:      -6.6      0.509      7.023
REMARK  Name = 
REMARK  6 active torsions:
REMARK  status: ('A' for Active; 'I' for Inactive)
REMARK    1  A    between atoms: O_1  and  N_2
REMARK    2  A    between atoms: C_3  and  C_4
REMARK    3  A    between atoms: N_7  and  C_8
REMARK    4  A    between atoms: C_8  and  N_9
REMARK    5  A    between atoms: C_12  and  C_13
REMARK    6  A    between atoms: N_14  and  O_15
REMARK                            x       y       z     vdW  Elec       q    Type
REMARK                         _______ _______ _______ _____ _____    ______ ____
ROOT
ATOM      1  C   UNL     1       4.358   3.974  16.183  0.00  0.00    +0.000 C 
ENDROOT
BRANCH   1   5
ATOM      2  C   UNL     1       7.366   6.449  17.685  0.00  0.00    +0.000 A 
ATOM      3  C   UNL     1       6.303   7.009  16.980  0.00  0.00    +0.000 A 
ATOM      4  C   UNL     1       5.391   6.173  16.384  0.00  0.00    +0.000 A 
ATOM      5  N   UNL     1       5.521   4.829  16.499  0.00  0.00    +0.000 N 
ATOM      6  C   UNL     1       6.629   4.283  17.071  0.00  0.00    +0.000 A 
ATOM      7  C   UNL     1       7.587   5.083  17.670  0.00  0.00    +0.000 A 
BRANCH   2   9
ATOM      8  N   UNL     1       8.414   8.486  18.224  0.00  0.00    +0.000 NA
ATOM      9  C   UNL     1       8.095   7.300  18.630  0.00  0.00    +0.000 C 
BRANCH   8  10
ATOM     10  O   UNL     1       9.032   9.202  19.249  0.00  0.00    +0.000 OA
ATOM     11  H   UNL     1       9.938   9.357  18.912  0.00  0.00    +0.000 HD
ENDBRANCH   8  10
ENDBRANCH   2   9
ENDBRANCH   1   5
BRANCH   1  12
ATOM     12  N   UNL     1       3.423   3.579  17.263  0.00  0.00    +0.000 N 
ATOM     13  C   UNL     1       2.472   4.478  17.632  0.00  0.00    +0.000 A 
ATOM     14  C   UNL     1       1.666   4.250  18.737  0.00  0.00    +0.000 A 
ATOM     15  C   UNL     1       1.832   3.078  19.462  0.00  0.00    +0.000 A 
ATOM     16  C   UNL     1       2.747   2.124  19.029  0.00  0.00    +0.000 A 
ATOM     17  C   UNL     1       3.536   2.397  17.916  0.00  0.00    +0.000 A 
BRANCH  15  18
ATOM     18  C   UNL     1       1.101   2.866  20.726  0.00  0.00    +0.000 C 
ATOM     19  N   UNL     1       1.719   2.518  21.798  0.00  0.00    +0.000 NA
BRANCH  19  20
ATOM     20  O   UNL     1       0.774   2.328  22.812  0.00  0.00    +0.000 OA
ATOM     21  H   UNL     1       0.738   1.358  22.911  0.00  0.00    +0.000 HD
ENDBRANCH  19  20
ENDBRANCH  15  18
ENDBRANCH   1  12
TORSDOF 6
ENDMDL
MODEL 4
REMARK VINA RESULT:      -6.5      4.104      6.503
REMARK  Name = 
REMARK  6 active torsions:
REMARK  status: ('A' for Active; 'I' for Inactive)
REMARK    1  A    between atoms: O_1  and  N_2
REMARK    2  A    between atoms: C_3  and  C_4
REMARK    3  A    between atoms: N_7  and  C_8
REMARK    4  A    between atoms: C_8  and  N_9
REMARK    5  A    between atoms: C_12  and  C_13
REMARK    6  A    between atoms: N_14  and  O_15
REMARK                            x       y       z     vdW  Elec       q    Type
REMARK                         _______ _______ _______ _____ _____    ______ ____
ROOT
ATOM      1  C   UNL     1       4.156   5.176  19.325  0.00  0.00    +0.000 C 
ENDROOT
BRANCH   1   5
ATOM      2  C   UNL     1       6.420   4.357  15.915  0.00  0.00    +0.000 A 
ATOM      3  C   UNL     1       5.086   3.960  15.966  0.00  0.00    +0.000 A 
ATOM      4  C   UNL     1       4.392   4.123  17.140  0.00  0.00    +0.000 A 
ATOM      5  N   UNL     1       4.998   4.674  18.220  0.00  0.00    +0.000 N 
ATOM      6  C   UNL     1       6.334   4.936  18.211  0.00  0.00    +0.000 A 
ATOM      7  C   UNL     1       7.081   4.772  17.057  0.00  0.00    +0.000 A 
BRANCH   2   9
ATOM      8  N   UNL     1       7.861   5.543  14.480  0.00  0.00    +0.000 NA
ATOM      9  C   UNL     1       7.035   4.554  14.599  0.00  0.00    +0.000 C 
BRANCH   8  10
ATOM     10  O   UNL     1       8.421   5.559  13.203  0.00  0.00    +0.000 OA
ATOM     11  H   UNL     1       7.665   5.781  12.621  0.00  0.00    +0.000 HD
ENDBRANCH   8  10
ENDBRANCH   2   9
ENDBRANCH   1   5
BRANCH   1  12
ATOM     12  N   UNL     1       3.254   6.330  19.095  0.00  0.00    +0.000 N 
ATOM     13  C   UNL     1       3.384   7.006  17.922  0.00  0.00    +0.000 A 
ATOM     14  C   UNL     1       2.693   8.187  17.700  0.00  0.00    +0.000 A 
ATOM     15  C   UNL     1       1.848   8.670  18.691  0.00  0.00    +0.000 A 
ATOM     16  C   UNL     1       1.653   7.929  19.852  0.00  0.00    +0.000 A 
ATOM     17  C   UNL     1       2.370   6.751  20.033  0.00  0.00    +0.000 A 
BRANCH  15  18
ATOM     18  C   UNL     1       1.212   9.994  18.556  0.00  0.00    +0.000 C 
ATOM     19  N   UNL     1      -0.057  10.105  18.384  0.00  0.00    +0.000 NA
BRANCH  19  20
ATOM     20  O   UNL     1      -0.366  11.460  18.224  0.00  0.00    +0.000 OA
ATOM     21  H   UNL     1       0.281  11.765  17.561  0.00  0.00    +0.000 HD
ENDBRANCH  19  20
ENDBRANCH  15  18
ENDBRANCH   1  12
TORSDOF 6
ENDMDL
MODEL 5
REMARK VINA RESULT:      -6.5      0.625      1.251
REMARK  Name = 
REMARK  6 active torsions:
REMARK  status: ('A' for Active; 'I' for Inactive)
REMARK    1  A    between atoms: O_1  and  N_2
REMARK    2  A    between atoms: C_3  and  C_4
REMARK    3  A    between atoms: N_7  and  C_8
REMARK    4  A    between atoms: C_8  and  N_9
REMARK    5  A    between atoms: C_12  and  C_13
REMARK    6  A    between atoms: N_14  and  O_15
REMARK                            x       y       z     vdW  Elec       q    Type
REMARK                         _______ _______ _______ _____ _____    ______ ____
ROOT
ATOM      1  C   UNL     1       4.764   3.881  16.581  0.00  0.00    +0.000 C 
ENDROOT
BRANCH   1   5
ATOM      2  C   UNL     1       1.794   2.821  19.317  0.00  0.00    +0.000 A 
ATOM      3  C   UNL     1       2.963   2.067  19.245  0.00  0.00    +0.000 A 
ATOM      4  C   UNL     1       3.872   2.350  18.255  0.00  0.00    +0.000 A 
ATOM      5  N   UNL     1       3.636   3.357  17.379  0.00  0.00    +0.000 N 
ATOM      6  C   UNL     1       2.438   4.002  17.367  0.00  0.00    +0.000 A 
ATOM      7  C   UNL     1       1.481   3.741  18.332  0.00  0.00    +0.000 A 
BRANCH   2   9
ATOM      8  N   UNL     1       1.645   2.364  21.621  0.00  0.00    +0.000 NA
ATOM      9  C   UNL     1       1.030   2.796  20.567  0.00  0.00    +0.000 C 
BRANCH   8  10
ATOM     10  O   UNL     1       0.822   2.469  22.743  0.00  0.00    +0.000 OA
ATOM     11  H   UNL     1      -0.034   2.104  22.438  0.00  0.00    +0.000 HD
ENDBRANCH   8  10
ENDBRANCH   2   9
ENDBRANCH   1   5
BRANCH   1  12
ATOM     12  N   UNL     1       5.606   4.971  17.128  0.00  0.00    +0.000 N 
ATOM     13  C   UNL     1       5.302   6.245  16.759  0.00  0.00    +0.000 A 
ATOM     14  C   UNL     1       6.134   7.301  17.096  0.00  0.00    +0.000 A 
ATOM     15  C   UNL     1       7.284   7.046  17.831  0.00  0.00    +0.000 A 
ATOM     16  C   UNL     1       7.544   5.755  18.278  0.00  0.00    +0.000 A 
ATOM     17  C   UNL     1       6.682   4.725  17.913  0.00  0.00    +0.000 A 
BRANCH  15  18
ATOM     18  C   UNL     1       8.269   8.116  18.081  0.00  0.00    +0.000 C 
ATOM     19  N   UNL     1       7.965   9.351  17.901  0.00  0.00    +0.000 NA
BRANCH  19  20
ATOM     20  O   UNL     1       9.102  10.128  18.149  0.00  0.00    +0.000 OA
ATOM     21  H   UNL     1       9.714   9.504  18.584  0.00  0.00    +0.000 HD
ENDBRANCH  19  20
ENDBRANCH  15  18
ENDBRANCH   1  12
TORSDOF 6
ENDMDL
MODEL 6
REMARK VINA RESULT:      -6.5      3.557      4.307
REMARK  Name = 
REMARK  6 active torsions:
REMARK  status: ('A' for Active; 'I' for Inactive)
REMARK    1  A    between atoms: O_1  and  N_2
REMARK    2  A    between atoms: C_3  and  C_4
REMARK    3  A    between atoms: N_7  and  C_8
REMARK    4  A    between atoms: C_8  and  N_9
REMARK    5  A    between atoms: C_12  and  C_13
REMARK    6  A    between atoms: N_14  and  O_15
REMARK                            x       y       z     vdW  Elec       q    Type
REMARK                         _______ _______ _______ _____ _____    ______ ____
ROOT
ATOM      1  C   UNL     1       4.236   4.233  19.423  0.00  0.00    +0.000 C 
ENDROOT
BRANCH   1   5
ATOM      2  C   UNL     1       1.513   7.237  20.414  0.00  0.00    +0.000 A 
ATOM      3  C   UNL     1       1.394   5.980  21.003  0.00  0.00    +0.000 A 
ATOM      4  C   UNL     1       2.217   4.968  20.572  0.00  0.00    +0.000 A 
ATOM      5  N   UNL     1       3.135   5.201  19.603  0.00  0.00    +0.000 N 
ATOM      6  C   UNL     1       3.160   6.388  18.938  0.00  0.00    +0.000 A 
ATOM      7  C   UNL     1       2.338   7.434  19.321  0.00  0.00    +0.000 A 
BRANCH   2   9
ATOM      8  N   UNL     1       1.574   8.812  22.163  0.00  0.00    +0.000 NA
ATOM      9  C   UNL     1       0.939   8.388  21.117  0.00  0.00    +0.000 C 
BRANCH   8  10
ATOM     10  O   UNL     1       0.956   9.951  22.679  0.00  0.00    +0.000 OA
ATOM     11  H   UNL     1       0.080   9.628  22.973  0.00  0.00    +0.000 HD
ENDBRANCH   8  10
ENDBRANCH   2   9
ENDBRANCH   1   5
BRANCH   1  12
ATOM     12  N   UNL     1       4.971   4.188  18.137  0.00  0.00    +0.000 N 
ATOM     13  C   UNL     1       6.272   4.586  18.142  0.00  0.00    +0.000 A 
ATOM     14  C   UNL     1       6.978   4.726  16.957  0.00  0.00    +0.000 A 
ATOM     15  C   UNL     1       6.343   4.439  15.755  0.00  0.00    +0.000 A 
ATOM     16  C   UNL     1       5.041   3.949  15.764  0.00  0.00    +0.000 A 
ATOM     17  C   UNL     1       4.370   3.828  16.977  0.00  0.00    +0.000 A 
BRANCH  15  18
ATOM     18  C   UNL     1       7.009   4.716  14.468  0.00  0.00    +0.000 C 
ATOM     19  N   UNL     1       7.979   5.555  14.392  0.00  0.00    +0.000 NA
BRANCH  19  20
ATOM     20  O   UNL     1       8.367   5.664  13.052  0.00  0.00    +0.000 OA
ATOM     21  H   UNL     1       9.338   5.752  13.102  0.00  0.00    +0.000 HD
ENDBRANCH  19  20
ENDBRANCH  15  18
ENDBRANCH   1  12
TORSDOF 6
ENDMDL
MODEL 7
REMARK VINA RESULT:      -6.3      3.996      6.373
REMARK  Name = 
REMARK  6 active torsions:
REMARK  status: ('A' for Active; 'I' for Inactive)
REMARK    1  A    between atoms: O_1  and  N_2
REMARK    2  A    between atoms: C_3  and  C_4
REMARK    3  A    between atoms: N_7  and  C_8
REMARK    4  A    between atoms: C_8  and  N_9
REMARK    5  A    between atoms: C_12  and  C_13
REMARK    6  A    between atoms: N_14  and  O_15
REMARK                            x       y       z     vdW  Elec       q    Type
REMARK                         _______ _______ _______ _____ _____    ______ ____
ROOT
ATOM      1  C   UNL     1       3.841   4.987  18.987  0.00  0.00    +0.000 C 
ENDROOT
BRANCH   1   5
ATOM      2  C   UNL     1       6.329   4.428  15.683  0.00  0.00    +0.000 A 
ATOM      3  C   UNL     1       5.033   3.920  15.660  0.00  0.00    +0.000 A 
ATOM      4  C   UNL     1       4.271   4.001  16.801  0.00  0.00    +0.000 A 
ATOM      5  N   UNL     1       4.775   4.579  17.918  0.00  0.00    +0.000 N 
ATOM      6  C   UNL     1       6.082   4.953  17.980  0.00  0.00    +0.000 A 
ATOM      7  C   UNL     1       6.897   4.875  16.863  0.00  0.00    +0.000 A 
BRANCH   2   9
ATOM      8  N   UNL     1       7.910   5.611  14.400  0.00  0.00    +0.000 NA
ATOM      9  C   UNL     1       6.988   4.702  14.402  0.00  0.00    +0.000 C 
BRANCH   8  10
ATOM     10  O   UNL     1       8.496   5.707  13.138  0.00  0.00    +0.000 OA
ATOM     11  H   UNL     1       8.658   6.667  13.030  0.00  0.00    +0.000 HD
ENDBRANCH   8  10
ENDBRANCH   2   9
ENDBRANCH   1   5
BRANCH   1  12
ATOM     12  N   UNL     1       3.225   6.335  18.950  0.00  0.00    +0.000 N 
ATOM     13  C   UNL     1       2.442   6.697  20.001  0.00  0.00    +0.000 A 
ATOM     14  C   UNL     1       1.704   7.871  19.968  0.00  0.00    +0.000 A 
ATOM     15  C   UNL     1       1.784   8.686  18.847  0.00  0.00    +0.000 A 
ATOM     16  C   UNL     1       2.653   8.353  17.813  0.00  0.00    +0.000 A 
ATOM     17  C   UNL     1       3.372   7.164  17.888  0.00  0.00    +0.000 A 
BRANCH  15  18
ATOM     18  C   UNL     1       0.905   9.863  18.709  0.00  0.00    +0.000 C 
ATOM     19  N   UNL     1       1.384  11.015  18.400  0.00  0.00    +0.000 NA
BRANCH  19  20
ATOM     20  O   UNL     1       0.338  11.945  18.405  0.00  0.00    +0.000 OA
ATOM     21  H   UNL     1       0.744  12.745  18.021  0.00  0.00    +0.000 HD
ENDBRANCH  19  20
ENDBRANCH  15  18
ENDBRANCH   1  12
TORSDOF 6
ENDMDL
MODEL 8
REMARK VINA RESULT:      -6.1      4.587      5.921
REMARK  Name = 
REMARK  6 active torsions:
REMARK  status: ('A' for Active; 'I' for Inactive)
REMARK    1  A    between atoms: O_1  and  N_2
REMARK    2  A    between atoms: C_3  and  C_4
REMARK    3  A    between atoms: N_7  and  C_8
REMARK    4  A    between atoms: C_8  and  N_9
REMARK    5  A    between atoms: C_12  and  C_13
REMARK    6  A    between atoms: N_14  and  O_15
REMARK                            x       y       z     vdW  Elec       q    Type
REMARK                         _______ _______ _______ _____ _____    ______ ____
ROOT
ATOM      1  C   UNL     1       2.753   7.389  17.728  0.00  0.00    +0.000 C 
ENDROOT
BRANCH   1   5
ATOM      2  C   UNL     1       3.673   3.621  19.270  0.00  0.00    +0.000 A 
ATOM      3  C   UNL     1       4.694   4.545  19.060  0.00  0.00    +0.000 A 
ATOM      4  C   UNL     1       4.393   5.731  18.434  0.00  0.00    +0.000 A 
ATOM      5  N   UNL     1       3.122   5.995  18.047  0.00  0.00    +0.000 N 
ATOM      6  C   UNL     1       2.155   5.040  18.132  0.00  0.00    +0.000 A 
ATOM      7  C   UNL     1       2.413   3.822  18.738  0.00  0.00    +0.000 A 
BRANCH   2   9
ATOM      8  N   UNL     1       5.108   2.145  20.413  0.00  0.00    +0.000 NA
ATOM      9  C   UNL     1       3.892   2.562  20.260  0.00  0.00    +0.000 C 
BRANCH   8  10
ATOM     10  O   UNL     1       5.173   1.198  21.435  0.00  0.00    +0.000 OA
ATOM     11  H   UNL     1       4.915   1.701  22.235  0.00  0.00    +0.000 HD
ENDBRANCH   8  10
ENDBRANCH   2   9
ENDBRANCH   1   5
BRANCH   1  12
ATOM     12  N   UNL     1       2.077   8.222  18.750  0.00  0.00    +0.000 N 
ATOM     13  C   UNL     1       1.990   7.722  20.012  0.00  0.00    +0.000 A 
ATOM     14  C   UNL     1       1.236   8.364  20.982  0.00  0.00    +0.000 A 
ATOM     15  C   UNL     1       0.575   9.540  20.654  0.00  0.00    +0.000 A 
ATOM     16  C   UNL     1       0.737  10.091  19.387  0.00  0.00    +0.000 A 
ATOM     17  C   UNL     1       1.502   9.411  18.444  0.00  0.00    +0.000 A 
BRANCH  15  18
ATOM     18  C   UNL     1      -0.355  10.172  21.610  0.00  0.00    +0.000 C 
ATOM     19  N   UNL     1       0.065  10.640  22.731  0.00  0.00    +0.000 NA
BRANCH  19  20
ATOM     20  O   UNL     1      -1.036  11.114  23.453  0.00  0.00    +0.000 OA
ATOM     21  H   UNL     1      -0.680  11.244  24.352  0.00  0.00    +0.000 HD
ENDBRANCH  19  20
ENDBRANCH  15  18
ENDBRANCH   1  12
TORSDOF 6
ENDMDL
MODEL 9
REMARK VINA RESULT:      -6.1      4.184      5.073
REMARK  Name = 
REMARK  6 active torsions:
REMARK  status: ('A' for Active; 'I' for Inactive)
REMARK    1  A    between atoms: O_1  and  N_2
REMARK    2  A    between atoms: C_3  and  C_4
REMARK    3  A    between atoms: N_7  and  C_8
REMARK    4  A    between atoms: C_8  and  N_9
REMARK    5  A    between atoms: C_12  and  C_13
REMARK    6  A    between atoms: N_14  and  O_15
REMARK                            x       y       z     vdW  Elec       q    Type
REMARK                         _______ _______ _______ _____ _____    ______ ____
ROOT
ATOM      1  C   UNL     1       3.299   5.156  19.915  0.00  0.00    +0.000 C 
ENDROOT
BRANCH   1   5
ATOM      2  C   UNL     1       1.249   8.792  19.955  0.00  0.00    +0.000 A 
ATOM      3  C   UNL     1       1.033   7.870  20.977  0.00  0.00    +0.000 A 
ATOM      4  C   UNL     1       1.616   6.630  20.882  0.00  0.00    +0.000 A 
ATOM      5  N   UNL     1       2.399   6.324  19.819  0.00  0.00    +0.000 N 
ATOM      6  C   UNL     1       2.499   7.173  18.760  0.00  0.00    +0.000 A 
ATOM      7  C   UNL     1       1.915   8.428  18.799  0.00  0.00    +0.000 A 
BRANCH   2   9
ATOM      8  N   UNL     1       1.032  10.586  21.464  0.00  0.00    +0.000 NA
ATOM      9  C   UNL     1       0.971  10.205  20.228  0.00  0.00    +0.000 C 
BRANCH   8  10
ATOM     10  O   UNL     1       0.822  11.961  21.560  0.00  0.00    +0.000 OA
ATOM     11  H   UNL     1       0.028  12.115  21.008  0.00  0.00    +0.000 HD
ENDBRANCH   8  10
ENDBRANCH   2   9
ENDBRANCH   1   5
BRANCH   1  12
ATOM     12  N   UNL     1       4.283   4.897  18.836  0.00  0.00    +0.000 N 
ATOM     13  C   UNL     1       5.585   5.196  19.089  0.00  0.00    +0.000 A 
ATOM     14  C   UNL     1       6.538   5.134  18.083  0.00  0.00    +0.000 A 
ATOM     15  C   UNL     1       6.147   4.748  16.807  0.00  0.00    +0.000 A 
ATOM     16  C   UNL     1       4.832   4.361  16.577  0.00  0.00    +0.000 A 
ATOM     17  C   UNL     1       3.909   4.441  17.616  0.00  0.00    +0.000 A 
BRANCH  15  18
ATOM     18  C   UNL     1       7.096   4.813  15.679  0.00  0.00    +0.000 C 
ATOM     19  N   UNL     1       6.884   5.594  14.680  0.00  0.00    +0.000 NA
BRANCH  19  20
ATOM     20  O   UNL     1       7.904   5.399  13.742  0.00  0.00    +0.000 OA
ATOM     21  H   UNL     1       7.657   5.996  13.010  0.00  0.00    +0.000 HD
ENDBRANCH  19  20
ENDBRANCH  15  18
ENDBRANCH   1  12
TORSDOF 6
ENDMDL
