MODEL 1
REMARK VINA RESULT:      -8.1      0.000      0.000
REMARK  Name = 
REMARK  7 active torsions:
REMARK  status: ('A' for Active; 'I' for Inactive)
REMARK    1  A    between atoms: C_1  and  C_2
REMARK    2  A    between atoms: C_2  and  C_3
REMARK    3  A    between atoms: C_2  and  N_4
REMARK    4  A    between atoms: N_4  and  C_5
REMARK    5  A    between atoms: C_5  and  C_6
REMARK    6  A    between atoms: C_10  and  C_11
REMARK    7  A    between atoms: C_17  and  C_19
REMARK                            x       y       z     vdW  Elec       q    Type
REMARK                         _______ _______ _______ _____ _____    ______ ____
ROOT
ATOM      1  N   UNL     1       3.073   3.882  19.628  0.00  0.00    +0.000 N 
ATOM      2  C   UNL     1       3.504   3.187  18.471  0.00  0.00    +0.000 C 
ATOM      3  O   UNL     1       2.994   2.064  18.279  0.00  0.00    +0.000 OA
ENDROOT
BRANCH   2   4
ATOM      4  C   UNL     1       4.464   3.640  17.455  0.00  0.00    +0.000 A 
ATOM      5  C   UNL     1       4.257   3.445  16.095  0.00  0.00    +0.000 A 
ATOM      6  C   UNL     1       5.316   4.037  15.389  0.00  0.00    +0.000 A 
ATOM      7  C   UNL     1       5.604   4.187  14.017  0.00  0.00    +0.000 A 
ATOM      8  C   UNL     1       6.810   4.775  13.646  0.00  0.00    +0.000 A 
ATOM      9  C   UNL     1       7.715   5.191  14.615  0.00  0.00    +0.000 A 
ATOM     10  C   UNL     1       7.426   5.083  15.997  0.00  0.00    +0.000 A 
ATOM     11  C   UNL     1       6.201   4.507  16.347  0.00  0.00    +0.000 A 
ATOM     12  O   UNL     1       5.676   4.293  17.624  0.00  0.00    +0.000 OA
ENDBRANCH   2   4
BRANCH   1  14
ATOM     13  C   UNL     1       2.134   3.196  21.954  0.00  0.00    +0.000 C 
ATOM     14  C   UNL     1       1.954   3.226  20.410  0.00  0.00    +0.000 C 
ATOM     15  C   UNL     1       0.541   3.755  20.155  0.00  0.00    +0.000 C 
ENDBRANCH   1  14
BRANCH   1  16
ATOM     16  C   UNL     1       3.562   5.230  19.972  0.00  0.00    +0.000 C 
BRANCH  16  17
ATOM     17  C   UNL     1       2.764   6.431  19.471  0.00  0.00    +0.000 A 
ATOM     18  C   UNL     1       2.776   6.851  18.140  0.00  0.00    +0.000 A 
ATOM     19  C   UNL     1       2.237   8.091  17.784  0.00  0.00    +0.000 A 
ATOM     20  C   UNL     1       1.613   8.898  18.738  0.00  0.00    +0.000 A 
ATOM     21  C   UNL     1       1.438   8.442  20.046  0.00  0.00    +0.000 A 
ATOM     22  C   UNL     1       2.037   7.217  20.404  0.00  0.00    +0.000 A 
BRANCH  21  23
ATOM     23  C   UNL     1       0.662   9.236  21.032  0.00  0.00    +0.000 A 
ATOM     24  C   UNL     1       0.426   8.982  22.371  0.00  0.00    +0.000 A 
ATOM     25  C   UNL     1      -0.391   9.973  22.997  0.00  0.00    +0.000 A 
ATOM     26  C   UNL     1      -0.764  10.962  22.120  0.00  0.00    +0.000 A 
ATOM     27  S   UNL     1      -0.141  10.691  20.555  0.00  0.00    +0.000 S 
ENDBRANCH  21  23
ENDBRANCH  16  17
ENDBRANCH   1  16
TORSDOF 5
ENDMDL
MODEL 2
REMARK VINA RESULT:      -7.8      0.561      1.140
REMARK  Name = 
REMARK  7 active torsions:
REMARK  status: ('A' for Active; 'I' for Inactive)
REMARK    1  A    between atoms: C_1  and  C_2
REMARK    2  A    between atoms: C_2  and  C_3
REMARK    3  A    between atoms: C_2  and  N_4
REMARK    4  A    between atoms: N_4  and  C_5
REMARK    5  A    between atoms: C_5  and  C_6
REMARK    6  A    between atoms: C_10  and  C_11
REMARK    7  A    between atoms: C_17  and  C_19
REMARK                            x       y       z     vdW  Elec       q    Type
REMARK                         _______ _______ _______ _____ _____    ______ ____
ROOT
ATOM      1  N   UNL     1       3.057   3.892  19.534  0.00  0.00    +0.000 N 
ATOM      2  C   UNL     1       3.400   3.184  18.357  0.00  0.00    +0.000 C 
ATOM      3  O   UNL     1       2.852   2.072  18.202  0.00  0.00    +0.000 OA
ENDROOT
BRANCH   2   4
ATOM      4  C   UNL     1       4.305   3.610  17.281  0.00  0.00    +0.000 A 
ATOM      5  C   UNL     1       5.495   4.281  17.530  0.00  0.00    +0.000 A 
ATOM      6  C   UNL     1       6.156   4.497  16.310  0.00  0.00    +0.000 A 
ATOM      7  C   UNL     1       7.394   5.075  15.967  0.00  0.00    +0.000 A 
ATOM      8  C   UNL     1       7.722   5.204  14.619  0.00  0.00    +0.000 A 
ATOM      9  C   UNL     1       6.834   4.780  13.637  0.00  0.00    +0.000 A 
ATOM     10  C   UNL     1       5.603   4.163  13.966  0.00  0.00    +0.000 A 
ATOM     11  C   UNL     1       5.302   4.027  15.324  0.00  0.00    +0.000 A 
ATOM     12  O   UNL     1       4.170   3.454  15.909  0.00  0.00    +0.000 OA
ENDBRANCH   2   4
BRANCH   1  14
ATOM     13  C   UNL     1       2.188   3.348  21.924  0.00  0.00    +0.000 C 
ATOM     14  C   UNL     1       1.973   3.266  20.386  0.00  0.00    +0.000 C 
ATOM     15  C   UNL     1       0.541   3.743  20.130  0.00  0.00    +0.000 C 
ENDBRANCH   1  14
BRANCH   1  16
ATOM     16  C   UNL     1       3.598   5.230  19.841  0.00  0.00    +0.000 C 
BRANCH  16  17
ATOM     17  C   UNL     1       2.799   6.447  19.383  0.00  0.00    +0.000 A 
ATOM     18  C   UNL     1       2.815   6.918  18.069  0.00  0.00    +0.000 A 
ATOM     19  C   UNL     1       2.276   8.170  17.758  0.00  0.00    +0.000 A 
ATOM     20  C   UNL     1       1.648   8.939  18.739  0.00  0.00    +0.000 A 
ATOM     21  C   UNL     1       1.469   8.434  20.028  0.00  0.00    +0.000 A 
ATOM     22  C   UNL     1       2.069   7.197  20.342  0.00  0.00    +0.000 A 
BRANCH  21  23
ATOM     23  C   UNL     1       0.688   9.190  21.041  0.00  0.00    +0.000 A 
ATOM     24  C   UNL     1       0.063   8.731  22.186  0.00  0.00    +0.000 A 
ATOM     25  C   UNL     1      -0.615   9.760  22.908  0.00  0.00    +0.000 A 
ATOM     26  C   UNL     1      -0.495  10.983  22.296  0.00  0.00    +0.000 A 
ATOM     27  S   UNL     1       0.420  10.887  20.860  0.00  0.00    +0.000 S 
ENDBRANCH  21  23
ENDBRANCH  16  17
ENDBRANCH   1  16
TORSDOF 5
ENDMDL
MODEL 3
REMARK VINA RESULT:      -7.6      0.938      1.633
REMARK  Name = 
REMARK  7 active torsions:
REMARK  status: ('A' for Active; 'I' for Inactive)
REMARK    1  A    between atoms: C_1  and  C_2
REMARK    2  A    between atoms: C_2  and  C_3
REMARK    3  A    between atoms: C_2  and  N_4
REMARK    4  A    between atoms: N_4  and  C_5
REMARK    5  A    between atoms: C_5  and  C_6
REMARK    6  A    between atoms: C_10  and  C_11
REMARK    7  A    between atoms: C_17  and  C_19
REMARK                            x       y       z     vdW  Elec       q    Type
REMARK                         _______ _______ _______ _____ _____    ______ ____
ROOT
ATOM      1  N   UNL     1       2.764   4.462  19.922  0.00  0.00    +0.000 N 
ATOM      2  C   UNL     1       3.137   3.609  18.855  0.00  0.00    +0.000 C 
ATOM      3  O   UNL     1       2.593   2.486  18.828  0.00  0.00    +0.000 OA
ENDROOT
BRANCH   2   4
ATOM      4  C   UNL     1       4.072   3.897  17.758  0.00  0.00    +0.000 A 
ATOM      5  C   UNL     1       5.370   4.338  17.981  0.00  0.00    +0.000 A 
ATOM      6  C   UNL     1       6.022   4.466  16.744  0.00  0.00    +0.000 A 
ATOM      7  C   UNL     1       7.333   4.823  16.371  0.00  0.00    +0.000 A 
ATOM      8  C   UNL     1       7.638   4.928  15.016  0.00  0.00    +0.000 A 
ATOM      9  C   UNL     1       6.660   4.697  14.057  0.00  0.00    +0.000 A 
ATOM     10  C   UNL     1       5.348   4.301  14.413  0.00  0.00    +0.000 A 
ATOM     11  C   UNL     1       5.069   4.183  15.778  0.00  0.00    +0.000 A 
ATOM     12  O   UNL     1       3.870   3.805  16.389  0.00  0.00    +0.000 OA
ENDBRANCH   2   4
BRANCH   1  14
ATOM     13  C   UNL     1       0.414   3.360  20.088  0.00  0.00    +0.000 C 
ATOM     14  C   UNL     1       1.656   3.947  20.818  0.00  0.00    +0.000 C 
ATOM     15  C   UNL     1       2.056   2.915  21.875  0.00  0.00    +0.000 C 
ENDBRANCH   1  14
BRANCH   1  16
ATOM     16  C   UNL     1       3.298   5.829  20.070  0.00  0.00    +0.000 C 
BRANCH  16  17
ATOM     17  C   UNL     1       2.467   6.985  19.519  0.00  0.00    +0.000 A 
ATOM     18  C   UNL     1       2.479   7.357  18.174  0.00  0.00    +0.000 A 
ATOM     19  C   UNL     1       1.905   8.567  17.769  0.00  0.00    +0.000 A 
ATOM     20  C   UNL     1       1.248   9.388  18.688  0.00  0.00    +0.000 A 
ATOM     21  C   UNL     1       1.075   8.974  20.010  0.00  0.00    +0.000 A 
ATOM     22  C   UNL     1       1.708   7.781  20.417  0.00  0.00    +0.000 A 
BRANCH  21  23
ATOM     23  C   UNL     1       0.266   9.779  20.961  0.00  0.00    +0.000 A 
ATOM     24  C   UNL     1      -0.430  10.954  20.743  0.00  0.00    +0.000 A 
ATOM     25  C   UNL     1      -1.080  11.448  21.914  0.00  0.00    +0.000 A 
ATOM     26  C   UNL     1      -0.864  10.641  23.003  0.00  0.00    +0.000 A 
ATOM     27  S   UNL     1       0.122   9.304  22.616  0.00  0.00    +0.000 S 
ENDBRANCH  21  23
ENDBRANCH  16  17
ENDBRANCH   1  16
TORSDOF 5
ENDMDL
MODEL 4
REMARK VINA RESULT:      -7.5      1.871      2.164
REMARK  Name = 
REMARK  7 active torsions:
REMARK  status: ('A' for Active; 'I' for Inactive)
REMARK    1  A    between atoms: C_1  and  C_2
REMARK    2  A    between atoms: C_2  and  C_3
REMARK    3  A    between atoms: C_2  and  N_4
REMARK    4  A    between atoms: N_4  and  C_5
REMARK    5  A    between atoms: C_5  and  C_6
REMARK    6  A    between atoms: C_10  and  C_11
REMARK    7  A    between atoms: C_17  and  C_19
REMARK                            x       y       z     vdW  Elec       q    Type
REMARK                         _______ _______ _______ _____ _____    ______ ____
ROOT
ATOM      1  N   UNL     1       2.767   3.737  19.987  0.00  0.00    +0.000 N 
ATOM      2  C   UNL     1       3.846   3.616  19.078  0.00  0.00    +0.000 C 
ATOM      3  O   UNL     1       3.875   2.574  18.390  0.00  0.00    +0.000 OA
ENDROOT
BRANCH   2   4
ATOM      4  C   UNL     1       4.925   4.582  18.828  0.00  0.00    +0.000 A 
ATOM      5  C   UNL     1       4.905   5.460  17.752  0.00  0.00    +0.000 A 
ATOM      6  C   UNL     1       6.039   6.285  17.822  0.00  0.00    +0.000 A 
ATOM      7  C   UNL     1       6.505   7.363  17.042  0.00  0.00    +0.000 A 
ATOM      8  C   UNL     1       7.740   7.927  17.350  0.00  0.00    +0.000 A 
ATOM      9  C   UNL     1       8.499   7.424  18.400  0.00  0.00    +0.000 A 
ATOM     10  C   UNL     1       8.030   6.367  19.217  0.00  0.00    +0.000 A 
ATOM     11  C   UNL     1       6.779   5.827  18.902  0.00  0.00    +0.000 A 
ATOM     12  O   UNL     1       6.092   4.796  19.546  0.00  0.00    +0.000 OA
ENDBRANCH   2   4
BRANCH   1  14
ATOM     13  C   UNL     1       0.971   2.333  21.240  0.00  0.00    +0.000 C 
ATOM     14  C   UNL     1       1.719   2.645  19.913  0.00  0.00    +0.000 C 
ATOM     15  C   UNL     1       0.638   2.808  18.842  0.00  0.00    +0.000 C 
ENDBRANCH   1  14
BRANCH   1  16
ATOM     16  C   UNL     1       2.580   4.923  20.844  0.00  0.00    +0.000 C 
BRANCH  16  17
ATOM     17  C   UNL     1       2.078   6.207  20.190  0.00  0.00    +0.000 A 
ATOM     18  C   UNL     1       2.307   6.517  18.849  0.00  0.00    +0.000 A 
ATOM     19  C   UNL     1       2.051   7.805  18.366  0.00  0.00    +0.000 A 
ATOM     20  C   UNL     1       1.495   8.780  19.196  0.00  0.00    +0.000 A 
ATOM     21  C   UNL     1       1.104   8.463  20.498  0.00  0.00    +0.000 A 
ATOM     22  C   UNL     1       1.421   7.179  20.989  0.00  0.00    +0.000 A 
BRANCH  21  23
ATOM     23  C   UNL     1       0.393   9.456  21.344  0.00  0.00    +0.000 A 
ATOM     24  C   UNL     1      -0.192   9.291  22.586  0.00  0.00    +0.000 A 
ATOM     25  C   UNL     1      -0.804  10.482  23.082  0.00  0.00    +0.000 A 
ATOM     26  C   UNL     1      -0.677  11.531  22.206  0.00  0.00    +0.000 A 
ATOM     27  S   UNL     1       0.167  11.079  20.794  0.00  0.00    +0.000 S 
ENDBRANCH  21  23
ENDBRANCH  16  17
ENDBRANCH   1  16
TORSDOF 5
ENDMDL
MODEL 5
REMARK VINA RESULT:      -7.4      3.054      7.715
REMARK  Name = 
REMARK  7 active torsions:
REMARK  status: ('A' for Active; 'I' for Inactive)
REMARK    1  A    between atoms: C_1  and  C_2
REMARK    2  A    between atoms: C_2  and  C_3
REMARK    3  A    between atoms: C_2  and  N_4
REMARK    4  A    between atoms: N_4  and  C_5
REMARK    5  A    between atoms: C_5  and  C_6
REMARK    6  A    between atoms: C_10  and  C_11
REMARK    7  A    between atoms: C_17  and  C_19
REMARK                            x       y       z     vdW  Elec       q    Type
REMARK                         _______ _______ _______ _____ _____    ______ ____
ROOT
ATOM      1  N   UNL     1       2.682   4.261  19.185  0.00  0.00    +0.000 N 
ATOM      2  C   UNL     1       2.264   5.163  20.195  0.00  0.00    +0.000 C 
ATOM      3  O   UNL     1       2.159   4.692  21.347  0.00  0.00    +0.000 OA
ENDROOT
BRANCH   2   4
ATOM      4  C   UNL     1       1.963   6.594  20.054  0.00  0.00    +0.000 A 
ATOM      5  C   UNL     1       2.260   7.309  18.901  0.00  0.00    +0.000 A 
ATOM      6  C   UNL     1       1.802   8.626  19.056  0.00  0.00    +0.000 A 
ATOM      7  C   UNL     1       1.789   9.755  18.212  0.00  0.00    +0.000 A 
ATOM      8  C   UNL     1       1.314  10.963  18.717  0.00  0.00    +0.000 A 
ATOM      9  C   UNL     1       0.875  11.050  20.032  0.00  0.00    +0.000 A 
ATOM     10  C   UNL     1       0.846   9.918  20.882  0.00  0.00    +0.000 A 
ATOM     11  C   UNL     1       1.309   8.711  20.349  0.00  0.00    +0.000 A 
ATOM     12  O   UNL     1       1.378   7.459  20.967  0.00  0.00    +0.000 OA
ENDBRANCH   2   4
BRANCH   1  14
ATOM     13  C   UNL     1       2.717   1.706  18.699  0.00  0.00    +0.000 C 
ATOM     14  C   UNL     1       3.070   2.876  19.661  0.00  0.00    +0.000 C 
ATOM     15  C   UNL     1       4.534   2.675  20.057  0.00  0.00    +0.000 C 
ENDBRANCH   1  14
BRANCH   1  16
ATOM     16  C   UNL     1       2.882   4.675  17.784  0.00  0.00    +0.000 C 
BRANCH  16  17
ATOM     17  C   UNL     1       4.311   4.908  17.303  0.00  0.00    +0.000 A 
ATOM     18  C   UNL     1       5.274   5.568  18.069  0.00  0.00    +0.000 A 
ATOM     19  C   UNL     1       6.480   5.976  17.492  0.00  0.00    +0.000 A 
ATOM     20  C   UNL     1       6.775   5.668  16.162  0.00  0.00    +0.000 A 
ATOM     21  C   UNL     1       5.909   4.871  15.411  0.00  0.00    +0.000 A 
ATOM     22  C   UNL     1       4.671   4.516  15.986  0.00  0.00    +0.000 A 
BRANCH  21  23
ATOM     23  C   UNL     1       6.275   4.430  14.040  0.00  0.00    +0.000 A 
ATOM     24  C   UNL     1       5.641   3.520  13.214  0.00  0.00    +0.000 A 
ATOM     25  C   UNL     1       6.305   3.338  11.963  0.00  0.00    +0.000 A 
ATOM     26  C   UNL     1       7.435   4.112  11.862  0.00  0.00    +0.000 A 
ATOM     27  S   UNL     1       7.695   5.042  13.269  0.00  0.00    +0.000 S 
ENDBRANCH  21  23
ENDBRANCH  16  17
ENDBRANCH   1  16
TORSDOF 5
ENDMDL
MODEL 6
REMARK VINA RESULT:      -7.4      2.921      7.727
REMARK  Name = 
REMARK  7 active torsions:
REMARK  status: ('A' for Active; 'I' for Inactive)
REMARK    1  A    between atoms: C_1  and  C_2
REMARK    2  A    between atoms: C_2  and  C_3
REMARK    3  A    between atoms: C_2  and  N_4
REMARK    4  A    between atoms: N_4  and  C_5
REMARK    5  A    between atoms: C_5  and  C_6
REMARK    6  A    between atoms: C_10  and  C_11
REMARK    7  A    between atoms: C_17  and  C_19
REMARK                            x       y       z     vdW  Elec       q    Type
REMARK                         _______ _______ _______ _____ _____    ______ ____
ROOT
ATOM      1  N   UNL     1       2.664   4.322  19.187  0.00  0.00    +0.000 N 
ATOM      2  C   UNL     1       2.199   5.270  20.131  0.00  0.00    +0.000 C 
ATOM      3  O   UNL     1       2.014   4.848  21.292  0.00  0.00    +0.000 OA
ENDROOT
BRANCH   2   4
ATOM      4  C   UNL     1       1.930   6.698  19.915  0.00  0.00    +0.000 A 
ATOM      5  C   UNL     1       1.340   7.501  20.882  0.00  0.00    +0.000 A 
ATOM      6  C   UNL     1       1.271   8.817  20.397  0.00  0.00    +0.000 A 
ATOM      7  C   UNL     1       0.823  10.033  20.950  0.00  0.00    +0.000 A 
ATOM      8  C   UNL     1       0.824  11.173  20.151  0.00  0.00    +0.000 A 
ATOM      9  C   UNL     1       1.248  11.102  18.829  0.00  0.00    +0.000 A 
ATOM     10  C   UNL     1       1.737   9.897  18.269  0.00  0.00    +0.000 A 
ATOM     11  C   UNL     1       1.745   8.769  19.095  0.00  0.00    +0.000 A 
ATOM     12  O   UNL     1       2.178   7.476  18.793  0.00  0.00    +0.000 OA
ENDBRANCH   2   4
BRANCH   1  14
ATOM     13  C   UNL     1       2.391   1.745  18.974  0.00  0.00    +0.000 C 
ATOM     14  C   UNL     1       3.000   2.953  19.741  0.00  0.00    +0.000 C 
ATOM     15  C   UNL     1       4.485   2.636  19.926  0.00  0.00    +0.000 C 
ENDBRANCH   1  14
BRANCH   1  16
ATOM     16  C   UNL     1       2.958   4.677  17.786  0.00  0.00    +0.000 C 
BRANCH  16  17
ATOM     17  C   UNL     1       4.403   5.000  17.417  0.00  0.00    +0.000 A 
ATOM     18  C   UNL     1       5.282   5.653  18.283  0.00  0.00    +0.000 A 
ATOM     19  C   UNL     1       6.502   6.149  17.814  0.00  0.00    +0.000 A 
ATOM     20  C   UNL     1       6.897   5.936  16.491  0.00  0.00    +0.000 A 
ATOM     21  C   UNL     1       6.120   5.149  15.639  0.00  0.00    +0.000 A 
ATOM     22  C   UNL     1       4.866   4.706  16.107  0.00  0.00    +0.000 A 
BRANCH  21  23
ATOM     23  C   UNL     1       6.595   4.809  14.273  0.00  0.00    +0.000 A 
ATOM     24  C   UNL     1       7.622   5.372  13.536  0.00  0.00    +0.000 A 
ATOM     25  C   UNL     1       7.770   4.788  12.241  0.00  0.00    +0.000 A 
ATOM     26  C   UNL     1       6.851   3.793  12.016  0.00  0.00    +0.000 A 
ATOM     27  S   UNL     1       5.814   3.572  13.352  0.00  0.00    +0.000 S 
ENDBRANCH  21  23
ENDBRANCH  16  17
ENDBRANCH   1  16
TORSDOF 5
ENDMDL
MODEL 7
REMARK VINA RESULT:      -7.3      5.049      7.445
REMARK  Name = 
REMARK  7 active torsions:
REMARK  status: ('A' for Active; 'I' for Inactive)
REMARK    1  A    between atoms: C_1  and  C_2
REMARK    2  A    between atoms: C_2  and  C_3
REMARK    3  A    between atoms: C_2  and  N_4
REMARK    4  A    between atoms: N_4  and  C_5
REMARK    5  A    between atoms: C_5  and  C_6
REMARK    6  A    between atoms: C_10  and  C_11
REMARK    7  A    between atoms: C_17  and  C_19
REMARK                            x       y       z     vdW  Elec       q    Type
REMARK                         _______ _______ _______ _____ _____    ______ ____
ROOT
ATOM      1  N   UNL     1      -0.054  11.177  19.138  0.00  0.00    +0.000 N 
ATOM      2  C   UNL     1       1.282  10.717  19.047  0.00  0.00    +0.000 C 
ATOM      3  O   UNL     1       2.170  11.594  19.050  0.00  0.00    +0.000 OA
ENDROOT
BRANCH   2   4
ATOM      4  C   UNL     1       1.752   9.326  18.973  0.00  0.00    +0.000 A 
ATOM      5  C   UNL     1       2.416   8.821  17.863  0.00  0.00    +0.000 A 
ATOM      6  C   UNL     1       2.782   7.491  18.123  0.00  0.00    +0.000 A 
ATOM      7  C   UNL     1       3.499   6.521  17.393  0.00  0.00    +0.000 A 
ATOM      8  C   UNL     1       3.622   5.239  17.923  0.00  0.00    +0.000 A 
ATOM      9  C   UNL     1       3.034   4.926  19.143  0.00  0.00    +0.000 A 
ATOM     10  C   UNL     1       2.343   5.897  19.907  0.00  0.00    +0.000 A 
ATOM     11  C   UNL     1       2.248   7.182  19.365  0.00  0.00    +0.000 A 
ATOM     12  O   UNL     1       1.634   8.312  19.912  0.00  0.00    +0.000 OA
ENDBRANCH   2   4
BRANCH   1  14
ATOM     13  C   UNL     1      -0.522  13.508  18.085  0.00  0.00    +0.000 C 
ATOM     14  C   UNL     1      -0.223  12.666  19.358  0.00  0.00    +0.000 C 
ATOM     15  C   UNL     1      -1.257  13.090  20.403  0.00  0.00    +0.000 C 
ENDBRANCH   1  14
BRANCH   1  16
ATOM     16  C   UNL     1      -1.209  10.259  19.178  0.00  0.00    +0.000 C 
BRANCH  16  17
ATOM     17  C   UNL     1      -2.257  10.380  18.076  0.00  0.00    +0.000 A 
ATOM     18  C   UNL     1      -2.064   9.890  16.784  0.00  0.00    +0.000 A 
ATOM     19  C   UNL     1      -2.938  10.246  15.752  0.00  0.00    +0.000 A 
ATOM     20  C   UNL     1      -4.060  11.036  16.010  0.00  0.00    +0.000 A 
ATOM     21  C   UNL     1      -4.377  11.412  17.317  0.00  0.00    +0.000 A 
ATOM     22  C   UNL     1      -3.456  11.096  18.337  0.00  0.00    +0.000 A 
BRANCH  21  23
ATOM     23  C   UNL     1      -5.637  12.141  17.616  0.00  0.00    +0.000 A 
ATOM     24  C   UNL     1      -6.330  13.049  16.837  0.00  0.00    +0.000 A 
ATOM     25  C   UNL     1      -7.501  13.560  17.476  0.00  0.00    +0.000 A 
ATOM     26  C   UNL     1      -7.674  13.032  18.732  0.00  0.00    +0.000 A 
ATOM     27  S   UNL     1      -6.431  11.937  19.138  0.00  0.00    +0.000 S 
ENDBRANCH  21  23
ENDBRANCH  16  17
ENDBRANCH   1  16
TORSDOF 5
ENDMDL
MODEL 8
REMARK VINA RESULT:      -7.2      4.488      7.228
REMARK  Name = 
REMARK  7 active torsions:
REMARK  status: ('A' for Active; 'I' for Inactive)
REMARK    1  A    between atoms: C_1  and  C_2
REMARK    2  A    between atoms: C_2  and  C_3
REMARK    3  A    between atoms: C_2  and  N_4
REMARK    4  A    between atoms: N_4  and  C_5
REMARK    5  A    between atoms: C_5  and  C_6
REMARK    6  A    between atoms: C_10  and  C_11
REMARK    7  A    between atoms: C_17  and  C_19
REMARK                            x       y       z     vdW  Elec       q    Type
REMARK                         _______ _______ _______ _____ _____    ______ ____
ROOT
ATOM      1  N   UNL     1       0.135  11.387  20.962  0.00  0.00    +0.000 N 
ATOM      2  C   UNL     1       0.700  10.184  21.451  0.00  0.00    +0.000 C 
ATOM      3  O   UNL     1       0.718  10.045  22.692  0.00  0.00    +0.000 OA
ENDROOT
BRANCH   2   4
ATOM      4  C   UNL     1       1.247   9.065  20.671  0.00  0.00    +0.000 A 
ATOM      5  C   UNL     1       1.333   7.774  21.177  0.00  0.00    +0.000 A 
ATOM      6  C   UNL     1       1.842   6.930  20.177  0.00  0.00    +0.000 A 
ATOM      7  C   UNL     1       2.093   5.545  20.112  0.00  0.00    +0.000 A 
ATOM      8  C   UNL     1       2.688   5.026  18.965  0.00  0.00    +0.000 A 
ATOM      9  C   UNL     1       3.036   5.866  17.913  0.00  0.00    +0.000 A 
ATOM     10  C   UNL     1       2.757   7.253  17.947  0.00  0.00    +0.000 A 
ATOM     11  C   UNL     1       2.142   7.750  19.100  0.00  0.00    +0.000 A 
ATOM     12  O   UNL     1       1.757   9.064  19.381  0.00  0.00    +0.000 OA
ENDBRANCH   2   4
BRANCH   1  14
ATOM     13  C   UNL     1      -0.562  13.800  21.639  0.00  0.00    +0.000 C 
ATOM     14  C   UNL     1      -0.490  12.290  22.006  0.00  0.00    +0.000 C 
ATOM     15  C   UNL     1      -1.889  11.904  22.494  0.00  0.00    +0.000 C 
ENDBRANCH   1  14
BRANCH   1  16
ATOM     16  C   UNL     1       0.016  11.680  19.522  0.00  0.00    +0.000 C 
BRANCH  16  17
ATOM     17  C   UNL     1      -1.179  11.101  18.770  0.00  0.00    +0.000 A 
ATOM     18  C   UNL     1      -1.058  10.105  17.800  0.00  0.00    +0.000 A 
ATOM     19  C   UNL     1      -2.137   9.790  16.968  0.00  0.00    +0.000 A 
ATOM     20  C   UNL     1      -3.375  10.413  17.140  0.00  0.00    +0.000 A 
ATOM     21  C   UNL     1      -3.582  11.296  18.201  0.00  0.00    +0.000 A 
ATOM     22  C   UNL     1      -2.470  11.648  18.995  0.00  0.00    +0.000 A 
BRANCH  21  23
ATOM     23  C   UNL     1      -4.929  11.862  18.470  0.00  0.00    +0.000 A 
ATOM     24  C   UNL     1      -6.092  11.744  17.732  0.00  0.00    +0.000 A 
ATOM     25  C   UNL     1      -7.194  12.451  18.302  0.00  0.00    +0.000 A 
ATOM     26  C   UNL     1      -6.847  13.096  19.463  0.00  0.00    +0.000 A 
ATOM     27  S   UNL     1      -5.205  12.857  19.856  0.00  0.00    +0.000 S 
ENDBRANCH  21  23
ENDBRANCH  16  17
ENDBRANCH   1  16
TORSDOF 5
ENDMDL
MODEL 9
REMARK VINA RESULT:      -7.2      3.884      5.888
REMARK  Name = 
REMARK  7 active torsions:
REMARK  status: ('A' for Active; 'I' for Inactive)
REMARK    1  A    between atoms: C_1  and  C_2
REMARK    2  A    between atoms: C_2  and  C_3
REMARK    3  A    between atoms: C_2  and  N_4
REMARK    4  A    between atoms: N_4  and  C_5
REMARK    5  A    between atoms: C_5  and  C_6
REMARK    6  A    between atoms: C_10  and  C_11
REMARK    7  A    between atoms: C_17  and  C_19
REMARK                            x       y       z     vdW  Elec       q    Type
REMARK                         _______ _______ _______ _____ _____    ______ ____
ROOT
ATOM      1  N   UNL     1       5.937   6.001  16.646  0.00  0.00    +0.000 N 
ATOM      2  C   UNL     1       7.196   6.350  17.194  0.00  0.00    +0.000 C 
ATOM      3  O   UNL     1       8.017   5.418  17.328  0.00  0.00    +0.000 OA
ENDROOT
BRANCH   2   4
ATOM      4  C   UNL     1       7.662   7.682  17.601  0.00  0.00    +0.000 A 
ATOM      5  C   UNL     1       8.432   7.887  18.739  0.00  0.00    +0.000 A 
ATOM      6  C   UNL     1       8.762   9.249  18.821  0.00  0.00    +0.000 A 
ATOM      7  C   UNL     1       9.543  10.006  19.718  0.00  0.00    +0.000 A 
ATOM      8  C   UNL     1       9.604  11.387  19.551  0.00  0.00    +0.000 A 
ATOM      9  C   UNL     1       8.895  12.002  18.526  0.00  0.00    +0.000 A 
ATOM     10  C   UNL     1       8.136  11.254  17.594  0.00  0.00    +0.000 A 
ATOM     11  C   UNL     1       8.103   9.867  17.769  0.00  0.00    +0.000 A 
ATOM     12  O   UNL     1       7.444   8.910  16.994  0.00  0.00    +0.000 OA
ENDBRANCH   2   4
BRANCH   1  14
ATOM     13  C   UNL     1       4.926   3.643  17.070  0.00  0.00    +0.000 C 
ATOM     14  C   UNL     1       5.799   4.568  16.176  0.00  0.00    +0.000 C 
ATOM     15  C   UNL     1       5.304   4.364  14.742  0.00  0.00    +0.000 C 
ENDBRANCH   1  14
BRANCH   1  16
ATOM     16  C   UNL     1       4.876   6.996  16.400  0.00  0.00    +0.000 C 
BRANCH  16  17
ATOM     17  C   UNL     1       3.733   7.088  17.406  0.00  0.00    +0.000 A 
ATOM     18  C   UNL     1       3.056   8.277  17.683  0.00  0.00    +0.000 A 
ATOM     19  C   UNL     1       2.198   8.365  18.783  0.00  0.00    +0.000 A 
ATOM     20  C   UNL     1       1.946   7.246  19.581  0.00  0.00    +0.000 A 
ATOM     21  C   UNL     1       2.476   6.001  19.242  0.00  0.00    +0.000 A 
ATOM     22  C   UNL     1       3.386   5.940  18.166  0.00  0.00    +0.000 A 
BRANCH  21  23
ATOM     23  C   UNL     1       2.108   4.782  20.008  0.00  0.00    +0.000 A 
ATOM     24  C   UNL     1       2.403   4.447  21.317  0.00  0.00    +0.000 A 
ATOM     25  C   UNL     1       1.891   3.170  21.700  0.00  0.00    +0.000 A 
ATOM     26  C   UNL     1       1.218   2.555  20.673  0.00  0.00    +0.000 A 
ATOM     27  S   UNL     1       1.213   3.508  19.258  0.00  0.00    +0.000 S 
ENDBRANCH  21  23
ENDBRANCH  16  17
ENDBRANCH   1  16
TORSDOF 5
ENDMDL
