MODEL 1
REMARK VINA RESULT:      -7.1      0.000      0.000
REMARK  Name = 
REMARK  3 active torsions:
REMARK  status: ('A' for Active; 'I' for Inactive)
REMARK    1  A    between atoms: C_2  and  C_3
REMARK    2  A    between atoms: N_8  and  C_9
REMARK    3  A    between atoms: C_12  and  C_13
REMARK                            x       y       z     vdW  Elec       q    Type
REMARK                         _______ _______ _______ _____ _____    ______ ____
ROOT
ATOM      1  C   UNL     1       4.296   4.272  17.113  0.00  0.00    +0.000 A 
ATOM      2  C   UNL     1       4.734   4.939  18.255  0.00  0.00    +0.000 A 
ATOM      3  C   UNL     1       3.885   5.123  19.347  0.00  0.00    +0.000 A 
ATOM      4  C   UNL     1       2.578   4.625  19.339  0.00  0.00    +0.000 A 
ATOM      5  C   UNL     1       2.132   3.957  18.191  0.00  0.00    +0.000 A 
ATOM      6  C   UNL     1       2.981   3.787  17.090  0.00  0.00    +0.000 A 
ENDROOT
BRANCH   1  12
ATOM      7  C   UNL     1       6.543   3.624  13.161  0.00  0.00    +0.000 C 
ATOM      8  C   UNL     1       7.214   4.997  13.209  0.00  0.00    +0.000 C 
ATOM      9  N   UNL     1       6.667   4.372  14.349  0.00  0.00    +0.000 N 
ATOM     10  C   UNL     1       5.723   4.953  15.177  0.00  0.00    +0.000 C 
ATOM     11  O   UNL     1       5.597   6.171  15.247  0.00  0.00    +0.000 OA
ATOM     12  N   UNL     1       5.114   4.016  15.993  0.00  0.00    +0.000 N 
ATOM     13  H   UNL     1       5.390   3.059  15.831  0.00  0.00    +0.000 HD
BRANCH   7  15
ATOM     14  N   UNL     1       4.382   3.310  11.770  0.00  0.00    +0.000 NA
ATOM     15  C   UNL     1       5.356   3.504  12.370  0.00  0.00    +0.000 C 
ENDBRANCH   7  15
ENDBRANCH   1  12
BRANCH   4  16
ATOM     16  C   UNL     1       1.670   4.805  20.530  0.00  0.00    +0.000 C 
ATOM     17  F   UNL     1       2.188   4.313  21.692  0.00  0.00    +0.000 F 
ATOM     18  F   UNL     1       1.390   6.115  20.774  0.00  0.00    +0.000 F 
ATOM     19  F   UNL     1       0.466   4.188  20.372  0.00  0.00    +0.000 F 
ENDBRANCH   4  16
TORSDOF 3
ENDMDL
MODEL 2
REMARK VINA RESULT:      -7.0      0.134      1.440
REMARK  Name = 
REMARK  3 active torsions:
REMARK  status: ('A' for Active; 'I' for Inactive)
REMARK    1  A    between atoms: C_2  and  C_3
REMARK    2  A    between atoms: N_8  and  C_9
REMARK    3  A    between atoms: C_12  and  C_13
REMARK                            x       y       z     vdW  Elec       q    Type
REMARK                         _______ _______ _______ _____ _____    ______ ____
ROOT
ATOM      1  C   UNL     1       4.276   4.095  17.107  0.00  0.00    +0.000 A 
ATOM      2  C   UNL     1       2.934   3.726  17.113  0.00  0.00    +0.000 A 
ATOM      3  C   UNL     1       2.128   3.971  18.226  0.00  0.00    +0.000 A 
ATOM      4  C   UNL     1       2.635   4.614  19.359  0.00  0.00    +0.000 A 
ATOM      5  C   UNL     1       3.987   4.985  19.359  0.00  0.00    +0.000 A 
ATOM      6  C   UNL     1       4.798   4.724  18.247  0.00  0.00    +0.000 A 
ENDROOT
BRANCH   1  12
ATOM      7  C   UNL     1       6.646   3.664  13.198  0.00  0.00    +0.000 C 
ATOM      8  C   UNL     1       7.205   5.086  13.270  0.00  0.00    +0.000 C 
ATOM      9  N   UNL     1       6.687   4.409  14.394  0.00  0.00    +0.000 N 
ATOM     10  C   UNL     1       5.683   4.905  15.206  0.00  0.00    +0.000 C 
ATOM     11  O   UNL     1       5.460   6.108  15.284  0.00  0.00    +0.000 OA
ATOM     12  N   UNL     1       5.134   3.915  16.002  0.00  0.00    +0.000 N 
ATOM     13  H   UNL     1       5.488   2.985  15.839  0.00  0.00    +0.000 HD
BRANCH   7  15
ATOM     14  N   UNL     1       4.494   3.334  11.797  0.00  0.00    +0.000 NA
ATOM     15  C   UNL     1       5.489   3.457  12.381  0.00  0.00    +0.000 C 
ENDBRANCH   7  15
ENDBRANCH   1  12
BRANCH   4  16
ATOM     16  C   UNL     1       1.756   4.898  20.552  0.00  0.00    +0.000 C 
ATOM     17  F   UNL     1       1.540   6.227  20.767  0.00  0.00    +0.000 F 
ATOM     18  F   UNL     1       0.523   4.335  20.431  0.00  0.00    +0.000 F 
ATOM     19  F   UNL     1       2.275   4.415  21.715  0.00  0.00    +0.000 F 
ENDBRANCH   4  16
TORSDOF 3
ENDMDL
MODEL 3
REMARK VINA RESULT:      -6.9      0.712      1.212
REMARK  Name = 
REMARK  3 active torsions:
REMARK  status: ('A' for Active; 'I' for Inactive)
REMARK    1  A    between atoms: C_2  and  C_3
REMARK    2  A    between atoms: N_8  and  C_9
REMARK    3  A    between atoms: C_12  and  C_13
REMARK                            x       y       z     vdW  Elec       q    Type
REMARK                         _______ _______ _______ _____ _____    ______ ____
ROOT
ATOM      1  C   UNL     1       4.278   3.713  17.267  0.00  0.00    +0.000 A 
ATOM      2  C   UNL     1       4.748   3.879  18.568  0.00  0.00    +0.000 A 
ATOM      3  C   UNL     1       3.866   3.920  19.649  0.00  0.00    +0.000 A 
ATOM      4  C   UNL     1       2.487   3.773  19.464  0.00  0.00    +0.000 A 
ATOM      5  C   UNL     1       2.010   3.610  18.156  0.00  0.00    +0.000 A 
ATOM      6  C   UNL     1       2.895   3.584  17.071  0.00  0.00    +0.000 A 
ENDROOT
BRANCH   1  12
ATOM      7  C   UNL     1       6.585   3.611  13.298  0.00  0.00    +0.000 C 
ATOM      8  C   UNL     1       7.187   5.002  13.505  0.00  0.00    +0.000 C 
ATOM      9  N   UNL     1       6.663   4.230  14.562  0.00  0.00    +0.000 N 
ATOM     10  C   UNL     1       5.684   4.670  15.436  0.00  0.00    +0.000 C 
ATOM     11  O   UNL     1       5.498   5.865  15.637  0.00  0.00    +0.000 OA
ATOM     12  N   UNL     1       5.116   3.621  16.137  0.00  0.00    +0.000 N 
ATOM     13  H   UNL     1       5.440   2.702  15.875  0.00  0.00    +0.000 HD
BRANCH   7  15
ATOM     14  N   UNL     1       4.482   3.344  11.812  0.00  0.00    +0.000 NA
ATOM     15  C   UNL     1       5.412   3.521  12.483  0.00  0.00    +0.000 C 
ENDBRANCH   7  15
ENDBRANCH   1  12
BRANCH   4  16
ATOM     16  C   UNL     1       1.538   3.795  20.636  0.00  0.00    +0.000 C 
ATOM     17  F   UNL     1       0.766   4.918  20.693  0.00  0.00    +0.000 F 
ATOM     18  F   UNL     1       0.670   2.747  20.618  0.00  0.00    +0.000 F 
ATOM     19  F   UNL     1       2.181   3.728  21.835  0.00  0.00    +0.000 F 
ENDBRANCH   4  16
TORSDOF 3
ENDMDL
MODEL 4
REMARK VINA RESULT:      -6.9      0.703      1.314
REMARK  Name = 
REMARK  3 active torsions:
REMARK  status: ('A' for Active; 'I' for Inactive)
REMARK    1  A    between atoms: C_2  and  C_3
REMARK    2  A    between atoms: N_8  and  C_9
REMARK    3  A    between atoms: C_12  and  C_13
REMARK                            x       y       z     vdW  Elec       q    Type
REMARK                         _______ _______ _______ _____ _____    ______ ____
ROOT
ATOM      1  C   UNL     1       4.142   3.583  17.236  0.00  0.00    +0.000 A 
ATOM      2  C   UNL     1       2.770   3.369  17.147  0.00  0.00    +0.000 A 
ATOM      3  C   UNL     1       1.951   3.479  18.272  0.00  0.00    +0.000 A 
ATOM      4  C   UNL     1       2.480   3.830  19.519  0.00  0.00    +0.000 A 
ATOM      5  C   UNL     1       3.862   4.043  19.614  0.00  0.00    +0.000 A 
ATOM      6  C   UNL     1       4.683   3.917  18.486  0.00  0.00    +0.000 A 
ENDROOT
BRANCH   1  12
ATOM      7  C   UNL     1       6.576   3.597  13.342  0.00  0.00    +0.000 C 
ATOM      8  C   UNL     1       7.135   4.999  13.587  0.00  0.00    +0.000 C 
ATOM      9  N   UNL     1       6.598   4.199  14.617  0.00  0.00    +0.000 N 
ATOM     10  C   UNL     1       5.582   4.601  15.464  0.00  0.00    +0.000 C 
ATOM     11  O   UNL     1       5.359   5.789  15.677  0.00  0.00    +0.000 OA
ATOM     12  N   UNL     1       5.018   3.529  16.132  0.00  0.00    +0.000 N 
ATOM     13  H   UNL     1       5.373   2.622  15.868  0.00  0.00    +0.000 HD
BRANCH   7  15
ATOM     14  N   UNL     1       4.519   3.300  11.798  0.00  0.00    +0.000 NA
ATOM     15  C   UNL     1       5.431   3.491  12.488  0.00  0.00    +0.000 C 
ENDBRANCH   7  15
ENDBRANCH   1  12
BRANCH   4  16
ATOM     16  C   UNL     1       1.591   3.971  20.729  0.00  0.00    +0.000 C 
ATOM     17  F   UNL     1       2.263   3.890  21.913  0.00  0.00    +0.000 F 
ATOM     18  F   UNL     1       0.936   5.164  20.753  0.00  0.00    +0.000 F 
ATOM     19  F   UNL     1       0.624   3.012  20.787  0.00  0.00    +0.000 F 
ENDBRANCH   4  16
TORSDOF 3
ENDMDL
MODEL 5
REMARK VINA RESULT:      -6.4      5.045      6.493
REMARK  Name = 
REMARK  3 active torsions:
REMARK  status: ('A' for Active; 'I' for Inactive)
REMARK    1  A    between atoms: C_2  and  C_3
REMARK    2  A    between atoms: N_8  and  C_9
REMARK    3  A    between atoms: C_12  and  C_13
REMARK                            x       y       z     vdW  Elec       q    Type
REMARK                         _______ _______ _______ _____ _____    ______ ____
ROOT
ATOM      1  C   UNL     1       2.301   7.192  19.238  0.00  0.00    +0.000 A 
ATOM      2  C   UNL     1       2.402   7.912  18.050  0.00  0.00    +0.000 A 
ATOM      3  C   UNL     1       1.860   9.194  17.940  0.00  0.00    +0.000 A 
ATOM      4  C   UNL     1       1.218   9.803  19.023  0.00  0.00    +0.000 A 
ATOM      5  C   UNL     1       1.111   9.080  20.220  0.00  0.00    +0.000 A 
ATOM      6  C   UNL     1       1.643   7.789  20.323  0.00  0.00    +0.000 A 
ENDROOT
BRANCH   1  12
ATOM      7  C   UNL     1       3.649   2.884  20.080  0.00  0.00    +0.000 C 
ATOM      8  C   UNL     1       3.242   2.387  18.692  0.00  0.00    +0.000 C 
ATOM      9  N   UNL     1       3.463   3.749  18.982  0.00  0.00    +0.000 N 
ATOM     10  C   UNL     1       2.542   4.753  18.745  0.00  0.00    +0.000 C 
ATOM     11  O   UNL     1       1.660   4.627  17.902  0.00  0.00    +0.000 OA
ATOM     12  N   UNL     1       2.863   5.913  19.429  0.00  0.00    +0.000 N 
ATOM     13  H   UNL     1       3.665   5.846  20.037  0.00  0.00    +0.000 HD
BRANCH   7  15
ATOM     14  N   UNL     1       1.968   2.612  22.030  0.00  0.00    +0.000 NA
ATOM     15  C   UNL     1       2.718   2.676  21.147  0.00  0.00    +0.000 C 
ENDBRANCH   7  15
ENDBRANCH   1  12
BRANCH   4  16
ATOM     16  C   UNL     1       0.653  11.196  18.909  0.00  0.00    +0.000 C 
ATOM     17  F   UNL     1       1.509  12.089  18.335  0.00  0.00    +0.000 F 
ATOM     18  F   UNL     1      -0.482  11.234  18.157  0.00  0.00    +0.000 F 
ATOM     19  F   UNL     1       0.319  11.730  20.117  0.00  0.00    +0.000 F 
ENDBRANCH   4  16
TORSDOF 3
ENDMDL
MODEL 6
REMARK VINA RESULT:      -6.4      4.871      6.347
REMARK  Name = 
REMARK  3 active torsions:
REMARK  status: ('A' for Active; 'I' for Inactive)
REMARK    1  A    between atoms: C_2  and  C_3
REMARK    2  A    between atoms: N_8  and  C_9
REMARK    3  A    between atoms: C_12  and  C_13
REMARK                            x       y       z     vdW  Elec       q    Type
REMARK                         _______ _______ _______ _____ _____    ______ ____
ROOT
ATOM      1  C   UNL     1       2.378   7.282  19.291  0.00  0.00    +0.000 A 
ATOM      2  C   UNL     1       1.678   7.839  20.358  0.00  0.00    +0.000 A 
ATOM      3  C   UNL     1       1.040   9.073  20.230  0.00  0.00    +0.000 A 
ATOM      4  C   UNL     1       1.063   9.778  19.022  0.00  0.00    +0.000 A 
ATOM      5  C   UNL     1       1.769   9.222  17.947  0.00  0.00    +0.000 A 
ATOM      6  C   UNL     1       2.422   7.990  18.082  0.00  0.00    +0.000 A 
ENDROOT
BRANCH   1  12
ATOM      7  C   UNL     1       3.990   3.003  19.723  0.00  0.00    +0.000 C 
ATOM      8  C   UNL     1       3.428   2.556  18.372  0.00  0.00    +0.000 C 
ATOM      9  N   UNL     1       3.630   3.911  18.706  0.00  0.00    +0.000 N 
ATOM     10  C   UNL     1       2.648   4.883  18.641  0.00  0.00    +0.000 C 
ATOM     11  O   UNL     1       1.672   4.757  17.910  0.00  0.00    +0.000 OA
ATOM     12  N   UNL     1       3.009   6.021  19.341  0.00  0.00    +0.000 N 
ATOM     13  H   UNL     1       3.885   5.961  19.838  0.00  0.00    +0.000 HD
BRANCH   7  15
ATOM     14  N   UNL     1       2.638   2.530  21.880  0.00  0.00    +0.000 NA
ATOM     15  C   UNL     1       3.211   2.701  20.886  0.00  0.00    +0.000 C 
ENDBRANCH   7  15
ENDBRANCH   1  12
BRANCH   4  16
ATOM     16  C   UNL     1       0.353  11.101  18.880  0.00  0.00    +0.000 C 
ATOM     17  F   UNL     1      -0.726  11.055  18.046  0.00  0.00    +0.000 F 
ATOM     18  F   UNL     1      -0.116  11.567  20.069  0.00  0.00    +0.000 F 
ATOM     19  F   UNL     1       1.160  12.081  18.385  0.00  0.00    +0.000 F 
ENDBRANCH   4  16
TORSDOF 3
ENDMDL
MODEL 7
REMARK VINA RESULT:      -6.3      3.202      4.327
REMARK  Name = 
REMARK  3 active torsions:
REMARK  status: ('A' for Active; 'I' for Inactive)
REMARK    1  A    between atoms: C_2  and  C_3
REMARK    2  A    between atoms: N_8  and  C_9
REMARK    3  A    between atoms: C_12  and  C_13
REMARK                            x       y       z     vdW  Elec       q    Type
REMARK                         _______ _______ _______ _____ _____    ______ ____
ROOT
ATOM      1  C   UNL     1       3.206   7.288  18.162  0.00  0.00    +0.000 A 
ATOM      2  C   UNL     1       2.538   8.431  17.730  0.00  0.00    +0.000 A 
ATOM      3  C   UNL     1       1.580   9.049  18.535  0.00  0.00    +0.000 A 
ATOM      4  C   UNL     1       1.276   8.554  19.807  0.00  0.00    +0.000 A 
ATOM      5  C   UNL     1       1.943   7.402  20.245  0.00  0.00    +0.000 A 
ATOM      6  C   UNL     1       2.893   6.775  19.429  0.00  0.00    +0.000 A 
ENDROOT
BRANCH   1  12
ATOM      7  C   UNL     1       6.608   4.909  16.199  0.00  0.00    +0.000 C 
ATOM      8  C   UNL     1       5.675   3.799  15.711  0.00  0.00    +0.000 C 
ATOM      9  N   UNL     1       5.215   5.083  16.072  0.00  0.00    +0.000 N 
ATOM     10  C   UNL     1       4.225   5.319  17.009  0.00  0.00    +0.000 C 
ATOM     11  O   UNL     1       3.389   4.464  17.285  0.00  0.00    +0.000 OA
ATOM     12  N   UNL     1       4.213   6.640  17.418  0.00  0.00    +0.000 N 
ATOM     13  H   UNL     1       4.948   7.216  17.035  0.00  0.00    +0.000 HD
BRANCH   7  15
ATOM     14  N   UNL     1       7.917   4.592  18.411  0.00  0.00    +0.000 NA
ATOM     15  C   UNL     1       7.312   4.678  17.425  0.00  0.00    +0.000 C 
ENDBRANCH   7  15
ENDBRANCH   1  12
BRANCH   4  16
ATOM     16  C   UNL     1       0.256   9.237  20.684  0.00  0.00    +0.000 C 
ATOM     17  F   UNL     1      -0.384   8.390  21.540  0.00  0.00    +0.000 F 
ATOM     18  F   UNL     1       0.810  10.205  21.464  0.00  0.00    +0.000 F 
ATOM     19  F   UNL     1      -0.728   9.851  19.968  0.00  0.00    +0.000 F 
ENDBRANCH   4  16
TORSDOF 3
ENDMDL
MODEL 8
REMARK VINA RESULT:      -6.2      3.358      4.554
REMARK  Name = 
REMARK  3 active torsions:
REMARK  status: ('A' for Active; 'I' for Inactive)
REMARK    1  A    between atoms: C_2  and  C_3
REMARK    2  A    between atoms: N_8  and  C_9
REMARK    3  A    between atoms: C_12  and  C_13
REMARK                            x       y       z     vdW  Elec       q    Type
REMARK                         _______ _______ _______ _____ _____    ______ ____
ROOT
ATOM      1  C   UNL     1       3.165   7.401  18.300  0.00  0.00    +0.000 A 
ATOM      2  C   UNL     1       2.760   6.966  19.559  0.00  0.00    +0.000 A 
ATOM      3  C   UNL     1       1.772   7.649  20.269  0.00  0.00    +0.000 A 
ATOM      4  C   UNL     1       1.142   8.776  19.731  0.00  0.00    +0.000 A 
ATOM      5  C   UNL     1       1.549   9.220  18.466  0.00  0.00    +0.000 A 
ATOM      6  C   UNL     1       2.552   8.542  17.761  0.00  0.00    +0.000 A 
ENDROOT
BRANCH   1  12
ATOM      7  C   UNL     1       6.451   4.979  16.196  0.00  0.00    +0.000 C 
ATOM      8  C   UNL     1       5.500   3.843  15.816  0.00  0.00    +0.000 C 
ATOM      9  N   UNL     1       5.050   5.135  16.159  0.00  0.00    +0.000 N 
ATOM     10  C   UNL     1       4.125   5.398  17.153  0.00  0.00    +0.000 C 
ATOM     11  O   UNL     1       3.321   4.548  17.519  0.00  0.00    +0.000 OA
ATOM     12  N   UNL     1       4.126   6.734  17.512  0.00  0.00    +0.000 N 
ATOM     13  H   UNL     1       4.826   7.302  17.057  0.00  0.00    +0.000 HD
BRANCH   7  15
ATOM     14  N   UNL     1       7.888   4.558  18.308  0.00  0.00    +0.000 NA
ATOM     15  C   UNL     1       7.241   4.803  17.377  0.00  0.00    +0.000 C 
ENDBRANCH   7  15
ENDBRANCH   1  12
BRANCH   4  16
ATOM     16  C   UNL     1       0.058   9.500  20.492  0.00  0.00    +0.000 C 
ATOM     17  F   UNL     1      -0.965   9.935  19.703  0.00  0.00    +0.000 F 
ATOM     18  F   UNL     1      -0.515   8.716  21.446  0.00  0.00    +0.000 F 
ATOM     19  F   UNL     1       0.519  10.605  21.142  0.00  0.00    +0.000 F 
ENDBRANCH   4  16
TORSDOF 3
ENDMDL
MODEL 9
REMARK VINA RESULT:      -6.0      4.383      5.863
REMARK  Name = 
REMARK  3 active torsions:
REMARK  status: ('A' for Active; 'I' for Inactive)
REMARK    1  A    between atoms: C_2  and  C_3
REMARK    2  A    between atoms: N_8  and  C_9
REMARK    3  A    between atoms: C_12  and  C_13
REMARK                            x       y       z     vdW  Elec       q    Type
REMARK                         _______ _______ _______ _____ _____    ______ ____
ROOT
ATOM      1  C   UNL     1       2.208   8.037  18.720  0.00  0.00    +0.000 A 
ATOM      2  C   UNL     1       1.829   8.106  20.057  0.00  0.00    +0.000 A 
ATOM      3  C   UNL     1       0.904   9.057  20.492  0.00  0.00    +0.000 A 
ATOM      4  C   UNL     1       0.314   9.954  19.596  0.00  0.00    +0.000 A 
ATOM      5  C   UNL     1       0.695   9.890  18.249  0.00  0.00    +0.000 A 
ATOM      6  C   UNL     1       1.635   8.945  17.818  0.00  0.00    +0.000 A 
ENDROOT
BRANCH   1  12
ATOM      7  C   UNL     1       5.255   4.797  17.573  0.00  0.00    +0.000 C 
ATOM      8  C   UNL     1       4.201   3.689  17.534  0.00  0.00    +0.000 C 
ATOM      9  N   UNL     1       3.875   5.058  17.446  0.00  0.00    +0.000 N 
ATOM     10  C   UNL     1       2.977   5.699  18.280  0.00  0.00    +0.000 C 
ATOM     11  O   UNL     1       2.095   5.080  18.866  0.00  0.00    +0.000 OA
ATOM     12  N   UNL     1       3.104   7.075  18.208  0.00  0.00    +0.000 N 
ATOM     13  H   UNL     1       3.855   7.408  17.622  0.00  0.00    +0.000 HD
BRANCH   7  15
ATOM     14  N   UNL     1       6.724   5.065  19.689  0.00  0.00    +0.000 NA
ATOM     15  C   UNL     1       6.022   4.927  18.775  0.00  0.00    +0.000 C 
ENDBRANCH   7  15
ENDBRANCH   1  12
BRANCH   4  16
ATOM     16  C   UNL     1      -0.702  10.966  20.064  0.00  0.00    +0.000 C 
ATOM     17  F   UNL     1      -1.864  10.944  19.351  0.00  0.00    +0.000 F 
ATOM     18  F   UNL     1      -1.060  10.776  21.364  0.00  0.00    +0.000 F 
ATOM     19  F   UNL     1      -0.244  12.247  19.985  0.00  0.00    +0.000 F 
ENDBRANCH   4  16
TORSDOF 3
ENDMDL
