MODEL 1
REMARK VINA RESULT:      -7.7      0.000      0.000
REMARK  Name = 
REMARK  8 active torsions:
REMARK  status: ('A' for Active; 'I' for Inactive)
REMARK    1  A    between atoms: C_1  and  C_2
REMARK    2  A    between atoms: C_3  and  C_4
REMARK    3  A    between atoms: C_4  and  O_6
REMARK    4  A    between atoms: O_6  and  C_7
REMARK    5  A    between atoms: C_13  and  C_14
REMARK    6  A    between atoms: C_17  and  N_18
REMARK    7  A    between atoms: N_18  and  C_19
REMARK    8  A    between atoms: N_18  and  C_20
REMARK                            x       y       z     vdW  Elec       q    Type
REMARK                         _______ _______ _______ _____ _____    ______ ____
ROOT
ATOM      1  C   UNL     1       4.132   3.393  16.355  0.00  0.00    +0.000 C 
ATOM      2  C   UNL     1       4.248   4.748  16.998  0.00  0.00    +0.000 C 
ATOM      3  C   UNL     1       3.344   5.348  17.796  0.00  0.00    +0.000 C 
ATOM      4  C   UNL     1       3.662   6.673  18.458  0.00  0.00    +0.000 C 
ATOM      5  N   UNL     1       4.671   7.378  17.700  0.00  0.00    +0.000 N 
ATOM      6  C   UNL     1       5.662   6.729  17.034  0.00  0.00    +0.000 C 
ATOM      7  O   UNL     1       6.683   7.303  16.676  0.00  0.00    +0.000 OA
ATOM      8  N   UNL     1       5.425   5.418  16.736  0.00  0.00    +0.000 N 
ATOM      9  H   UNL     1       4.896   8.329  17.958  0.00  0.00    +0.000 HD
ATOM     10  H   UNL     1       6.136   4.985  16.157  0.00  0.00    +0.000 HD
ENDROOT
BRANCH   4  11
ATOM     11  C   UNL     1       2.462   7.573  18.691  0.00  0.00    +0.000 A 
ATOM     12  C   UNL     1       1.998   8.420  17.680  0.00  0.00    +0.000 A 
ATOM     13  C   UNL     1       1.127   9.477  17.985  0.00  0.00    +0.000 A 
ATOM     14  C   UNL     1       0.712   9.752  19.300  0.00  0.00    +0.000 A 
ATOM     15  C   UNL     1       1.121   8.822  20.273  0.00  0.00    +0.000 A 
ATOM     16  C   UNL     1       1.938   7.728  19.975  0.00  0.00    +0.000 A 
BRANCH  14  17
ATOM     17  N   UNL     1       0.048  10.925  19.657  0.00  0.00    +0.000 N 
ATOM     18  C   UNL     1      -0.785  11.645  18.695  0.00  0.00    +0.000 C 
ATOM     19  C   UNL     1      -0.339  11.151  21.049  0.00  0.00    +0.000 C 
ENDBRANCH  14  17
ENDBRANCH   4  11
BRANCH   3  20
ATOM     20  C   UNL     1       1.993   4.770  17.989  0.00  0.00    +0.000 C 
ATOM     21  O   UNL     1       1.149   4.719  17.110  0.00  0.00    +0.000 OA
BRANCH  20  22
ATOM     22  O   UNL     1       1.826   4.368  19.268  0.00  0.00    +0.000 OA
BRANCH  22  23
ATOM     23  C   UNL     1       1.222   3.071  19.491  0.00  0.00    +0.000 C 
ATOM     24  C   UNL     1       2.205   1.976  19.082  0.00  0.00    +0.000 C 
ATOM     25  C   UNL     1       3.544   2.207  19.779  0.00  0.00    +0.000 C 
ATOM     26  C   UNL     1       3.395   2.254  21.301  0.00  0.00    +0.000 C 
ATOM     27  C   UNL     1       2.246   3.137  21.796  0.00  0.00    +0.000 C 
ATOM     28  C   UNL     1       0.961   2.921  20.995  0.00  0.00    +0.000 C 
ENDBRANCH  22  23
ENDBRANCH  20  22
ENDBRANCH   3  20
TORSDOF 5
ENDMDL
MODEL 2
REMARK VINA RESULT:      -7.6      2.324      4.750
REMARK  Name = 
REMARK  8 active torsions:
REMARK  status: ('A' for Active; 'I' for Inactive)
REMARK    1  A    between atoms: C_1  and  C_2
REMARK    2  A    between atoms: C_3  and  C_4
REMARK    3  A    between atoms: C_4  and  O_6
REMARK    4  A    between atoms: O_6  and  C_7
REMARK    5  A    between atoms: C_13  and  C_14
REMARK    6  A    between atoms: C_17  and  N_18
REMARK    7  A    between atoms: N_18  and  C_19
REMARK    8  A    between atoms: N_18  and  C_20
REMARK                            x       y       z     vdW  Elec       q    Type
REMARK                         _______ _______ _______ _____ _____    ______ ____
ROOT
ATOM      1  C   UNL     1       4.562   1.423  19.211  0.00  0.00    +0.000 C 
ATOM      2  C   UNL     1       3.439   2.384  18.934  0.00  0.00    +0.000 C 
ATOM      3  C   UNL     1       3.538   3.711  18.724  0.00  0.00    +0.000 C 
ATOM      4  C   UNL     1       2.317   4.524  18.345  0.00  0.00    +0.000 C 
ATOM      5  N   UNL     1       1.118   3.863  18.806  0.00  0.00    +0.000 N 
ATOM      6  C   UNL     1       1.009   2.509  18.855  0.00  0.00    +0.000 C 
ATOM      7  O   UNL     1      -0.079   1.950  18.923  0.00  0.00    +0.000 OA
ATOM      8  N   UNL     1       2.184   1.814  18.882  0.00  0.00    +0.000 N 
ATOM      9  H   UNL     1       0.235   4.349  18.729  0.00  0.00    +0.000 HD
ATOM     10  H   UNL     1       2.076   0.815  19.015  0.00  0.00    +0.000 HD
ENDROOT
BRANCH   4  11
ATOM     11  C   UNL     1       2.337   5.964  18.825  0.00  0.00    +0.000 A 
ATOM     12  C   UNL     1       2.000   6.280  20.145  0.00  0.00    +0.000 A 
ATOM     13  C   UNL     1       1.690   7.602  20.499  0.00  0.00    +0.000 A 
ATOM     14  C   UNL     1       1.670   8.647  19.558  0.00  0.00    +0.000 A 
ATOM     15  C   UNL     1       2.107   8.308  18.265  0.00  0.00    +0.000 A 
ATOM     16  C   UNL     1       2.479   7.008  17.910  0.00  0.00    +0.000 A 
BRANCH  14  17
ATOM     17  N   UNL     1       1.139   9.906  19.834  0.00  0.00    +0.000 N 
ATOM     18  C   UNL     1       0.880  10.870  18.765  0.00  0.00    +0.000 C 
ATOM     19  C   UNL     1       0.295  10.101  21.013  0.00  0.00    +0.000 C 
ENDBRANCH  14  17
ENDBRANCH   4  11
BRANCH   3  20
ATOM     20  C   UNL     1       4.823   4.422  18.928  0.00  0.00    +0.000 C 
ATOM     21  O   UNL     1       5.089   5.062  19.931  0.00  0.00    +0.000 OA
BRANCH  20  22
ATOM     22  O   UNL     1       5.611   4.301  17.837  0.00  0.00    +0.000 OA
BRANCH  22  23
ATOM     23  C   UNL     1       6.610   5.325  17.614  0.00  0.00    +0.000 C 
ATOM     24  C   UNL     1       7.661   4.805  16.635  0.00  0.00    +0.000 C 
ATOM     25  C   UNL     1       6.970   4.273  15.381  0.00  0.00    +0.000 C 
ATOM     26  C   UNL     1       6.097   5.339  14.715  0.00  0.00    +0.000 C 
ATOM     27  C   UNL     1       5.188   6.104  15.680  0.00  0.00    +0.000 C 
ATOM     28  C   UNL     1       5.919   6.527  16.955  0.00  0.00    +0.000 C 
ENDBRANCH  22  23
ENDBRANCH  20  22
ENDBRANCH   3  20
TORSDOF 5
ENDMDL
MODEL 3
REMARK VINA RESULT:      -7.5      2.344      4.769
REMARK  Name = 
REMARK  8 active torsions:
REMARK  status: ('A' for Active; 'I' for Inactive)
REMARK    1  A    between atoms: C_1  and  C_2
REMARK    2  A    between atoms: C_3  and  C_4
REMARK    3  A    between atoms: C_4  and  O_6
REMARK    4  A    between atoms: O_6  and  C_7
REMARK    5  A    between atoms: C_13  and  C_14
REMARK    6  A    between atoms: C_17  and  N_18
REMARK    7  A    between atoms: N_18  and  C_19
REMARK    8  A    between atoms: N_18  and  C_20
REMARK                            x       y       z     vdW  Elec       q    Type
REMARK                         _______ _______ _______ _____ _____    ______ ____
ROOT
ATOM      1  C   UNL     1       4.592   1.248  19.157  0.00  0.00    +0.000 C 
ATOM      2  C   UNL     1       3.502   2.238  18.852  0.00  0.00    +0.000 C 
ATOM      3  C   UNL     1       3.621   3.577  18.766  0.00  0.00    +0.000 C 
ATOM      4  C   UNL     1       2.444   4.429  18.337  0.00  0.00    +0.000 C 
ATOM      5  N   UNL     1       1.205   3.740  18.616  0.00  0.00    +0.000 N 
ATOM      6  C   UNL     1       1.092   2.388  18.538  0.00  0.00    +0.000 C 
ATOM      7  O   UNL     1       0.004   1.835  18.447  0.00  0.00    +0.000 OA
ATOM      8  N   UNL     1       2.260   1.684  18.624  0.00  0.00    +0.000 N 
ATOM      9  H   UNL     1       0.334   4.239  18.492  0.00  0.00    +0.000 HD
ATOM     10  H   UNL     1       2.139   0.678  18.659  0.00  0.00    +0.000 HD
ENDROOT
BRANCH   4  11
ATOM     11  C   UNL     1       2.414   5.822  18.938  0.00  0.00    +0.000 A 
ATOM     12  C   UNL     1       2.026   6.018  20.266  0.00  0.00    +0.000 A 
ATOM     13  C   UNL     1       1.673   7.298  20.720  0.00  0.00    +0.000 A 
ATOM     14  C   UNL     1       1.660   8.419  19.871  0.00  0.00    +0.000 A 
ATOM     15  C   UNL     1       2.148   8.201  18.571  0.00  0.00    +0.000 A 
ATOM     16  C   UNL     1       2.563   6.944  18.121  0.00  0.00    +0.000 A 
BRANCH  14  17
ATOM     17  N   UNL     1       1.091   9.639  20.234  0.00  0.00    +0.000 N 
ATOM     18  C   UNL     1       0.888  10.702  19.250  0.00  0.00    +0.000 C 
ATOM     19  C   UNL     1       0.168   9.707  21.367  0.00  0.00    +0.000 C 
ENDBRANCH  14  17
ENDBRANCH   4  11
BRANCH   3  20
ATOM     20  C   UNL     1       4.878   4.258  19.159  0.00  0.00    +0.000 C 
ATOM     21  O   UNL     1       5.408   4.122  20.249  0.00  0.00    +0.000 OA
BRANCH  20  22
ATOM     22  O   UNL     1       5.306   5.073  18.170  0.00  0.00    +0.000 OA
BRANCH  22  23
ATOM     23  C   UNL     1       6.462   4.652  17.407  0.00  0.00    +0.000 C 
ATOM     24  C   UNL     1       6.577   5.507  16.146  0.00  0.00    +0.000 C 
ATOM     25  C   UNL     1       6.541   6.986  16.528  0.00  0.00    +0.000 C 
ATOM     26  C   UNL     1       7.647   7.345  17.523  0.00  0.00    +0.000 C 
ATOM     27  C   UNL     1       7.778   6.374  18.700  0.00  0.00    +0.000 C 
ATOM     28  C   UNL     1       7.713   4.912  18.257  0.00  0.00    +0.000 C 
ENDBRANCH  22  23
ENDBRANCH  20  22
ENDBRANCH   3  20
TORSDOF 5
ENDMDL
MODEL 4
REMARK VINA RESULT:      -7.3      1.151      1.545
REMARK  Name = 
REMARK  8 active torsions:
REMARK  status: ('A' for Active; 'I' for Inactive)
REMARK    1  A    between atoms: C_1  and  C_2
REMARK    2  A    between atoms: C_3  and  C_4
REMARK    3  A    between atoms: C_4  and  O_6
REMARK    4  A    between atoms: O_6  and  C_7
REMARK    5  A    between atoms: C_13  and  C_14
REMARK    6  A    between atoms: C_17  and  N_18
REMARK    7  A    between atoms: N_18  and  C_19
REMARK    8  A    between atoms: N_18  and  C_20
REMARK                            x       y       z     vdW  Elec       q    Type
REMARK                         _______ _______ _______ _____ _____    ______ ____
ROOT
ATOM      1  C   UNL     1       5.632   3.120  15.678  0.00  0.00    +0.000 C 
ATOM      2  C   UNL     1       5.589   4.386  16.488  0.00  0.00    +0.000 C 
ATOM      3  C   UNL     1       4.603   4.790  17.313  0.00  0.00    +0.000 C 
ATOM      4  C   UNL     1       4.763   6.044  18.147  0.00  0.00    +0.000 C 
ATOM      5  N   UNL     1       5.720   6.933  17.529  0.00  0.00    +0.000 N 
ATOM      6  C   UNL     1       6.792   6.474  16.833  0.00  0.00    +0.000 C 
ATOM      7  O   UNL     1       7.761   7.185  16.595  0.00  0.00    +0.000 OA
ATOM      8  N   UNL     1       6.699   5.195  16.365  0.00  0.00    +0.000 N 
ATOM      9  H   UNL     1       5.838   7.861  17.913  0.00  0.00    +0.000 HD
ATOM     10  H   UNL     1       7.469   4.911  15.769  0.00  0.00    +0.000 HD
ENDROOT
BRANCH   4  11
ATOM     11  C   UNL     1       3.471   6.786  18.436  0.00  0.00    +0.000 A 
ATOM     12  C   UNL     1       3.029   7.805  17.588  0.00  0.00    +0.000 A 
ATOM     13  C   UNL     1       2.043   8.706  18.017  0.00  0.00    +0.000 A 
ATOM     14  C   UNL     1       1.484   8.650  19.306  0.00  0.00    +0.000 A 
ATOM     15  C   UNL     1       1.882   7.555  20.093  0.00  0.00    +0.000 A 
ATOM     16  C   UNL     1       2.818   6.613  19.658  0.00  0.00    +0.000 A 
BRANCH  14  17
ATOM     17  N   UNL     1       0.687   9.666  19.833  0.00  0.00    +0.000 N 
ATOM     18  C   UNL     1      -0.468  10.180  19.098  0.00  0.00    +0.000 C 
ATOM     19  C   UNL     1       0.580   9.833  21.282  0.00  0.00    +0.000 C 
ENDBRANCH  14  17
ENDBRANCH   4  11
BRANCH   3  20
ATOM     20  C   UNL     1       3.312   4.063  17.372  0.00  0.00    +0.000 C 
ATOM     21  O   UNL     1       2.587   3.895  16.406  0.00  0.00    +0.000 OA
BRANCH  20  22
ATOM     22  O   UNL     1       3.044   3.674  18.637  0.00  0.00    +0.000 OA
BRANCH  22  23
ATOM     23  C   UNL     1       2.460   2.362  18.826  0.00  0.00    +0.000 C 
ATOM     24  C   UNL     1       3.014   1.739  20.106  0.00  0.00    +0.000 C 
ATOM     25  C   UNL     1       2.833   2.714  21.267  0.00  0.00    +0.000 C 
ATOM     26  C   UNL     1       1.367   3.113  21.455  0.00  0.00    +0.000 C 
ATOM     27  C   UNL     1       0.649   3.505  20.160  0.00  0.00    +0.000 C 
ATOM     28  C   UNL     1       0.948   2.537  19.014  0.00  0.00    +0.000 C 
ENDBRANCH  22  23
ENDBRANCH  20  22
ENDBRANCH   3  20
TORSDOF 5
ENDMDL
MODEL 5
REMARK VINA RESULT:      -7.1      2.310      4.813
REMARK  Name = 
REMARK  8 active torsions:
REMARK  status: ('A' for Active; 'I' for Inactive)
REMARK    1  A    between atoms: C_1  and  C_2
REMARK    2  A    between atoms: C_3  and  C_4
REMARK    3  A    between atoms: C_4  and  O_6
REMARK    4  A    between atoms: O_6  and  C_7
REMARK    5  A    between atoms: C_13  and  C_14
REMARK    6  A    between atoms: C_17  and  N_18
REMARK    7  A    between atoms: N_18  and  C_19
REMARK    8  A    between atoms: N_18  and  C_20
REMARK                            x       y       z     vdW  Elec       q    Type
REMARK                         _______ _______ _______ _____ _____    ______ ____
ROOT
ATOM      1  C   UNL     1       4.845   2.198  19.924  0.00  0.00    +0.000 C 
ATOM      2  C   UNL     1       3.611   3.043  19.770  0.00  0.00    +0.000 C 
ATOM      3  C   UNL     1       3.540   4.294  19.273  0.00  0.00    +0.000 C 
ATOM      4  C   UNL     1       2.198   4.969  19.080  0.00  0.00    +0.000 C 
ATOM      5  N   UNL     1       1.218   4.394  19.973  0.00  0.00    +0.000 N 
ATOM      6  C   UNL     1       1.241   3.082  20.326  0.00  0.00    +0.000 C 
ATOM      7  O   UNL     1       0.259   2.523  20.798  0.00  0.00    +0.000 OA
ATOM      8  N   UNL     1       2.438   2.442  20.177  0.00  0.00    +0.000 N 
ATOM      9  H   UNL     1       0.308   4.827  20.039  0.00  0.00    +0.000 HD
ATOM     10  H   UNL     1       2.453   1.494  20.535  0.00  0.00    +0.000 HD
ENDROOT
BRANCH   4  11
ATOM     11  C   UNL     1       2.218   6.480  19.231  0.00  0.00    +0.000 A 
ATOM     12  C   UNL     1       1.889   7.079  20.450  0.00  0.00    +0.000 A 
ATOM     13  C   UNL     1       1.579   8.446  20.507  0.00  0.00    +0.000 A 
ATOM     14  C   UNL     1       1.552   9.258  19.359  0.00  0.00    +0.000 A 
ATOM     15  C   UNL     1       1.983   8.643  18.170  0.00  0.00    +0.000 A 
ATOM     16  C   UNL     1       2.355   7.297  18.108  0.00  0.00    +0.000 A 
BRANCH  14  17
ATOM     17  N   UNL     1       1.022  10.548  19.353  0.00  0.00    +0.000 N 
ATOM     18  C   UNL     1       0.287  11.069  20.505  0.00  0.00    +0.000 C 
ATOM     19  C   UNL     1       1.643  11.590  18.535  0.00  0.00    +0.000 C 
ENDBRANCH  14  17
ENDBRANCH   4  11
BRANCH   3  20
ATOM     20  C   UNL     1       4.769   5.066  18.972  0.00  0.00    +0.000 C 
ATOM     21  O   UNL     1       5.430   5.640  19.821  0.00  0.00    +0.000 OA
BRANCH  20  22
ATOM     22  O   UNL     1       5.006   5.082  17.643  0.00  0.00    +0.000 OA
BRANCH  22  23
ATOM     23  C   UNL     1       5.688   6.237  17.096  0.00  0.00    +0.000 C 
ATOM     24  C   UNL     1       7.193   5.975  17.075  0.00  0.00    +0.000 C 
ATOM     25  C   UNL     1       7.469   4.651  16.366  0.00  0.00    +0.000 C 
ATOM     26  C   UNL     1       6.901   4.633  14.946  0.00  0.00    +0.000 C 
ATOM     27  C   UNL     1       5.459   5.138  14.836  0.00  0.00    +0.000 C 
ATOM     28  C   UNL     1       5.229   6.416  15.643  0.00  0.00    +0.000 C 
ENDBRANCH  22  23
ENDBRANCH  20  22
ENDBRANCH   3  20
TORSDOF 5
ENDMDL
MODEL 6
REMARK VINA RESULT:      -7.0      2.248      4.760
REMARK  Name = 
REMARK  8 active torsions:
REMARK  status: ('A' for Active; 'I' for Inactive)
REMARK    1  A    between atoms: C_1  and  C_2
REMARK    2  A    between atoms: C_3  and  C_4
REMARK    3  A    between atoms: C_4  and  O_6
REMARK    4  A    between atoms: O_6  and  C_7
REMARK    5  A    between atoms: C_13  and  C_14
REMARK    6  A    between atoms: C_17  and  N_18
REMARK    7  A    between atoms: N_18  and  C_19
REMARK    8  A    between atoms: N_18  and  C_20
REMARK                            x       y       z     vdW  Elec       q    Type
REMARK                         _______ _______ _______ _____ _____    ______ ____
ROOT
ATOM      1  C   UNL     1       4.634   1.565  19.198  0.00  0.00    +0.000 C 
ATOM      2  C   UNL     1       3.481   2.497  18.946  0.00  0.00    +0.000 C 
ATOM      3  C   UNL     1       3.541   3.827  18.743  0.00  0.00    +0.000 C 
ATOM      4  C   UNL     1       2.293   4.609  18.390  0.00  0.00    +0.000 C 
ATOM      5  N   UNL     1       1.119   3.913  18.866  0.00  0.00    +0.000 N 
ATOM      6  C   UNL     1       1.047   2.556  18.908  0.00  0.00    +0.000 C 
ATOM      7  O   UNL     1      -0.024   1.969  18.990  0.00  0.00    +0.000 OA
ATOM      8  N   UNL     1       2.241   1.894  18.911  0.00  0.00    +0.000 N 
ATOM      9  H   UNL     1       0.223   4.376  18.806  0.00  0.00    +0.000 HD
ATOM     10  H   UNL     1       2.162   0.891  19.038  0.00  0.00    +0.000 HD
ENDROOT
BRANCH   4  11
ATOM     11  C   UNL     1       2.281   6.046  18.880  0.00  0.00    +0.000 A 
ATOM     12  C   UNL     1       1.936   6.347  20.200  0.00  0.00    +0.000 A 
ATOM     13  C   UNL     1       1.598   7.660  20.563  0.00  0.00    +0.000 A 
ATOM     14  C   UNL     1       1.558   8.710  19.628  0.00  0.00    +0.000 A 
ATOM     15  C   UNL     1       2.004   8.388  18.334  0.00  0.00    +0.000 A 
ATOM     16  C   UNL     1       2.404   7.099  17.972  0.00  0.00    +0.000 A 
BRANCH  14  17
ATOM     17  N   UNL     1       1.001   9.956  19.911  0.00  0.00    +0.000 N 
ATOM     18  C   UNL     1       0.835  10.416  21.289  0.00  0.00    +0.000 C 
ATOM     19  C   UNL     1       1.117  11.046  18.942  0.00  0.00    +0.000 C 
ENDBRANCH  14  17
ENDBRANCH   4  11
BRANCH   3  20
ATOM     20  C   UNL     1       4.810   4.571  18.930  0.00  0.00    +0.000 C 
ATOM     21  O   UNL     1       5.124   5.119  19.974  0.00  0.00    +0.000 OA
BRANCH  20  22
ATOM     22  O   UNL     1       5.520   4.595  17.782  0.00  0.00    +0.000 OA
BRANCH  22  23
ATOM     23  C   UNL     1       4.930   5.265  16.642  0.00  0.00    +0.000 C 
ATOM     24  C   UNL     1       5.781   6.477  16.268  0.00  0.00    +0.000 C 
ATOM     25  C   UNL     1       7.237   6.045  16.099  0.00  0.00    +0.000 C 
ATOM     26  C   UNL     1       7.386   4.941  15.050  0.00  0.00    +0.000 C 
ATOM     27  C   UNL     1       6.382   3.794  15.194  0.00  0.00    +0.000 C 
ATOM     28  C   UNL     1       4.961   4.295  15.453  0.00  0.00    +0.000 C 
ENDBRANCH  22  23
ENDBRANCH  20  22
ENDBRANCH   3  20
TORSDOF 5
ENDMDL
MODEL 7
REMARK VINA RESULT:      -6.8      2.710      6.544
REMARK  Name = 
REMARK  8 active torsions:
REMARK  status: ('A' for Active; 'I' for Inactive)
REMARK    1  A    between atoms: C_1  and  C_2
REMARK    2  A    between atoms: C_3  and  C_4
REMARK    3  A    between atoms: C_4  and  O_6
REMARK    4  A    between atoms: O_6  and  C_7
REMARK    5  A    between atoms: C_13  and  C_14
REMARK    6  A    between atoms: C_17  and  N_18
REMARK    7  A    between atoms: N_18  and  C_19
REMARK    8  A    between atoms: N_18  and  C_20
REMARK                            x       y       z     vdW  Elec       q    Type
REMARK                         _______ _______ _______ _____ _____    ______ ____
ROOT
ATOM      1  C   UNL     1       1.004   3.135  20.510  0.00  0.00    +0.000 C 
ATOM      2  C   UNL     1       2.410   3.255  19.990  0.00  0.00    +0.000 C 
ATOM      3  C   UNL     1       2.837   4.033  18.975  0.00  0.00    +0.000 C 
ATOM      4  C   UNL     1       4.312   4.126  18.646  0.00  0.00    +0.000 C 
ATOM      5  N   UNL     1       5.000   2.941  19.105  0.00  0.00    +0.000 N 
ATOM      6  C   UNL     1       4.625   2.274  20.229  0.00  0.00    +0.000 C 
ATOM      7  O   UNL     1       5.376   1.492  20.796  0.00  0.00    +0.000 OA
ATOM      8  N   UNL     1       3.344   2.486  20.651  0.00  0.00    +0.000 N 
ATOM      9  H   UNL     1       5.969   2.811  18.848  0.00  0.00    +0.000 HD
ATOM     10  H   UNL     1       3.060   1.906  21.433  0.00  0.00    +0.000 HD
ENDROOT
BRANCH   4  11
ATOM     11  C   UNL     1       4.623   4.374  17.181  0.00  0.00    +0.000 A 
ATOM     12  C   UNL     1       4.469   3.356  16.236  0.00  0.00    +0.000 A 
ATOM     13  C   UNL     1       5.063   3.468  14.970  0.00  0.00    +0.000 A 
ATOM     14  C   UNL     1       5.854   4.572  14.607  0.00  0.00    +0.000 A 
ATOM     15  C   UNL     1       5.905   5.617  15.546  0.00  0.00    +0.000 A 
ATOM     16  C   UNL     1       5.268   5.548  16.788  0.00  0.00    +0.000 A 
BRANCH  14  17
ATOM     17  N   UNL     1       6.642   4.596  13.457  0.00  0.00    +0.000 N 
ATOM     18  C   UNL     1       7.928   5.291  13.434  0.00  0.00    +0.000 C 
ATOM     19  C   UNL     1       6.550   3.505  12.485  0.00  0.00    +0.000 C 
ENDBRANCH  14  17
ENDBRANCH   4  11
BRANCH   3  20
ATOM     20  C   UNL     1       1.874   4.757  18.112  0.00  0.00    +0.000 C 
ATOM     21  O   UNL     1       1.416   4.298  17.078  0.00  0.00    +0.000 OA
BRANCH  20  22
ATOM     22  O   UNL     1       1.630   5.991  18.603  0.00  0.00    +0.000 OA
BRANCH  22  23
ATOM     23  C   UNL     1       2.757   6.746  19.111  0.00  0.00    +0.000 C 
ATOM     24  C   UNL     1       3.076   7.890  18.149  0.00  0.00    +0.000 C 
ATOM     25  C   UNL     1       1.808   8.698  17.881  0.00  0.00    +0.000 C 
ATOM     26  C   UNL     1       1.191   9.239  19.172  0.00  0.00    +0.000 C 
ATOM     27  C   UNL     1       1.075   8.206  20.297  0.00  0.00    +0.000 C 
ATOM     28  C   UNL     1       2.346   7.370  20.451  0.00  0.00    +0.000 C 
ENDBRANCH  22  23
ENDBRANCH  20  22
ENDBRANCH   3  20
TORSDOF 5
ENDMDL
MODEL 8
REMARK VINA RESULT:      -6.8      2.431      4.858
REMARK  Name = 
REMARK  8 active torsions:
REMARK  status: ('A' for Active; 'I' for Inactive)
REMARK    1  A    between atoms: C_1  and  C_2
REMARK    2  A    between atoms: C_3  and  C_4
REMARK    3  A    between atoms: C_4  and  O_6
REMARK    4  A    between atoms: O_6  and  C_7
REMARK    5  A    between atoms: C_13  and  C_14
REMARK    6  A    between atoms: C_17  and  N_18
REMARK    7  A    between atoms: N_18  and  C_19
REMARK    8  A    between atoms: N_18  and  C_20
REMARK                            x       y       z     vdW  Elec       q    Type
REMARK                         _______ _______ _______ _____ _____    ______ ____
ROOT
ATOM      1  C   UNL     1       5.148   2.035  20.508  0.00  0.00    +0.000 C 
ATOM      2  C   UNL     1       3.886   2.835  20.337  0.00  0.00    +0.000 C 
ATOM      3  C   UNL     1       3.741   3.985  19.651  0.00  0.00    +0.000 C 
ATOM      4  C   UNL     1       2.372   4.611  19.480  0.00  0.00    +0.000 C 
ATOM      5  N   UNL     1       1.494   4.185  20.546  0.00  0.00    +0.000 N 
ATOM      6  C   UNL     1       1.579   2.950  21.106  0.00  0.00    +0.000 C 
ATOM      7  O   UNL     1       0.660   2.471  21.757  0.00  0.00    +0.000 OA
ATOM      8  N   UNL     1       2.771   2.302  20.949  0.00  0.00    +0.000 N 
ATOM      9  H   UNL     1       0.584   4.618  20.628  0.00  0.00    +0.000 HD
ATOM     10  H   UNL     1       2.841   1.427  21.456  0.00  0.00    +0.000 HD
ENDROOT
BRANCH   4  11
ATOM     11  C   UNL     1       2.373   6.126  19.378  0.00  0.00    +0.000 A 
ATOM     12  C   UNL     1       1.999   6.914  20.470  0.00  0.00    +0.000 A 
ATOM     13  C   UNL     1       1.674   8.267  20.289  0.00  0.00    +0.000 A 
ATOM     14  C   UNL     1       1.675   8.876  19.021  0.00  0.00    +0.000 A 
ATOM     15  C   UNL     1       2.149   8.079  17.965  0.00  0.00    +0.000 A 
ATOM     16  C   UNL     1       2.536   6.747  18.139  0.00  0.00    +0.000 A 
BRANCH  14  17
ATOM     17  N   UNL     1       1.132  10.139  18.786  0.00  0.00    +0.000 N 
ATOM     18  C   UNL     1       1.972  11.256  18.355  0.00  0.00    +0.000 C 
ATOM     19  C   UNL     1      -0.267  10.268  18.377  0.00  0.00    +0.000 C 
ENDBRANCH  14  17
ENDBRANCH   4  11
BRANCH   3  20
ATOM     20  C   UNL     1       4.918   4.705  19.109  0.00  0.00    +0.000 C 
ATOM     21  O   UNL     1       5.576   5.505  19.753  0.00  0.00    +0.000 OA
BRANCH  20  22
ATOM     22  O   UNL     1       5.112   4.388  17.811  0.00  0.00    +0.000 OA
BRANCH  22  23
ATOM     23  C   UNL     1       6.432   4.607  17.257  0.00  0.00    +0.000 C 
ATOM     24  C   UNL     1       6.546   3.887  15.914  0.00  0.00    +0.000 C 
ATOM     25  C   UNL     1       5.378   4.295  15.017  0.00  0.00    +0.000 C 
ATOM     26  C   UNL     1       5.319   5.810  14.811  0.00  0.00    +0.000 C 
ATOM     27  C   UNL     1       5.466   6.629  16.097  0.00  0.00    +0.000 C 
ATOM     28  C   UNL     1       6.593   6.110  16.990  0.00  0.00    +0.000 C 
ENDBRANCH  22  23
ENDBRANCH  20  22
ENDBRANCH   3  20
TORSDOF 5
ENDMDL
MODEL 9
REMARK VINA RESULT:      -6.6      2.314      4.595
REMARK  Name = 
REMARK  8 active torsions:
REMARK  status: ('A' for Active; 'I' for Inactive)
REMARK    1  A    between atoms: C_1  and  C_2
REMARK    2  A    between atoms: C_3  and  C_4
REMARK    3  A    between atoms: C_4  and  O_6
REMARK    4  A    between atoms: O_6  and  C_7
REMARK    5  A    between atoms: C_13  and  C_14
REMARK    6  A    between atoms: C_17  and  N_18
REMARK    7  A    between atoms: N_18  and  C_19
REMARK    8  A    between atoms: N_18  and  C_20
REMARK                            x       y       z     vdW  Elec       q    Type
REMARK                         _______ _______ _______ _____ _____    ______ ____
ROOT
ATOM      1  C   UNL     1       4.179   1.363  18.658  0.00  0.00    +0.000 C 
ATOM      2  C   UNL     1       3.249   2.391  19.242  0.00  0.00    +0.000 C 
ATOM      3  C   UNL     1       2.941   3.595  18.724  0.00  0.00    +0.000 C 
ATOM      4  C   UNL     1       1.894   4.471  19.382  0.00  0.00    +0.000 C 
ATOM      5  N   UNL     1       1.774   4.134  20.782  0.00  0.00    +0.000 N 
ATOM      6  C   UNL     1       1.942   2.866  21.241  0.00  0.00    +0.000 C 
ATOM      7  O   UNL     1       1.529   2.516  22.339  0.00  0.00    +0.000 OA
ATOM      8  N   UNL     1       2.650   2.026  20.430  0.00  0.00    +0.000 N 
ATOM      9  H   UNL     1       1.198   4.718  21.374  0.00  0.00    +0.000 HD
ATOM     10  H   UNL     1       2.843   1.117  20.836  0.00  0.00    +0.000 HD
ENDROOT
BRANCH   4  11
ATOM     11  C   UNL     1       2.121   5.963  19.222  0.00  0.00    +0.000 A 
ATOM     12  C   UNL     1       2.045   6.819  20.325  0.00  0.00    +0.000 A 
ATOM     13  C   UNL     1       1.916   8.204  20.140  0.00  0.00    +0.000 A 
ATOM     14  C   UNL     1       1.825   8.785  18.863  0.00  0.00    +0.000 A 
ATOM     15  C   UNL     1       2.001   7.905  17.781  0.00  0.00    +0.000 A 
ATOM     16  C   UNL     1       2.193   6.531  17.949  0.00  0.00    +0.000 A 
BRANCH  14  17
ATOM     17  N   UNL     1       1.460  10.116  18.659  0.00  0.00    +0.000 N 
ATOM     18  C   UNL     1       2.346  11.045  17.959  0.00  0.00    +0.000 C 
ATOM     19  C   UNL     1       0.046  10.482  18.576  0.00  0.00    +0.000 C 
ENDBRANCH  14  17
ENDBRANCH   4  11
BRANCH   3  20
ATOM     20  C   UNL     1       3.665   4.127  17.545  0.00  0.00    +0.000 C 
ATOM     21  O   UNL     1       3.237   4.064  16.405  0.00  0.00    +0.000 OA
BRANCH  20  22
ATOM     22  O   UNL     1       4.865   4.628  17.911  0.00  0.00    +0.000 OA
BRANCH  22  23
ATOM     23  C   UNL     1       5.940   4.568  16.943  0.00  0.00    +0.000 C 
ATOM     24  C   UNL     1       5.938   5.844  16.102  0.00  0.00    +0.000 C 
ATOM     25  C   UNL     1       5.948   7.062  17.024  0.00  0.00    +0.000 C 
ATOM     26  C   UNL     1       7.146   7.048  17.976  0.00  0.00    +0.000 C 
ATOM     27  C   UNL     1       7.383   5.705  18.673  0.00  0.00    +0.000 C 
ATOM     28  C   UNL     1       7.268   4.522  17.710  0.00  0.00    +0.000 C 
ENDBRANCH  22  23
ENDBRANCH  20  22
ENDBRANCH   3  20
TORSDOF 5
ENDMDL
