MODEL 1
REMARK VINA RESULT:      -8.5      0.000      0.000
REMARK  Name = 
REMARK  3 active torsions:
REMARK  status: ('A' for Active; 'I' for Inactive)
REMARK    1  A    between atoms: O_1  and  C_2
REMARK    2  A    between atoms: N_8  and  C_9
REMARK    3  A    between atoms: C_15  and  C_16
REMARK                            x       y       z     vdW  Elec       q    Type
REMARK                         _______ _______ _______ _____ _____    ______ ____
ROOT
ATOM      1  C   UNL     1       2.157   5.068  20.211  0.00  0.00    +0.000 C 
ATOM      2  N   UNL     1       1.807   6.252  20.599  0.00  0.00    +0.000 NA
ATOM      3  C   UNL     1       2.032   7.212  19.673  0.00  0.00    +0.000 A 
ATOM      4  C   UNL     1       2.668   7.089  18.454  0.00  0.00    +0.000 A 
ATOM      5  N   UNL     1       2.570   8.231  17.713  0.00  0.00    +0.000 NA
ATOM      6  C   UNL     1       1.900   9.065  18.484  0.00  0.00    +0.000 A 
ATOM      7  N   UNL     1       1.567   8.516  19.710  0.00  0.00    +0.000 N 
ATOM      8  C   UNL     1       3.261   5.799  18.014  0.00  0.00    +0.000 C 
ATOM      9  C   UNL     1       2.763   4.635  18.895  0.00  0.00    +0.000 C 
ENDROOT
BRANCH   8  10
ATOM     10  C   UNL     1       4.768   5.959  18.087  0.00  0.00    +0.000 A 
ATOM     11  C   UNL     1       5.527   5.588  19.211  0.00  0.00    +0.000 A 
ATOM     12  C   UNL     1       6.917   5.683  19.185  0.00  0.00    +0.000 A 
ATOM     13  F   UNL     1       7.621   5.311  20.262  0.00  0.00    +0.000 F 
ATOM     14  C   UNL     1       7.586   6.138  18.055  0.00  0.00    +0.000 A 
ATOM     15  C   UNL     1       6.853   6.511  16.935  0.00  0.00    +0.000 A 
ATOM     16  C   UNL     1       5.459   6.421  16.955  0.00  0.00    +0.000 A 
ATOM     17  F   UNL     1       4.786   6.750  15.846  0.00  0.00    +0.000 F 
ENDBRANCH   8  10
BRANCH   7  18
ATOM     18  C   UNL     1       0.888   9.162  20.766  0.00  0.00    +0.000 A 
ATOM     19  C   UNL     1      -0.236   9.958  20.527  0.00  0.00    +0.000 A 
ATOM     20  C   UNL     1      -0.868  10.580  21.600  0.00  0.00    +0.000 A 
ATOM     21  C   UNL     1      -0.339  10.409  22.870  0.00  0.00    +0.000 A 
ATOM     22  N   UNL     1       0.748   9.653  23.133  0.00  0.00    +0.000 NA
ATOM     23  C   UNL     1       1.333   9.036  22.079  0.00  0.00    +0.000 A 
ENDBRANCH   7  18
BRANCH   1  24
ATOM     24  O   UNL     1       1.908   4.048  21.047  0.00  0.00    +0.000 OA
ATOM     25  H   UNL     1       1.173   3.531  20.670  0.00  0.00    +0.000 HD
ENDBRANCH   1  24
TORSDOF 3
ENDMDL
MODEL 2
REMARK VINA RESULT:      -8.4      1.120      1.120
REMARK  Name = 
REMARK  3 active torsions:
REMARK  status: ('A' for Active; 'I' for Inactive)
REMARK    1  A    between atoms: O_1  and  C_2
REMARK    2  A    between atoms: N_8  and  C_9
REMARK    3  A    between atoms: C_15  and  C_16
REMARK                            x       y       z     vdW  Elec       q    Type
REMARK                         _______ _______ _______ _____ _____    ______ ____
ROOT
ATOM      1  C   UNL     1       2.056   4.238  20.014  0.00  0.00    +0.000 C 
ATOM      2  N   UNL     1       1.824   5.396  20.543  0.00  0.00    +0.000 NA
ATOM      3  C   UNL     1       2.115   6.432  19.723  0.00  0.00    +0.000 A 
ATOM      4  C   UNL     1       2.710   6.392  18.478  0.00  0.00    +0.000 A 
ATOM      5  N   UNL     1       2.701   7.616  17.873  0.00  0.00    +0.000 NA
ATOM      6  C   UNL     1       2.127   8.413  18.753  0.00  0.00    +0.000 A 
ATOM      7  N   UNL     1       1.772   7.759  19.920  0.00  0.00    +0.000 N 
ATOM      8  C   UNL     1       3.174   5.114  17.878  0.00  0.00    +0.000 C 
ATOM      9  C   UNL     1       2.591   3.905  18.639  0.00  0.00    +0.000 C 
ENDROOT
BRANCH   8  10
ATOM     10  C   UNL     1       4.690   5.131  17.920  0.00  0.00    +0.000 A 
ATOM     11  C   UNL     1       5.423   5.462  19.074  0.00  0.00    +0.000 A 
ATOM     12  C   UNL     1       6.814   5.379  19.071  0.00  0.00    +0.000 A 
ATOM     13  F   UNL     1       7.492   5.686  20.185  0.00  0.00    +0.000 F 
ATOM     14  C   UNL     1       7.508   4.964  17.941  0.00  0.00    +0.000 A 
ATOM     15  C   UNL     1       6.802   4.634  16.792  0.00  0.00    +0.000 A 
ATOM     16  C   UNL     1       5.407   4.718  16.786  0.00  0.00    +0.000 A 
ATOM     17  F   UNL     1       4.755   4.354  15.675  0.00  0.00    +0.000 F 
ENDBRANCH   8  10
BRANCH   7  18
ATOM     18  C   UNL     1       1.178   8.337  21.063  0.00  0.00    +0.000 A 
ATOM     19  C   UNL     1      -0.210   8.371  21.221  0.00  0.00    +0.000 A 
ATOM     20  C   UNL     1      -0.749   8.959  22.362  0.00  0.00    +0.000 A 
ATOM     21  C   UNL     1       0.115   9.518  23.290  0.00  0.00    +0.000 A 
ATOM     22  N   UNL     1       1.459   9.508  23.164  0.00  0.00    +0.000 NA
ATOM     23  C   UNL     1       1.964   8.908  22.060  0.00  0.00    +0.000 A 
ENDBRANCH   7  18
BRANCH   1  24
ATOM     24  O   UNL     1       1.733   3.155  20.739  0.00  0.00    +0.000 OA
ATOM     25  H   UNL     1       2.083   3.287  21.638  0.00  0.00    +0.000 HD
ENDBRANCH   1  24
TORSDOF 3
ENDMDL
MODEL 3
REMARK VINA RESULT:      -7.3      3.713      7.164
REMARK  Name = 
REMARK  3 active torsions:
REMARK  status: ('A' for Active; 'I' for Inactive)
REMARK    1  A    between atoms: O_1  and  C_2
REMARK    2  A    between atoms: N_8  and  C_9
REMARK    3  A    between atoms: C_15  and  C_16
REMARK                            x       y       z     vdW  Elec       q    Type
REMARK                         _______ _______ _______ _____ _____    ______ ____
ROOT
ATOM      1  C   UNL     1       0.873   9.633  21.900  0.00  0.00    +0.000 C 
ATOM      2  N   UNL     1       1.233   8.512  21.363  0.00  0.00    +0.000 NA
ATOM      3  C   UNL     1       1.473   8.603  20.034  0.00  0.00    +0.000 A 
ATOM      4  C   UNL     1       1.278   9.689  19.205  0.00  0.00    +0.000 A 
ATOM      5  N   UNL     1       1.780   9.468  17.955  0.00  0.00    +0.000 NA
ATOM      6  C   UNL     1       2.258   8.241  18.006  0.00  0.00    +0.000 A 
ATOM      7  N   UNL     1       2.075   7.642  19.240  0.00  0.00    +0.000 N 
ATOM      8  C   UNL     1       0.694  10.959  19.711  0.00  0.00    +0.000 C 
ATOM      9  C   UNL     1       0.695  10.989  21.253  0.00  0.00    +0.000 C 
ENDROOT
BRANCH   8  10
ATOM     10  C   UNL     1      -0.711  11.055  19.144  0.00  0.00    +0.000 A 
ATOM     11  C   UNL     1      -1.265  10.082  18.295  0.00  0.00    +0.000 A 
ATOM     12  C   UNL     1      -2.589  10.186  17.874  0.00  0.00    +0.000 A 
ATOM     13  F   UNL     1      -3.101   9.241  17.076  0.00  0.00    +0.000 F 
ATOM     14  C   UNL     1      -3.393  11.243  18.286  0.00  0.00    +0.000 A 
ATOM     15  C   UNL     1      -2.863  12.215  19.124  0.00  0.00    +0.000 A 
ATOM     16  C   UNL     1      -1.535  12.118  19.547  0.00  0.00    +0.000 A 
ATOM     17  F   UNL     1      -1.067  13.049  20.387  0.00  0.00    +0.000 F 
ENDBRANCH   8  10
BRANCH   7  18
ATOM     18  C   UNL     1       2.439   6.326  19.601  0.00  0.00    +0.000 A 
ATOM     19  C   UNL     1       1.632   5.556  20.443  0.00  0.00    +0.000 A 
ATOM     20  C   UNL     1       2.036   4.266  20.776  0.00  0.00    +0.000 A 
ATOM     21  C   UNL     1       3.244   3.802  20.281  0.00  0.00    +0.000 A 
ATOM     22  N   UNL     1       4.049   4.523  19.472  0.00  0.00    +0.000 NA
ATOM     23  C   UNL     1       3.626   5.765  19.139  0.00  0.00    +0.000 A 
ENDBRANCH   7  18
BRANCH   1  24
ATOM     24  O   UNL     1       0.678   9.645  23.228  0.00  0.00    +0.000 OA
ATOM     25  H   UNL     1       1.547   9.763  23.653  0.00  0.00    +0.000 HD
ENDBRANCH   1  24
TORSDOF 3
ENDMDL
MODEL 4
REMARK VINA RESULT:      -7.3      3.469      7.371
REMARK  Name = 
REMARK  3 active torsions:
REMARK  status: ('A' for Active; 'I' for Inactive)
REMARK    1  A    between atoms: O_1  and  C_2
REMARK    2  A    between atoms: N_8  and  C_9
REMARK    3  A    between atoms: C_15  and  C_16
REMARK                            x       y       z     vdW  Elec       q    Type
REMARK                         _______ _______ _______ _____ _____    ______ ____
ROOT
ATOM      1  C   UNL     1       3.115   3.472  17.327  0.00  0.00    +0.000 C 
ATOM      2  N   UNL     1       3.936   3.839  16.397  0.00  0.00    +0.000 NA
ATOM      3  C   UNL     1       4.853   4.743  16.810  0.00  0.00    +0.000 A 
ATOM      4  C   UNL     1       4.937   5.373  18.035  0.00  0.00    +0.000 A 
ATOM      5  N   UNL     1       6.085   6.102  18.153  0.00  0.00    +0.000 NA
ATOM      6  C   UNL     1       6.693   5.944  16.994  0.00  0.00    +0.000 A 
ATOM      7  N   UNL     1       5.979   5.150  16.115  0.00  0.00    +0.000 N 
ATOM      8  C   UNL     1       3.923   5.143  19.098  0.00  0.00    +0.000 C 
ATOM      9  C   UNL     1       3.055   3.910  18.774  0.00  0.00    +0.000 C 
ENDROOT
BRANCH   8  10
ATOM     10  C   UNL     1       3.093   6.410  19.197  0.00  0.00    +0.000 A 
ATOM     11  C   UNL     1       3.038   7.374  18.175  0.00  0.00    +0.000 A 
ATOM     12  C   UNL     1       2.192   8.474  18.291  0.00  0.00    +0.000 A 
ATOM     13  F   UNL     1       2.145   9.374  17.299  0.00  0.00    +0.000 F 
ATOM     14  C   UNL     1       1.381   8.645  19.407  0.00  0.00    +0.000 A 
ATOM     15  C   UNL     1       1.423   7.704  20.428  0.00  0.00    +0.000 A 
ATOM     16  C   UNL     1       2.271   6.599  20.319  0.00  0.00    +0.000 A 
ATOM     17  F   UNL     1       2.257   5.690  21.302  0.00  0.00    +0.000 F 
ENDBRANCH   8  10
BRANCH   7  18
ATOM     18  C   UNL     1       6.341   4.824  14.789  0.00  0.00    +0.000 A 
ATOM     19  C   UNL     1       5.654   3.842  14.070  0.00  0.00    +0.000 A 
ATOM     20  C   UNL     1       6.051   3.552  12.767  0.00  0.00    +0.000 A 
ATOM     21  C   UNL     1       7.139   4.230  12.241  0.00  0.00    +0.000 A 
ATOM     22  N   UNL     1       7.827   5.178  12.911  0.00  0.00    +0.000 NA
ATOM     23  C   UNL     1       7.408   5.464  14.167  0.00  0.00    +0.000 A 
ENDBRANCH   7  18
BRANCH   1  24
ATOM     24  O   UNL     1       2.214   2.528  17.017  0.00  0.00    +0.000 OA
ATOM     25  H   UNL     1       2.153   2.486  16.045  0.00  0.00    +0.000 HD
ENDBRANCH   1  24
TORSDOF 3
ENDMDL
MODEL 5
REMARK VINA RESULT:      -7.2      0.993      1.621
REMARK  Name = 
REMARK  3 active torsions:
REMARK  status: ('A' for Active; 'I' for Inactive)
REMARK    1  A    between atoms: O_1  and  C_2
REMARK    2  A    between atoms: N_8  and  C_9
REMARK    3  A    between atoms: C_15  and  C_16
REMARK                            x       y       z     vdW  Elec       q    Type
REMARK                         _______ _______ _______ _____ _____    ______ ____
ROOT
ATOM      1  C   UNL     1       2.344   5.065  20.087  0.00  0.00    +0.000 C 
ATOM      2  N   UNL     1       1.959   6.250  20.437  0.00  0.00    +0.000 NA
ATOM      3  C   UNL     1       2.199   7.196  19.500  0.00  0.00    +0.000 A 
ATOM      4  C   UNL     1       2.882   7.059  18.308  0.00  0.00    +0.000 A 
ATOM      5  N   UNL     1       2.791   8.185  17.540  0.00  0.00    +0.000 NA
ATOM      6  C   UNL     1       2.078   9.021  18.269  0.00  0.00    +0.000 A 
ATOM      7  N   UNL     1       1.710   8.490  19.493  0.00  0.00    +0.000 N 
ATOM      8  C   UNL     1       3.515   5.772  17.916  0.00  0.00    +0.000 C 
ATOM      9  C   UNL     1       3.006   4.617  18.803  0.00  0.00    +0.000 C 
ENDROOT
BRANCH   8  10
ATOM     10  C   UNL     1       5.015   5.963  18.041  0.00  0.00    +0.000 A 
ATOM     11  C   UNL     1       5.715   6.997  17.394  0.00  0.00    +0.000 A 
ATOM     12  C   UNL     1       7.079   7.168  17.615  0.00  0.00    +0.000 A 
ATOM     13  F   UNL     1       7.724   8.167  16.998  0.00  0.00    +0.000 F 
ATOM     14  C   UNL     1       7.779   6.334  18.479  0.00  0.00    +0.000 A 
ATOM     15  C   UNL     1       7.105   5.307  19.127  0.00  0.00    +0.000 A 
ATOM     16  C   UNL     1       5.737   5.127  18.908  0.00  0.00    +0.000 A 
ATOM     17  F   UNL     1       5.110   4.154  19.579  0.00  0.00    +0.000 F 
ENDBRANCH   8  10
BRANCH   7  18
ATOM     18  C   UNL     1       0.981   9.144  20.510  0.00  0.00    +0.000 A 
ATOM     19  C   UNL     1      -0.094   9.985  20.207  0.00  0.00    +0.000 A 
ATOM     20  C   UNL     1      -0.778  10.613  21.244  0.00  0.00    +0.000 A 
ATOM     21  C   UNL     1      -0.347  10.404  22.544  0.00  0.00    +0.000 A 
ATOM     22  N   UNL     1       0.691   9.604  22.870  0.00  0.00    +0.000 NA
ATOM     23  C   UNL     1       1.327   8.982  21.848  0.00  0.00    +0.000 A 
ENDBRANCH   7  18
BRANCH   1  24
ATOM     24  O   UNL     1       2.083   4.058  20.934  0.00  0.00    +0.000 OA
ATOM     25  H   UNL     1       2.235   3.223  20.455  0.00  0.00    +0.000 HD
ENDBRANCH   1  24
TORSDOF 3
ENDMDL
MODEL 6
REMARK VINA RESULT:      -7.1      3.642      7.185
REMARK  Name = 
REMARK  3 active torsions:
REMARK  status: ('A' for Active; 'I' for Inactive)
REMARK    1  A    between atoms: O_1  and  C_2
REMARK    2  A    between atoms: N_8  and  C_9
REMARK    3  A    between atoms: C_15  and  C_16
REMARK                            x       y       z     vdW  Elec       q    Type
REMARK                         _______ _______ _______ _____ _____    ______ ____
ROOT
ATOM      1  C   UNL     1       0.902   9.674  21.655  0.00  0.00    +0.000 C 
ATOM      2  N   UNL     1       1.316   8.579  21.101  0.00  0.00    +0.000 NA
ATOM      3  C   UNL     1       1.543   8.698  19.773  0.00  0.00    +0.000 A 
ATOM      4  C   UNL     1       1.289   9.782  18.958  0.00  0.00    +0.000 A 
ATOM      5  N   UNL     1       1.795   9.603  17.703  0.00  0.00    +0.000 NA
ATOM      6  C   UNL     1       2.335   8.401  17.737  0.00  0.00    +0.000 A 
ATOM      7  N   UNL     1       2.189   7.779  18.964  0.00  0.00    +0.000 N 
ATOM      8  C   UNL     1       0.644  11.015  19.483  0.00  0.00    +0.000 C 
ATOM      9  C   UNL     1       0.652  11.026  21.025  0.00  0.00    +0.000 C 
ENDROOT
BRANCH   8  10
ATOM     10  C   UNL     1      -0.767  11.046  18.924  0.00  0.00    +0.000 A 
ATOM     11  C   UNL     1      -1.250  10.100  18.004  0.00  0.00    +0.000 A 
ATOM     12  C   UNL     1      -2.580  10.134  17.592  0.00  0.00    +0.000 A 
ATOM     13  F   UNL     1      -3.024   9.215  16.725  0.00  0.00    +0.000 F 
ATOM     14  C   UNL     1      -3.460  11.093  18.081  0.00  0.00    +0.000 A 
ATOM     15  C   UNL     1      -3.001  12.038  18.989  0.00  0.00    +0.000 A 
ATOM     16  C   UNL     1      -1.667  12.011  19.405  0.00  0.00    +0.000 A 
ATOM     17  F   UNL     1      -1.267  12.910  20.311  0.00  0.00    +0.000 F 
ENDBRANCH   8  10
BRANCH   7  18
ATOM     18  C   UNL     1       2.622   6.479  19.307  0.00  0.00    +0.000 A 
ATOM     19  C   UNL     1       3.739   5.901  18.697  0.00  0.00    +0.000 A 
ATOM     20  C   UNL     1       4.122   4.614  19.063  0.00  0.00    +0.000 A 
ATOM     21  C   UNL     1       3.360   3.938  20.002  0.00  0.00    +0.000 A 
ATOM     22  N   UNL     1       2.273   4.464  20.604  0.00  0.00    +0.000 NA
ATOM     23  C   UNL     1       1.932   5.728  20.254  0.00  0.00    +0.000 A 
ENDBRANCH   7  18
BRANCH   1  24
ATOM     24  O   UNL     1       0.714   9.659  22.983  0.00  0.00    +0.000 OA
ATOM     25  H   UNL     1       1.529   9.315  23.393  0.00  0.00    +0.000 HD
ENDBRANCH   1  24
TORSDOF 3
ENDMDL
MODEL 7
REMARK VINA RESULT:      -7.1      1.419      1.898
REMARK  Name = 
REMARK  3 active torsions:
REMARK  status: ('A' for Active; 'I' for Inactive)
REMARK    1  A    between atoms: O_1  and  C_2
REMARK    2  A    between atoms: N_8  and  C_9
REMARK    3  A    between atoms: C_15  and  C_16
REMARK                            x       y       z     vdW  Elec       q    Type
REMARK                         _______ _______ _______ _____ _____    ______ ____
ROOT
ATOM      1  C   UNL     1       1.776   4.213  19.875  0.00  0.00    +0.000 C 
ATOM      2  N   UNL     1       1.617   5.368  20.436  0.00  0.00    +0.000 NA
ATOM      3  C   UNL     1       1.977   6.407  19.648  0.00  0.00    +0.000 A 
ATOM      4  C   UNL     1       2.574   6.365  18.404  0.00  0.00    +0.000 A 
ATOM      5  N   UNL     1       2.646   7.604  17.835  0.00  0.00    +0.000 NA
ATOM      6  C   UNL     1       2.120   8.410  18.737  0.00  0.00    +0.000 A 
ATOM      7  N   UNL     1       1.719   7.746  19.883  0.00  0.00    +0.000 N 
ATOM      8  C   UNL     1       2.958   5.077  17.768  0.00  0.00    +0.000 C 
ATOM      9  C   UNL     1       2.295   3.887  18.491  0.00  0.00    +0.000 C 
ENDROOT
BRANCH   8  10
ATOM     10  C   UNL     1       4.472   4.997  17.815  0.00  0.00    +0.000 A 
ATOM     11  C   UNL     1       5.263   4.718  16.686  0.00  0.00    +0.000 A 
ATOM     12  C   UNL     1       6.652   4.739  16.777  0.00  0.00    +0.000 A 
ATOM     13  F   UNL     1       7.386   4.484  15.686  0.00  0.00    +0.000 F 
ATOM     14  C   UNL     1       7.290   5.041  17.975  0.00  0.00    +0.000 A 
ATOM     15  C   UNL     1       6.526   5.318  19.101  0.00  0.00    +0.000 A 
ATOM     16  C   UNL     1       5.132   5.296  19.017  0.00  0.00    +0.000 A 
ATOM     17  F   UNL     1       4.426   5.607  20.111  0.00  0.00    +0.000 F 
ENDBRANCH   8  10
BRANCH   7  18
ATOM     18  C   UNL     1       1.158   8.328  21.041  0.00  0.00    +0.000 A 
ATOM     19  C   UNL     1      -0.226   8.373  21.233  0.00  0.00    +0.000 A 
ATOM     20  C   UNL     1      -0.732   8.963  22.387  0.00  0.00    +0.000 A 
ATOM     21  C   UNL     1       0.159   9.514  23.295  0.00  0.00    +0.000 A 
ATOM     22  N   UNL     1       1.499   9.494  23.136  0.00  0.00    +0.000 NA
ATOM     23  C   UNL     1       1.973   8.892  22.018  0.00  0.00    +0.000 A 
ENDBRANCH   7  18
BRANCH   1  24
ATOM     24  O   UNL     1       1.381   3.133  20.566  0.00  0.00    +0.000 OA
ATOM     25  H   UNL     1       0.817   2.598  19.980  0.00  0.00    +0.000 HD
ENDBRANCH   1  24
TORSDOF 3
ENDMDL
MODEL 8
REMARK VINA RESULT:      -7.0      3.502      4.930
REMARK  Name = 
REMARK  3 active torsions:
REMARK  status: ('A' for Active; 'I' for Inactive)
REMARK    1  A    between atoms: O_1  and  C_2
REMARK    2  A    between atoms: N_8  and  C_9
REMARK    3  A    between atoms: C_15  and  C_16
REMARK                            x       y       z     vdW  Elec       q    Type
REMARK                         _______ _______ _______ _____ _____    ______ ____
ROOT
ATOM      1  C   UNL     1       5.454   4.074  16.147  0.00  0.00    +0.000 C 
ATOM      2  N   UNL     1       4.511   3.965  17.027  0.00  0.00    +0.000 NA
ATOM      3  C   UNL     1       4.016   5.155  17.438  0.00  0.00    +0.000 A 
ATOM      4  C   UNL     1       4.463   6.421  17.117  0.00  0.00    +0.000 A 
ATOM      5  N   UNL     1       3.622   7.389  17.587  0.00  0.00    +0.000 NA
ATOM      6  C   UNL     1       2.676   6.723  18.218  0.00  0.00    +0.000 A 
ATOM      7  N   UNL     1       2.872   5.353  18.192  0.00  0.00    +0.000 N 
ATOM      8  C   UNL     1       5.657   6.630  16.257  0.00  0.00    +0.000 C 
ATOM      9  C   UNL     1       6.052   5.323  15.538  0.00  0.00    +0.000 C 
ENDROOT
BRANCH   8  10
ATOM     10  C   UNL     1       6.767   7.137  17.159  0.00  0.00    +0.000 A 
ATOM     11  C   UNL     1       7.198   8.475  17.169  0.00  0.00    +0.000 A 
ATOM     12  C   UNL     1       8.164   8.896  18.080  0.00  0.00    +0.000 A 
ATOM     13  F   UNL     1       8.551  10.179  18.081  0.00  0.00    +0.000 F 
ATOM     14  C   UNL     1       8.719   8.014  19.000  0.00  0.00    +0.000 A 
ATOM     15  C   UNL     1       8.307   6.688  19.004  0.00  0.00    +0.000 A 
ATOM     16  C   UNL     1       7.340   6.258  18.092  0.00  0.00    +0.000 A 
ATOM     17  F   UNL     1       6.936   4.983  18.150  0.00  0.00    +0.000 F 
ENDBRANCH   8  10
BRANCH   7  18
ATOM     18  C   UNL     1       2.061   4.374  18.807  0.00  0.00    +0.000 A 
ATOM     19  C   UNL     1       1.935   4.305  20.197  0.00  0.00    +0.000 A 
ATOM     20  C   UNL     1       1.129   3.317  20.757  0.00  0.00    +0.000 A 
ATOM     21  C   UNL     1       0.503   2.415  19.912  0.00  0.00    +0.000 A 
ATOM     22  N   UNL     1       0.611   2.450  18.567  0.00  0.00    +0.000 NA
ATOM     23  C   UNL     1       1.378   3.435  18.040  0.00  0.00    +0.000 A 
ENDBRANCH   7  18
BRANCH   1  24
ATOM     24  O   UNL     1       5.956   2.939  15.639  0.00  0.00    +0.000 OA
ATOM     25  H   UNL     1       5.207   2.350  15.434  0.00  0.00    +0.000 HD
ENDBRANCH   1  24
TORSDOF 3
ENDMDL
MODEL 9
REMARK VINA RESULT:      -6.8      1.405      2.021
REMARK  Name = 
REMARK  3 active torsions:
REMARK  status: ('A' for Active; 'I' for Inactive)
REMARK    1  A    between atoms: O_1  and  C_2
REMARK    2  A    between atoms: N_8  and  C_9
REMARK    3  A    between atoms: C_15  and  C_16
REMARK                            x       y       z     vdW  Elec       q    Type
REMARK                         _______ _______ _______ _____ _____    ______ ____
ROOT
ATOM      1  C   UNL     1       1.853   4.541  19.882  0.00  0.00    +0.000 C 
ATOM      2  N   UNL     1       1.681   5.770  20.247  0.00  0.00    +0.000 NA
ATOM      3  C   UNL     1       2.077   6.670  19.318  0.00  0.00    +0.000 A 
ATOM      4  C   UNL     1       2.719   6.431  18.119  0.00  0.00    +0.000 A 
ATOM      5  N   UNL     1       2.820   7.564  17.365  0.00  0.00    +0.000 NA
ATOM      6  C   UNL     1       2.268   8.503  18.107  0.00  0.00    +0.000 A 
ATOM      7  N   UNL     1       1.820   8.030  19.328  0.00  0.00    +0.000 N 
ATOM      8  C   UNL     1       3.117   5.058  17.710  0.00  0.00    +0.000 C 
ATOM      9  C   UNL     1       2.420   3.999  18.588  0.00  0.00    +0.000 C 
ENDROOT
BRANCH   8  10
ATOM     10  C   UNL     1       4.628   4.984  17.826  0.00  0.00    +0.000 A 
ATOM     11  C   UNL     1       5.468   4.683  16.739  0.00  0.00    +0.000 A 
ATOM     12  C   UNL     1       6.852   4.712  16.892  0.00  0.00    +0.000 A 
ATOM     13  F   UNL     1       7.635   4.435  15.840  0.00  0.00    +0.000 F 
ATOM     14  C   UNL     1       7.436   5.044  18.109  0.00  0.00    +0.000 A 
ATOM     15  C   UNL     1       6.622   5.343  19.194  0.00  0.00    +0.000 A 
ATOM     16  C   UNL     1       5.233   5.313  19.049  0.00  0.00    +0.000 A 
ATOM     17  F   UNL     1       4.478   5.645  20.104  0.00  0.00    +0.000 F 
ENDBRANCH   8  10
BRANCH   7  18
ATOM     18  C   UNL     1       1.221   8.789  20.357  0.00  0.00    +0.000 A 
ATOM     19  C   UNL     1       1.490   8.526  21.703  0.00  0.00    +0.000 A 
ATOM     20  C   UNL     1       0.870   9.297  22.683  0.00  0.00    +0.000 A 
ATOM     21  C   UNL     1      -0.018  10.283  22.285  0.00  0.00    +0.000 A 
ATOM     22  N   UNL     1      -0.305  10.558  20.995  0.00  0.00    +0.000 NA
ATOM     23  C   UNL     1       0.329   9.814  20.057  0.00  0.00    +0.000 A 
ENDBRANCH   7  18
BRANCH   1  24
ATOM     24  O   UNL     1       1.426   3.584  20.720  0.00  0.00    +0.000 OA
ATOM     25  H   UNL     1       2.029   2.824  20.633  0.00  0.00    +0.000 HD
ENDBRANCH   1  24
TORSDOF 3
ENDMDL
