MODEL 1
REMARK VINA RESULT:      -7.6      0.000      0.000
REMARK  Name = 
REMARK  3 active torsions:
REMARK  status: ('A' for Active; 'I' for Inactive)
REMARK    1  A    between atoms: C_1  and  C_2
REMARK    2  A    between atoms: C_2  and  C_4
REMARK    3  A    between atoms: C_7  and  C_8
REMARK                            x       y       z     vdW  Elec       q    Type
REMARK                         _______ _______ _______ _____ _____    ______ ____
ROOT
ATOM      1  C   UNL     1       6.273   4.886  14.837  0.00  0.00    +0.000 A 
ATOM      2  C   UNL     1       6.013   3.614  15.344  0.00  0.00    +0.000 A 
ATOM      3  C   UNL     1       5.114   3.456  16.392  0.00  0.00    +0.000 A 
ATOM      4  C   UNL     1       4.430   4.551  16.937  0.00  0.00    +0.000 A 
ATOM      5  C   UNL     1       4.737   5.833  16.452  0.00  0.00    +0.000 A 
ATOM      6  C   UNL     1       5.651   6.004  15.406  0.00  0.00    +0.000 A 
ENDROOT
BRANCH   4   7
ATOM      7  C   UNL     1       3.288   4.318  17.842  0.00  0.00    +0.000 A 
ATOM      8  C   UNL     1       2.123   3.607  17.460  0.00  0.00    +0.000 A 
ATOM      9  C   UNL     1       1.181   3.183  18.410  0.00  0.00    +0.000 A 
ATOM     10  C   UNL     1       1.449   3.464  19.731  0.00  0.00    +0.000 A 
ATOM     11  C   UNL     1       2.523   4.239  20.099  0.00  0.00    +0.000 A 
ATOM     12  C   UNL     1       3.436   4.693  19.194  0.00  0.00    +0.000 A 
ATOM     13  O   UNL     1       2.662   4.341  21.449  0.00  0.00    +0.000 OA
ATOM     14  C   UNL     1       1.835   3.220  21.819  0.00  0.00    +0.000 C 
ATOM     15  O   UNL     1       0.824   2.945  20.824  0.00  0.00    +0.000 OA
ENDBRANCH   4   7
BRANCH   1  17
ATOM     16  C   UNL     1       6.906   4.167  12.463  0.00  0.00    +0.000 C 
ATOM     17  C   UNL     1       7.190   4.991  13.675  0.00  0.00    +0.000 C 
ATOM     18  O   UNL     1       8.188   5.712  13.757  0.00  0.00    +0.000 OA
ENDBRANCH   1  17
TORSDOF 2
ENDMDL
MODEL 2
REMARK VINA RESULT:      -7.4      1.366      1.569
REMARK  Name = 
REMARK  3 active torsions:
REMARK  status: ('A' for Active; 'I' for Inactive)
REMARK    1  A    between atoms: C_1  and  C_2
REMARK    2  A    between atoms: C_2  and  C_4
REMARK    3  A    between atoms: C_7  and  C_8
REMARK                            x       y       z     vdW  Elec       q    Type
REMARK                         _______ _______ _______ _____ _____    ______ ____
ROOT
ATOM      1  C   UNL     1       6.763   4.759  14.691  0.00  0.00    +0.000 A 
ATOM      2  C   UNL     1       5.425   4.371  14.646  0.00  0.00    +0.000 A 
ATOM      3  C   UNL     1       4.701   4.243  15.825  0.00  0.00    +0.000 A 
ATOM      4  C   UNL     1       5.278   4.529  17.070  0.00  0.00    +0.000 A 
ATOM      5  C   UNL     1       6.640   4.871  17.107  0.00  0.00    +0.000 A 
ATOM      6  C   UNL     1       7.381   4.989  15.927  0.00  0.00    +0.000 A 
ENDROOT
BRANCH   4   7
ATOM      7  C   UNL     1       4.414   4.657  18.260  0.00  0.00    +0.000 A 
ATOM      8  C   UNL     1       3.530   5.747  18.467  0.00  0.00    +0.000 A 
ATOM      9  C   UNL     1       2.546   5.708  19.467  0.00  0.00    +0.000 A 
ATOM     10  C   UNL     1       2.458   4.559  20.221  0.00  0.00    +0.000 A 
ATOM     11  C   UNL     1       3.375   3.542  20.093  0.00  0.00    +0.000 A 
ATOM     12  C   UNL     1       4.362   3.567  19.153  0.00  0.00    +0.000 A 
ATOM     13  O   UNL     1       3.077   2.463  20.867  0.00  0.00    +0.000 OA
ATOM     14  C   UNL     1       1.695   2.779  21.124  0.00  0.00    +0.000 C 
ATOM     15  O   UNL     1       1.445   4.200  21.057  0.00  0.00    +0.000 OA
ENDBRANCH   4   7
BRANCH   1  17
ATOM     16  C   UNL     1       7.057   4.112  12.232  0.00  0.00    +0.000 C 
ATOM     17  C   UNL     1       7.471   4.944  13.401  0.00  0.00    +0.000 C 
ATOM     18  O   UNL     1       8.414   5.737  13.337  0.00  0.00    +0.000 OA
ENDBRANCH   1  17
TORSDOF 2
ENDMDL
MODEL 3
REMARK VINA RESULT:      -7.4      1.105      1.704
REMARK  Name = 
REMARK  3 active torsions:
REMARK  status: ('A' for Active; 'I' for Inactive)
REMARK    1  A    between atoms: C_1  and  C_2
REMARK    2  A    between atoms: C_2  and  C_4
REMARK    3  A    between atoms: C_7  and  C_8
REMARK                            x       y       z     vdW  Elec       q    Type
REMARK                         _______ _______ _______ _____ _____    ______ ____
ROOT
ATOM      1  C   UNL     1       6.252   4.850  14.690  0.00  0.00    +0.000 A 
ATOM      2  C   UNL     1       5.746   6.038  15.216  0.00  0.00    +0.000 A 
ATOM      3  C   UNL     1       4.906   6.004  16.322  0.00  0.00    +0.000 A 
ATOM      4  C   UNL     1       4.576   4.794  16.950  0.00  0.00    +0.000 A 
ATOM      5  C   UNL     1       5.051   3.601  16.382  0.00  0.00    +0.000 A 
ATOM      6  C   UNL     1       5.887   3.625  15.260  0.00  0.00    +0.000 A 
ENDROOT
BRANCH   4   7
ATOM      7  C   UNL     1       3.922   4.816  18.272  0.00  0.00    +0.000 A 
ATOM      8  C   UNL     1       2.988   5.809  18.663  0.00  0.00    +0.000 A 
ATOM      9  C   UNL     1       2.198   5.656  19.813  0.00  0.00    +0.000 A 
ATOM     10  C   UNL     1       2.349   4.491  20.531  0.00  0.00    +0.000 A 
ATOM     11  C   UNL     1       3.320   3.572  20.215  0.00  0.00    +0.000 A 
ATOM     12  C   UNL     1       4.125   3.710  19.123  0.00  0.00    +0.000 A 
ATOM     13  O   UNL     1       3.262   2.455  20.991  0.00  0.00    +0.000 OA
ATOM     14  C   UNL     1       1.921   2.630  21.489  0.00  0.00    +0.000 C 
ATOM     15  O   UNL     1       1.532   4.020  21.514  0.00  0.00    +0.000 OA
ENDBRANCH   4   7
BRANCH   1  17
ATOM     16  C   UNL     1       6.964   4.088  12.353  0.00  0.00    +0.000 C 
ATOM     17  C   UNL     1       7.197   4.948  13.551  0.00  0.00    +0.000 C 
ATOM     18  O   UNL     1       8.176   5.694  13.641  0.00  0.00    +0.000 OA
ENDBRANCH   1  17
TORSDOF 2
ENDMDL
MODEL 4
REMARK VINA RESULT:      -7.3      3.855      7.110
REMARK  Name = 
REMARK  3 active torsions:
REMARK  status: ('A' for Active; 'I' for Inactive)
REMARK    1  A    between atoms: C_1  and  C_2
REMARK    2  A    between atoms: C_2  and  C_4
REMARK    3  A    between atoms: C_7  and  C_8
REMARK                            x       y       z     vdW  Elec       q    Type
REMARK                         _______ _______ _______ _____ _____    ______ ____
ROOT
ATOM      1  C   UNL     1       1.176   9.262  19.804  0.00  0.00    +0.000 A 
ATOM      2  C   UNL     1       1.523   8.115  20.517  0.00  0.00    +0.000 A 
ATOM      3  C   UNL     1       2.218   7.091  19.887  0.00  0.00    +0.000 A 
ATOM      4  C   UNL     1       2.613   7.195  18.546  0.00  0.00    +0.000 A 
ATOM      5  C   UNL     1       2.216   8.332  17.824  0.00  0.00    +0.000 A 
ATOM      6  C   UNL     1       1.504   9.363  18.446  0.00  0.00    +0.000 A 
ENDROOT
BRANCH   4   7
ATOM      7  C   UNL     1       3.583   6.228  17.996  0.00  0.00    +0.000 A 
ATOM      8  C   UNL     1       3.529   4.835  18.260  0.00  0.00    +0.000 A 
ATOM      9  C   UNL     1       4.297   3.922  17.522  0.00  0.00    +0.000 A 
ATOM     10  C   UNL     1       5.086   4.431  16.514  0.00  0.00    +0.000 A 
ATOM     11  C   UNL     1       5.218   5.785  16.320  0.00  0.00    +0.000 A 
ATOM     12  C   UNL     1       4.510   6.697  17.044  0.00  0.00    +0.000 A 
ATOM     13  O   UNL     1       5.978   6.089  15.231  0.00  0.00    +0.000 OA
ATOM     14  C   UNL     1       5.915   4.804  14.581  0.00  0.00    +0.000 C 
ATOM     15  O   UNL     1       5.708   3.732  15.526  0.00  0.00    +0.000 OA
ENDBRANCH   4   7
BRANCH   1  17
ATOM     16  C   UNL     1      -0.733  10.961  19.945  0.00  0.00    +0.000 C 
ATOM     17  C   UNL     1       0.493  10.353  20.542  0.00  0.00    +0.000 C 
ATOM     18  O   UNL     1       0.981  10.765  21.598  0.00  0.00    +0.000 OA
ENDBRANCH   1  17
TORSDOF 2
ENDMDL
MODEL 5
REMARK VINA RESULT:      -7.3      1.231      1.363
REMARK  Name = 
REMARK  3 active torsions:
REMARK  status: ('A' for Active; 'I' for Inactive)
REMARK    1  A    between atoms: C_1  and  C_2
REMARK    2  A    between atoms: C_2  and  C_4
REMARK    3  A    between atoms: C_7  and  C_8
REMARK                            x       y       z     vdW  Elec       q    Type
REMARK                         _______ _______ _______ _____ _____    ______ ____
ROOT
ATOM      1  C   UNL     1       6.257   4.950  14.795  0.00  0.00    +0.000 A 
ATOM      2  C   UNL     1       6.397   3.913  15.716  0.00  0.00    +0.000 A 
ATOM      3  C   UNL     1       5.775   3.998  16.956  0.00  0.00    +0.000 A 
ATOM      4  C   UNL     1       4.975   5.098  17.296  0.00  0.00    +0.000 A 
ATOM      5  C   UNL     1       4.882   6.160  16.381  0.00  0.00    +0.000 A 
ATOM      6  C   UNL     1       5.516   6.089  15.135  0.00  0.00    +0.000 A 
ENDROOT
BRANCH   4   7
ATOM      7  C   UNL     1       4.112   5.028  18.491  0.00  0.00    +0.000 A 
ATOM      8  C   UNL     1       3.107   5.986  18.783  0.00  0.00    +0.000 A 
ATOM      9  C   UNL     1       2.142   5.752  19.774  0.00  0.00    +0.000 A 
ATOM     10  C   UNL     1       2.195   4.543  20.433  0.00  0.00    +0.000 A 
ATOM     11  C   UNL     1       3.223   3.655  20.225  0.00  0.00    +0.000 A 
ATOM     12  C   UNL     1       4.193   3.871  19.293  0.00  0.00    +0.000 A 
ATOM     13  O   UNL     1       3.059   2.490  20.909  0.00  0.00    +0.000 OA
ATOM     14  C   UNL     1       1.651   2.620  21.188  0.00  0.00    +0.000 C 
ATOM     15  O   UNL     1       1.237   4.003  21.235  0.00  0.00    +0.000 OA
ENDBRANCH   4   7
BRANCH   1  17
ATOM     16  C   UNL     1       6.390   3.688  12.573  0.00  0.00    +0.000 C 
ATOM     17  C   UNL     1       6.887   4.779  13.463  0.00  0.00    +0.000 C 
ATOM     18  O   UNL     1       7.834   5.503  13.145  0.00  0.00    +0.000 OA
ENDBRANCH   1  17
TORSDOF 2
ENDMDL
MODEL 6
REMARK VINA RESULT:      -7.2      3.865      4.614
REMARK  Name = 
REMARK  3 active torsions:
REMARK  status: ('A' for Active; 'I' for Inactive)
REMARK    1  A    between atoms: C_1  and  C_2
REMARK    2  A    between atoms: C_2  and  C_4
REMARK    3  A    between atoms: C_7  and  C_8
REMARK                            x       y       z     vdW  Elec       q    Type
REMARK                         _______ _______ _______ _____ _____    ______ ____
ROOT
ATOM      1  C   UNL     1       5.388   5.233  16.508  0.00  0.00    +0.000 A 
ATOM      2  C   UNL     1       5.331   6.624  16.427  0.00  0.00    +0.000 A 
ATOM      3  C   UNL     1       4.289   7.311  17.038  0.00  0.00    +0.000 A 
ATOM      4  C   UNL     1       3.301   6.637  17.770  0.00  0.00    +0.000 A 
ATOM      5  C   UNL     1       3.341   5.233  17.802  0.00  0.00    +0.000 A 
ATOM      6  C   UNL     1       4.378   4.532  17.178  0.00  0.00    +0.000 A 
ENDROOT
BRANCH   4   7
ATOM      7  C   UNL     1       2.382   7.406  18.631  0.00  0.00    +0.000 A 
ATOM      8  C   UNL     1       2.127   7.076  19.987  0.00  0.00    +0.000 A 
ATOM      9  C   UNL     1       1.460   7.967  20.842  0.00  0.00    +0.000 A 
ATOM     10  C   UNL     1       1.087   9.184  20.317  0.00  0.00    +0.000 A 
ATOM     11  C   UNL     1       1.241   9.469  18.981  0.00  0.00    +0.000 A 
ATOM     12  C   UNL     1       1.855   8.610  18.120  0.00  0.00    +0.000 A 
ATOM     13  O   UNL     1       0.884  10.746  18.670  0.00  0.00    +0.000 OA
ATOM     14  C   UNL     1       0.915  11.291  20.004  0.00  0.00    +0.000 C 
ATOM     15  O   UNL     1       0.665  10.281  21.005  0.00  0.00    +0.000 OA
ENDBRANCH   4   7
BRANCH   1  17
ATOM     16  C   UNL     1       6.393   3.926  14.550  0.00  0.00    +0.000 C 
ATOM     17  C   UNL     1       6.556   4.555  15.895  0.00  0.00    +0.000 C 
ATOM     18  O   UNL     1       7.612   4.481  16.528  0.00  0.00    +0.000 OA
ENDBRANCH   1  17
TORSDOF 2
ENDMDL
MODEL 7
REMARK VINA RESULT:      -7.2      4.781      6.389
REMARK  Name = 
REMARK  3 active torsions:
REMARK  status: ('A' for Active; 'I' for Inactive)
REMARK    1  A    between atoms: C_1  and  C_2
REMARK    2  A    between atoms: C_2  and  C_4
REMARK    3  A    between atoms: C_7  and  C_8
REMARK                            x       y       z     vdW  Elec       q    Type
REMARK                         _______ _______ _______ _____ _____    ______ ____
ROOT
ATOM      1  C   UNL     1       2.500   4.578  18.790  0.00  0.00    +0.000 A 
ATOM      2  C   UNL     1       1.922   4.704  20.052  0.00  0.00    +0.000 A 
ATOM      3  C   UNL     1       1.692   5.966  20.587  0.00  0.00    +0.000 A 
ATOM      4  C   UNL     1       2.000   7.129  19.867  0.00  0.00    +0.000 A 
ATOM      5  C   UNL     1       2.627   6.990  18.618  0.00  0.00    +0.000 A 
ATOM      6  C   UNL     1       2.875   5.724  18.078  0.00  0.00    +0.000 A 
ENDROOT
BRANCH   4   7
ATOM      7  C   UNL     1       1.489   8.431  20.337  0.00  0.00    +0.000 A 
ATOM      8  C   UNL     1       1.030   9.449  19.462  0.00  0.00    +0.000 A 
ATOM      9  C   UNL     1       0.317  10.558  19.944  0.00  0.00    +0.000 A 
ATOM     10  C   UNL     1       0.060  10.604  21.296  0.00  0.00    +0.000 A 
ATOM     11  C   UNL     1       0.587   9.674  22.160  0.00  0.00    +0.000 A 
ATOM     12  C   UNL     1       1.311   8.605  21.725  0.00  0.00    +0.000 A 
ATOM     13  O   UNL     1       0.159   9.844  23.442  0.00  0.00    +0.000 OA
ATOM     14  C   UNL     1      -0.981  10.680  23.161  0.00  0.00    +0.000 C 
ATOM     15  O   UNL     1      -0.810  11.431  21.939  0.00  0.00    +0.000 OA
ENDBRANCH   4   7
BRANCH   1  17
ATOM     16  C   UNL     1       3.496   2.229  18.995  0.00  0.00    +0.000 C 
ATOM     17  C   UNL     1       2.662   3.210  18.240  0.00  0.00    +0.000 C 
ATOM     18  O   UNL     1       2.151   2.932  17.151  0.00  0.00    +0.000 OA
ENDBRANCH   1  17
TORSDOF 2
ENDMDL
MODEL 8
REMARK VINA RESULT:      -7.2      3.908      7.200
REMARK  Name = 
REMARK  3 active torsions:
REMARK  status: ('A' for Active; 'I' for Inactive)
REMARK    1  A    between atoms: C_1  and  C_2
REMARK    2  A    between atoms: C_2  and  C_4
REMARK    3  A    between atoms: C_7  and  C_8
REMARK                            x       y       z     vdW  Elec       q    Type
REMARK                         _______ _______ _______ _____ _____    ______ ____
ROOT
ATOM      1  C   UNL     1       1.058   8.932  20.182  0.00  0.00    +0.000 A 
ATOM      2  C   UNL     1       1.561   7.730  20.675  0.00  0.00    +0.000 A 
ATOM      3  C   UNL     1       2.360   6.929  19.869  0.00  0.00    +0.000 A 
ATOM      4  C   UNL     1       2.705   7.320  18.567  0.00  0.00    +0.000 A 
ATOM      5  C   UNL     1       2.151   8.509  18.063  0.00  0.00    +0.000 A 
ATOM      6  C   UNL     1       1.334   9.314  18.863  0.00  0.00    +0.000 A 
ENDROOT
BRANCH   4   7
ATOM      7  C   UNL     1       3.771   6.596  17.848  0.00  0.00    +0.000 A 
ATOM      8  C   UNL     1       4.222   6.959  16.553  0.00  0.00    +0.000 A 
ATOM      9  C   UNL     1       5.399   6.419  16.013  0.00  0.00    +0.000 A 
ATOM     10  C   UNL     1       6.112   5.544  16.802  0.00  0.00    +0.000 A 
ATOM     11  C   UNL     1       5.629   5.112  18.014  0.00  0.00    +0.000 A 
ATOM     12  C   UNL     1       4.471   5.593  18.549  0.00  0.00    +0.000 A 
ATOM     13  O   UNL     1       6.508   4.311  18.677  0.00  0.00    +0.000 OA
ATOM     14  C   UNL     1       7.694   4.665  17.937  0.00  0.00    +0.000 C 
ATOM     15  O   UNL     1       7.382   5.100  16.596  0.00  0.00    +0.000 OA
ENDBRANCH   4   7
BRANCH   1  17
ATOM     16  C   UNL     1       0.083   9.323  22.516  0.00  0.00    +0.000 C 
ATOM     17  C   UNL     1       0.265   9.780  21.107  0.00  0.00    +0.000 C 
ATOM     18  O   UNL     1      -0.266  10.808  20.678  0.00  0.00    +0.000 OA
ENDBRANCH   1  17
TORSDOF 2
ENDMDL
MODEL 9
REMARK VINA RESULT:      -7.1      4.289      6.402
REMARK  Name = 
REMARK  3 active torsions:
REMARK  status: ('A' for Active; 'I' for Inactive)
REMARK    1  A    between atoms: C_1  and  C_2
REMARK    2  A    between atoms: C_2  and  C_4
REMARK    3  A    between atoms: C_7  and  C_8
REMARK                            x       y       z     vdW  Elec       q    Type
REMARK                         _______ _______ _______ _____ _____    ______ ____
ROOT
ATOM      1  C   UNL     1       1.003   9.745  19.055  0.00  0.00    +0.000 A 
ATOM      2  C   UNL     1       1.670   9.442  17.869  0.00  0.00    +0.000 A 
ATOM      3  C   UNL     1       2.436   8.285  17.780  0.00  0.00    +0.000 A 
ATOM      4  C   UNL     1       2.529   7.389  18.853  0.00  0.00    +0.000 A 
ATOM      5  C   UNL     1       1.894   7.729  20.059  0.00  0.00    +0.000 A 
ATOM      6  C   UNL     1       1.132   8.898  20.162  0.00  0.00    +0.000 A 
ENDROOT
BRANCH   4   7
ATOM      7  C   UNL     1       3.109   6.050  18.635  0.00  0.00    +0.000 A 
ATOM      8  C   UNL     1       4.320   5.618  19.234  0.00  0.00    +0.000 A 
ATOM      9  C   UNL     1       4.703   4.268  19.215  0.00  0.00    +0.000 A 
ATOM     10  C   UNL     1       3.843   3.377  18.612  0.00  0.00    +0.000 A 
ATOM     11  C   UNL     1       2.720   3.802  17.944  0.00  0.00    +0.000 A 
ATOM     12  C   UNL     1       2.340   5.110  17.917  0.00  0.00    +0.000 A 
ATOM     13  O   UNL     1       1.960   2.771  17.482  0.00  0.00    +0.000 OA
ATOM     14  C   UNL     1       2.519   1.729  18.306  0.00  0.00    +0.000 C 
ATOM     15  O   UNL     1       3.880   2.018  18.692  0.00  0.00    +0.000 OA
ENDBRANCH   4   7
BRANCH   1  17
ATOM     16  C   UNL     1      -1.247  10.855  18.548  0.00  0.00    +0.000 C 
ATOM     17  C   UNL     1       0.147  10.956  19.074  0.00  0.00    +0.000 C 
ATOM     18  O   UNL     1       0.620  12.024  19.472  0.00  0.00    +0.000 OA
ENDBRANCH   1  17
TORSDOF 2
ENDMDL
