MODEL 1
REMARK VINA RESULT:      -8.6      0.000      0.000
REMARK  Name = 
REMARK  5 active torsions:
REMARK  status: ('A' for Active; 'I' for Inactive)
REMARK    1  A    between atoms: C_1  and  C_2
REMARK    2  A    between atoms: N_8  and  C_9
REMARK    3  A    between atoms: C_15  and  C_16
REMARK    4  A    between atoms: C_18  and  C_20
REMARK    5  A    between atoms: C_24  and  C_25
REMARK                            x       y       z     vdW  Elec       q    Type
REMARK                         _______ _______ _______ _____ _____    ______ ____
ROOT
ATOM      1  C   UNL     1      -0.292   9.436  17.729  0.00  0.00    +0.000 C 
ATOM      2  C   UNL     1       1.156   9.522  18.239  0.00  0.00    +0.000 C 
ATOM      3  C   UNL     1       1.650  11.009  18.166  0.00  0.00    +0.000 C 
ATOM      4  C   UNL     1       1.336  11.719  19.428  0.00  0.00    +0.000 A 
ATOM      5  C   UNL     1       0.868  11.104  20.571  0.00  0.00    +0.000 A 
ATOM      6  N   UNL     1       0.874  11.995  21.599  0.00  0.00    +0.000 NA
ATOM      7  N   UNL     1       1.412  13.122  21.159  0.00  0.00    +0.000 NA
ATOM      8  N   UNL     1       1.694  12.988  19.835  0.00  0.00    +0.000 N 
ATOM      9  C   UNL     1       0.536   9.645  20.703  0.00  0.00    +0.000 C 
ATOM     10  C   UNL     1       0.710   9.186  22.154  0.00  0.00    +0.000 C 
ATOM     11  N   UNL     1       1.302   8.925  19.611  0.00  0.00    +0.000 N 
ATOM     12  C   UNL     1       1.894   7.679  19.881  0.00  0.00    +0.000 C 
ATOM     13  O   UNL     1       1.756   7.087  20.951  0.00  0.00    +0.000 OA
ENDROOT
BRANCH  12  14
ATOM     14  C   UNL     1       2.698   6.912  18.880  0.00  0.00    +0.000 A 
ATOM     15  C   UNL     1       3.526   7.695  18.048  0.00  0.00    +0.000 A 
ATOM     16  C   UNL     1       4.289   7.119  17.034  0.00  0.00    +0.000 A 
ATOM     17  C   UNL     1       4.300   5.737  16.889  0.00  0.00    +0.000 A 
ATOM     18  C   UNL     1       3.478   4.927  17.693  0.00  0.00    +0.000 A 
ATOM     19  C   UNL     1       2.597   5.538  18.611  0.00  0.00    +0.000 A 
ATOM     20 CL   UNL     1       1.288   4.604  19.249  0.00  0.00    +0.000 Cl
BRANCH  18  21
ATOM     21  C   UNL     1       3.618   3.427  17.609  0.00  0.00    +0.000 C 
ATOM     22  F   UNL     1       2.538   2.822  17.033  0.00  0.00    +0.000 F 
ATOM     23  F   UNL     1       4.682   3.066  16.835  0.00  0.00    +0.000 F 
ATOM     24  F   UNL     1       3.782   2.808  18.805  0.00  0.00    +0.000 F 
ENDBRANCH  18  21
ENDBRANCH  12  14
BRANCH   8  25
ATOM     25  C   UNL     1       2.307  14.044  19.118  0.00  0.00    +0.000 A 
ATOM     26  C   UNL     1       1.596  15.238  18.924  0.00  0.00    +0.000 A 
ATOM     27  C   UNL     1       2.189  16.307  18.252  0.00  0.00    +0.000 A 
ATOM     28  C   UNL     1       3.479  16.179  17.740  0.00  0.00    +0.000 A 
ATOM     29  C   UNL     1       4.176  14.984  17.902  0.00  0.00    +0.000 A 
ATOM     30  C   UNL     1       3.597  13.920  18.594  0.00  0.00    +0.000 A 
ENDBRANCH   8  25
TORSDOF 3
ENDMDL
MODEL 2
REMARK VINA RESULT:      -8.6      0.045      1.117
REMARK  Name = 
REMARK  5 active torsions:
REMARK  status: ('A' for Active; 'I' for Inactive)
REMARK    1  A    between atoms: C_1  and  C_2
REMARK    2  A    between atoms: N_8  and  C_9
REMARK    3  A    between atoms: C_15  and  C_16
REMARK    4  A    between atoms: C_18  and  C_20
REMARK    5  A    between atoms: C_24  and  C_25
REMARK                            x       y       z     vdW  Elec       q    Type
REMARK                         _______ _______ _______ _____ _____    ______ ____
ROOT
ATOM      1  C   UNL     1      -0.312   9.450  17.733  0.00  0.00    +0.000 C 
ATOM      2  C   UNL     1       1.134   9.540  18.246  0.00  0.00    +0.000 C 
ATOM      3  C   UNL     1       1.622  11.028  18.181  0.00  0.00    +0.000 C 
ATOM      4  C   UNL     1       1.303  11.732  19.445  0.00  0.00    +0.000 A 
ATOM      5  C   UNL     1       0.836  11.109  20.585  0.00  0.00    +0.000 A 
ATOM      6  N   UNL     1       0.836  11.995  21.618  0.00  0.00    +0.000 NA
ATOM      7  N   UNL     1       1.371  13.127  21.184  0.00  0.00    +0.000 NA
ATOM      8  N   UNL     1       1.655  13.000  19.860  0.00  0.00    +0.000 N 
ATOM      9  C   UNL     1       0.510   9.649  20.710  0.00  0.00    +0.000 C 
ATOM     10  C   UNL     1       0.683   9.184  22.159  0.00  0.00    +0.000 C 
ATOM     11  N   UNL     1       1.280   8.936  19.616  0.00  0.00    +0.000 N 
ATOM     12  C   UNL     1       1.877   7.692  19.881  0.00  0.00    +0.000 C 
ATOM     13  O   UNL     1       1.740   7.095  20.948  0.00  0.00    +0.000 OA
ENDROOT
BRANCH  12  14
ATOM     14  C   UNL     1       2.686   6.933  18.878  0.00  0.00    +0.000 A 
ATOM     15  C   UNL     1       3.515   7.723  18.054  0.00  0.00    +0.000 A 
ATOM     16  C   UNL     1       4.283   7.155  17.039  0.00  0.00    +0.000 A 
ATOM     17  C   UNL     1       4.297   5.774  16.886  0.00  0.00    +0.000 A 
ATOM     18  C   UNL     1       3.475   4.957  17.682  0.00  0.00    +0.000 A 
ATOM     19  C   UNL     1       2.589   5.560  18.600  0.00  0.00    +0.000 A 
ATOM     20 CL   UNL     1       1.280   4.619  19.228  0.00  0.00    +0.000 Cl
BRANCH  18  21
ATOM     21  C   UNL     1       3.618   3.458  17.588  0.00  0.00    +0.000 C 
ATOM     22  F   UNL     1       4.688   3.070  16.836  0.00  0.00    +0.000 F 
ATOM     23  F   UNL     1       3.823   2.897  18.815  0.00  0.00    +0.000 F 
ATOM     24  F   UNL     1       2.548   2.822  17.047  0.00  0.00    +0.000 F 
ENDBRANCH  18  21
ENDBRANCH  12  14
BRANCH   8  25
ATOM     25  C   UNL     1       2.266  14.062  19.149  0.00  0.00    +0.000 A 
ATOM     26  C   UNL     1       3.575  13.897  18.670  0.00  0.00    +0.000 A 
ATOM     27  C   UNL     1       4.187  14.913  17.937  0.00  0.00    +0.000 A 
ATOM     28  C   UNL     1       3.513  16.111  17.708  0.00  0.00    +0.000 A 
ATOM     29  C   UNL     1       2.226  16.292  18.210  0.00  0.00    +0.000 A 
ATOM     30  C   UNL     1       1.599  15.270  18.923  0.00  0.00    +0.000 A 
ENDBRANCH   8  25
TORSDOF 3
ENDMDL
MODEL 3
REMARK VINA RESULT:      -7.8      6.653      9.357
REMARK  Name = 
REMARK  5 active torsions:
REMARK  status: ('A' for Active; 'I' for Inactive)
REMARK    1  A    between atoms: C_1  and  C_2
REMARK    2  A    between atoms: N_8  and  C_9
REMARK    3  A    between atoms: C_15  and  C_16
REMARK    4  A    between atoms: C_18  and  C_20
REMARK    5  A    between atoms: C_24  and  C_25
REMARK                            x       y       z     vdW  Elec       q    Type
REMARK                         _______ _______ _______ _____ _____    ______ ____
ROOT
ATOM      1  C   UNL     1      -3.121  11.675  18.154  0.00  0.00    +0.000 C 
ATOM      2  C   UNL     1      -2.323  11.680  19.468  0.00  0.00    +0.000 C 
ATOM      3  C   UNL     1      -1.215  10.572  19.413  0.00  0.00    +0.000 C 
ATOM      4  C   UNL     1       0.036  11.121  18.840  0.00  0.00    +0.000 A 
ATOM      5  C   UNL     1       0.255  12.460  18.590  0.00  0.00    +0.000 A 
ATOM      6  N   UNL     1       1.560  12.652  18.260  0.00  0.00    +0.000 NA
ATOM      7  N   UNL     1       2.186  11.491  18.380  0.00  0.00    +0.000 NA
ATOM      8  N   UNL     1       1.280  10.536  18.722  0.00  0.00    +0.000 N 
ATOM      9  C   UNL     1      -0.750  13.559  18.786  0.00  0.00    +0.000 C 
ATOM     10  C   UNL     1      -0.041  14.886  19.075  0.00  0.00    +0.000 C 
ATOM     11  N   UNL     1      -1.770  13.043  19.781  0.00  0.00    +0.000 N 
ATOM     12  C   UNL     1      -2.283  13.906  20.765  0.00  0.00    +0.000 C 
ATOM     13  O   UNL     1      -2.007  15.105  20.818  0.00  0.00    +0.000 OA
ENDROOT
BRANCH  12  14
ATOM     14  C   UNL     1      -3.263  13.479  21.810  0.00  0.00    +0.000 A 
ATOM     15  C   UNL     1      -2.696  12.891  22.960  0.00  0.00    +0.000 A 
ATOM     16  C   UNL     1      -3.493  12.396  23.991  0.00  0.00    +0.000 A 
ATOM     17  C   UNL     1      -4.871  12.557  23.925  0.00  0.00    +0.000 A 
ATOM     18  C   UNL     1      -5.471  13.127  22.788  0.00  0.00    +0.000 A 
ATOM     19  C   UNL     1      -4.662  13.483  21.689  0.00  0.00    +0.000 A 
ATOM     20 CL   UNL     1      -5.417  13.741  20.154  0.00  0.00    +0.000 Cl
BRANCH  18  21
ATOM     21  C   UNL     1      -6.952  13.417  22.807  0.00  0.00    +0.000 C 
ATOM     22  F   UNL     1      -7.664  12.609  21.969  0.00  0.00    +0.000 F 
ATOM     23  F   UNL     1      -7.488  13.207  24.044  0.00  0.00    +0.000 F 
ATOM     24  F   UNL     1      -7.283  14.684  22.453  0.00  0.00    +0.000 F 
ENDBRANCH  18  21
ENDBRANCH  12  14
BRANCH   8  25
ATOM     25  C   UNL     1       1.691   9.199  18.944  0.00  0.00    +0.000 A 
ATOM     26  C   UNL     1       2.317   8.497  17.903  0.00  0.00    +0.000 A 
ATOM     27  C   UNL     1       2.764   7.192  18.105  0.00  0.00    +0.000 A 
ATOM     28  C   UNL     1       2.557   6.567  19.334  0.00  0.00    +0.000 A 
ATOM     29  C   UNL     1       1.907   7.249  20.360  0.00  0.00    +0.000 A 
ATOM     30  C   UNL     1       1.480   8.563  20.171  0.00  0.00    +0.000 A 
ENDBRANCH   8  25
TORSDOF 3
ENDMDL
MODEL 4
REMARK VINA RESULT:      -7.7      1.483      1.869
REMARK  Name = 
REMARK  5 active torsions:
REMARK  status: ('A' for Active; 'I' for Inactive)
REMARK    1  A    between atoms: C_1  and  C_2
REMARK    2  A    between atoms: N_8  and  C_9
REMARK    3  A    between atoms: C_15  and  C_16
REMARK    4  A    between atoms: C_18  and  C_20
REMARK    5  A    between atoms: C_24  and  C_25
REMARK                            x       y       z     vdW  Elec       q    Type
REMARK                         _______ _______ _______ _____ _____    ______ ____
ROOT
ATOM      1  C   UNL     1      -1.389  10.003  18.636  0.00  0.00    +0.000 C 
ATOM      2  C   UNL     1       0.062  10.286  19.057  0.00  0.00    +0.000 C 
ATOM      3  C   UNL     1       0.350  11.823  18.944  0.00  0.00    +0.000 C 
ATOM      4  C   UNL     1       0.020  12.505  20.217  0.00  0.00    +0.000 A 
ATOM      5  C   UNL     1      -0.295  11.850  21.391  0.00  0.00    +0.000 A 
ATOM      6  N   UNL     1      -0.346  12.749  22.411  0.00  0.00    +0.000 NA
ATOM      7  N   UNL     1       0.012  13.931  21.932  0.00  0.00    +0.000 NA
ATOM      8  N   UNL     1       0.230  13.815  20.594  0.00  0.00    +0.000 N 
ATOM      9  C   UNL     1      -0.422  10.363  21.552  0.00  0.00    +0.000 C 
ATOM     10  C   UNL     1      -0.104   9.952  22.994  0.00  0.00    +0.000 C 
ATOM     11  N   UNL     1       0.366   9.733  20.421  0.00  0.00    +0.000 N 
ATOM     12  C   UNL     1       1.132   8.580  20.663  0.00  0.00    +0.000 C 
ATOM     13  O   UNL     1       1.138   7.991  21.744  0.00  0.00    +0.000 OA
ENDROOT
BRANCH  12  14
ATOM     14  C   UNL     1       1.970   7.911  19.621  0.00  0.00    +0.000 A 
ATOM     15  C   UNL     1       2.314   8.719  18.517  0.00  0.00    +0.000 A 
ATOM     16  C   UNL     1       3.044   8.211  17.444  0.00  0.00    +0.000 A 
ATOM     17  C   UNL     1       3.516   6.906  17.498  0.00  0.00    +0.000 A 
ATOM     18  C   UNL     1       3.183   6.068  18.577  0.00  0.00    +0.000 A 
ATOM     19  C   UNL     1       2.315   6.551  19.580  0.00  0.00    +0.000 A 
ATOM     20 CL   UNL     1       1.549   5.410  20.631  0.00  0.00    +0.000 Cl
BRANCH  18  21
ATOM     21  C   UNL     1       3.825   4.706  18.675  0.00  0.00    +0.000 C 
ATOM     22  F   UNL     1       4.832   4.524  17.773  0.00  0.00    +0.000 F 
ATOM     23  F   UNL     1       4.402   4.511  19.897  0.00  0.00    +0.000 F 
ATOM     24  F   UNL     1       2.975   3.667  18.480  0.00  0.00    +0.000 F 
ENDBRANCH  18  21
ENDBRANCH  12  14
BRANCH   8  25
ATOM     25  C   UNL     1       0.655  14.932  19.834  0.00  0.00    +0.000 A 
ATOM     26  C   UNL     1      -0.295  15.658  19.100  0.00  0.00    +0.000 A 
ATOM     27  C   UNL     1       0.090  16.783  18.372  0.00  0.00    +0.000 A 
ATOM     28  C   UNL     1       1.429  17.170  18.342  0.00  0.00    +0.000 A 
ATOM     29  C   UNL     1       2.381  16.432  19.042  0.00  0.00    +0.000 A 
ATOM     30  C   UNL     1       1.998  15.320  19.793  0.00  0.00    +0.000 A 
ENDBRANCH   8  25
TORSDOF 3
ENDMDL
MODEL 5
REMARK VINA RESULT:      -7.4      6.654      9.311
REMARK  Name = 
REMARK  5 active torsions:
REMARK  status: ('A' for Active; 'I' for Inactive)
REMARK    1  A    between atoms: C_1  and  C_2
REMARK    2  A    between atoms: N_8  and  C_9
REMARK    3  A    between atoms: C_15  and  C_16
REMARK    4  A    between atoms: C_18  and  C_20
REMARK    5  A    between atoms: C_24  and  C_25
REMARK                            x       y       z     vdW  Elec       q    Type
REMARK                         _______ _______ _______ _____ _____    ______ ____
ROOT
ATOM      1  C   UNL     1      -1.251  15.001  21.045  0.00  0.00    +0.000 C 
ATOM      2  C   UNL     1      -2.128  13.809  20.631  0.00  0.00    +0.000 C 
ATOM      3  C   UNL     1      -1.216  12.625  20.159  0.00  0.00    +0.000 C 
ATOM      4  C   UNL     1      -0.862  11.757  21.307  0.00  0.00    +0.000 A 
ATOM      5  C   UNL     1      -1.425  11.860  22.562  0.00  0.00    +0.000 A 
ATOM      6  N   UNL     1      -1.037  10.800  23.321  0.00  0.00    +0.000 NA
ATOM      7  N   UNL     1      -0.320   9.991  22.556  0.00  0.00    +0.000 NA
ATOM      8  N   UNL     1      -0.187  10.554  21.324  0.00  0.00    +0.000 N 
ATOM      9  C   UNL     1      -2.423  12.898  22.988  0.00  0.00    +0.000 C 
ATOM     10  C   UNL     1      -3.308  12.359  24.116  0.00  0.00    +0.000 C 
ATOM     11  N   UNL     1      -3.083  13.412  21.723  0.00  0.00    +0.000 N 
ATOM     12  C   UNL     1      -4.461  13.684  21.717  0.00  0.00    +0.000 C 
ATOM     13  O   UNL     1      -5.166  13.606  22.723  0.00  0.00    +0.000 OA
ENDROOT
BRANCH  12  14
ATOM     14  C   UNL     1      -5.205  14.158  20.510  0.00  0.00    +0.000 A 
ATOM     15  C   UNL     1      -5.493  15.539  20.485  0.00  0.00    +0.000 A 
ATOM     16  C   UNL     1      -6.229  16.109  19.448  0.00  0.00    +0.000 A 
ATOM     17  C   UNL     1      -6.618  15.319  18.373  0.00  0.00    +0.000 A 
ATOM     18  C   UNL     1      -6.358  13.937  18.370  0.00  0.00    +0.000 A 
ATOM     19  C   UNL     1      -5.748  13.349  19.499  0.00  0.00    +0.000 A 
ATOM     20 CL   UNL     1      -5.848  11.633  19.694  0.00  0.00    +0.000 Cl
BRANCH  18  21
ATOM     21  C   UNL     1      -6.667  13.135  17.130  0.00  0.00    +0.000 C 
ATOM     22  F   UNL     1      -7.510  12.089  17.366  0.00  0.00    +0.000 F 
ATOM     23  F   UNL     1      -7.296  13.894  16.186  0.00  0.00    +0.000 F 
ATOM     24  F   UNL     1      -5.580  12.591  16.526  0.00  0.00    +0.000 F 
ENDBRANCH  18  21
ENDBRANCH  12  14
BRANCH   8  25
ATOM     25  C   UNL     1       0.515   9.879  20.296  0.00  0.00    +0.000 A 
ATOM     26  C   UNL     1       1.225   8.710  20.610  0.00  0.00    +0.000 A 
ATOM     27  C   UNL     1       1.896   8.006  19.610  0.00  0.00    +0.000 A 
ATOM     28  C   UNL     1       1.893   8.483  18.300  0.00  0.00    +0.000 A 
ATOM     29  C   UNL     1       1.218   9.662  17.991  0.00  0.00    +0.000 A 
ATOM     30  C   UNL     1       0.525  10.356  18.982  0.00  0.00    +0.000 A 
ENDBRANCH   8  25
TORSDOF 3
ENDMDL
MODEL 6
REMARK VINA RESULT:      -7.4      6.658      9.307
REMARK  Name = 
REMARK  5 active torsions:
REMARK  status: ('A' for Active; 'I' for Inactive)
REMARK    1  A    between atoms: C_1  and  C_2
REMARK    2  A    between atoms: N_8  and  C_9
REMARK    3  A    between atoms: C_15  and  C_16
REMARK    4  A    between atoms: C_18  and  C_20
REMARK    5  A    between atoms: C_24  and  C_25
REMARK                            x       y       z     vdW  Elec       q    Type
REMARK                         _______ _______ _______ _____ _____    ______ ____
ROOT
ATOM      1  C   UNL     1      -1.270  14.984  21.030  0.00  0.00    +0.000 C 
ATOM      2  C   UNL     1      -2.157  13.791  20.636  0.00  0.00    +0.000 C 
ATOM      3  C   UNL     1      -1.253  12.597  20.173  0.00  0.00    +0.000 C 
ATOM      4  C   UNL     1      -0.896  11.741  21.329  0.00  0.00    +0.000 A 
ATOM      5  C   UNL     1      -1.452  11.862  22.587  0.00  0.00    +0.000 A 
ATOM      6  N   UNL     1      -1.064  10.809  23.356  0.00  0.00    +0.000 NA
ATOM      7  N   UNL     1      -0.356   9.987  22.596  0.00  0.00    +0.000 NA
ATOM      8  N   UNL     1      -0.227  10.535  21.357  0.00  0.00    +0.000 N 
ATOM      9  C   UNL     1      -2.442  12.910  23.005  0.00  0.00    +0.000 C 
ATOM     10  C   UNL     1      -3.322  12.390  24.146  0.00  0.00    +0.000 C 
ATOM     11  N   UNL     1      -3.106  13.412  21.739  0.00  0.00    +0.000 N 
ATOM     12  C   UNL     1      -4.483  13.692  21.738  0.00  0.00    +0.000 C 
ATOM     13  O   UNL     1      -5.182  13.629  22.749  0.00  0.00    +0.000 OA
ENDROOT
BRANCH  12  14
ATOM     14  C   UNL     1      -5.232  14.154  20.529  0.00  0.00    +0.000 A 
ATOM     15  C   UNL     1      -5.534  15.532  20.501  0.00  0.00    +0.000 A 
ATOM     16  C   UNL     1      -6.276  16.092  19.463  0.00  0.00    +0.000 A 
ATOM     17  C   UNL     1      -6.657  15.295  18.390  0.00  0.00    +0.000 A 
ATOM     18  C   UNL     1      -6.384  13.916  18.391  0.00  0.00    +0.000 A 
ATOM     19  C   UNL     1      -5.767  13.337  19.521  0.00  0.00    +0.000 A 
ATOM     20 CL   UNL     1      -5.850  11.621  19.721  0.00  0.00    +0.000 Cl
BRANCH  18  21
ATOM     21  C   UNL     1      -6.684  13.107  17.153  0.00  0.00    +0.000 C 
ATOM     22  F   UNL     1      -5.568  12.566  16.584  0.00  0.00    +0.000 F 
ATOM     23  F   UNL     1      -7.492  12.043  17.433  0.00  0.00    +0.000 F 
ATOM     24  F   UNL     1      -7.292  13.803  16.159  0.00  0.00    +0.000 F 
ENDBRANCH  18  21
ENDBRANCH  12  14
BRANCH   8  25
ATOM     25  C   UNL     1       0.465   9.844  20.333  0.00  0.00    +0.000 A 
ATOM     26  C   UNL     1       0.379  10.318  19.014  0.00  0.00    +0.000 A 
ATOM     27  C   UNL     1       1.079   9.678  17.991  0.00  0.00    +0.000 A 
ATOM     28  C   UNL     1       1.838   8.542  18.270  0.00  0.00    +0.000 A 
ATOM     29  C   UNL     1       1.899   8.049  19.572  0.00  0.00    +0.000 A 
ATOM     30  C   UNL     1       1.221   8.700  20.604  0.00  0.00    +0.000 A 
ENDBRANCH   8  25
TORSDOF 3
ENDMDL
MODEL 7
REMARK VINA RESULT:      -7.4      6.078      8.923
REMARK  Name = 
REMARK  5 active torsions:
REMARK  status: ('A' for Active; 'I' for Inactive)
REMARK    1  A    between atoms: C_1  and  C_2
REMARK    2  A    between atoms: N_8  and  C_9
REMARK    3  A    between atoms: C_15  and  C_16
REMARK    4  A    between atoms: C_18  and  C_20
REMARK    5  A    between atoms: C_24  and  C_25
REMARK                            x       y       z     vdW  Elec       q    Type
REMARK                         _______ _______ _______ _____ _____    ______ ____
ROOT
ATOM      1  C   UNL     1      -2.749  11.572  17.456  0.00  0.00    +0.000 C 
ATOM      2  C   UNL     1      -2.156  11.572  18.874  0.00  0.00    +0.000 C 
ATOM      3  C   UNL     1      -1.127  10.397  19.012  0.00  0.00    +0.000 C 
ATOM      4  C   UNL     1       0.229  10.850  18.621  0.00  0.00    +0.000 A 
ATOM      5  C   UNL     1       0.569  12.165  18.375  0.00  0.00    +0.000 A 
ATOM      6  N   UNL     1       1.918  12.266  18.240  0.00  0.00    +0.000 NA
ATOM      7  N   UNL     1       2.443  11.074  18.481  0.00  0.00    +0.000 NA
ATOM      8  N   UNL     1       1.436  10.187  18.705  0.00  0.00    +0.000 N 
ATOM      9  C   UNL     1      -0.381  13.328  18.393  0.00  0.00    +0.000 C 
ATOM     10  C   UNL     1       0.362  14.619  18.753  0.00  0.00    +0.000 C 
ATOM     11  N   UNL     1      -1.569  12.908  19.235  0.00  0.00    +0.000 N 
ATOM     12  C   UNL     1      -2.165  13.833  20.109  0.00  0.00    +0.000 C 
ATOM     13  O   UNL     1      -1.823  15.013  20.175  0.00  0.00    +0.000 OA
ENDROOT
BRANCH  12  14
ATOM     14  C   UNL     1      -3.315  13.500  21.005  0.00  0.00    +0.000 A 
ATOM     15  C   UNL     1      -4.585  13.537  20.391  0.00  0.00    +0.000 A 
ATOM     16  C   UNL     1      -5.750  13.304  21.117  0.00  0.00    +0.000 A 
ATOM     17  C   UNL     1      -5.659  12.946  22.457  0.00  0.00    +0.000 A 
ATOM     18  C   UNL     1      -4.411  12.910  23.104  0.00  0.00    +0.000 A 
ATOM     19  C   UNL     1      -3.256  13.299  22.393  0.00  0.00    +0.000 A 
ATOM     20 CL   UNL     1      -1.829  13.696  23.286  0.00  0.00    +0.000 Cl
BRANCH  18  21
ATOM     21  C   UNL     1      -4.331  12.382  24.515  0.00  0.00    +0.000 C 
ATOM     22  F   UNL     1      -5.535  11.957  24.996  0.00  0.00    +0.000 F 
ATOM     23  F   UNL     1      -3.511  11.294  24.598  0.00  0.00    +0.000 F 
ATOM     24  F   UNL     1      -3.876  13.278  25.428  0.00  0.00    +0.000 F 
ENDBRANCH  18  21
ENDBRANCH  12  14
BRANCH   8  25
ATOM     25  C   UNL     1       1.722   8.836  19.018  0.00  0.00    +0.000 A 
ATOM     26  C   UNL     1       1.491   8.376  20.324  0.00  0.00    +0.000 A 
ATOM     27  C   UNL     1       1.730   7.042  20.651  0.00  0.00    +0.000 A 
ATOM     28  C   UNL     1       2.236   6.168  19.689  0.00  0.00    +0.000 A 
ATOM     29  C   UNL     1       2.499   6.629  18.401  0.00  0.00    +0.000 A 
ATOM     30  C   UNL     1       2.238   7.957  18.062  0.00  0.00    +0.000 A 
ENDBRANCH   8  25
TORSDOF 3
ENDMDL
MODEL 8
REMARK VINA RESULT:      -7.4      6.082      8.977
REMARK  Name = 
REMARK  5 active torsions:
REMARK  status: ('A' for Active; 'I' for Inactive)
REMARK    1  A    between atoms: C_1  and  C_2
REMARK    2  A    between atoms: N_8  and  C_9
REMARK    3  A    between atoms: C_15  and  C_16
REMARK    4  A    between atoms: C_18  and  C_20
REMARK    5  A    between atoms: C_24  and  C_25
REMARK                            x       y       z     vdW  Elec       q    Type
REMARK                         _______ _______ _______ _____ _____    ______ ____
ROOT
ATOM      1  C   UNL     1      -2.766  11.571  17.525  0.00  0.00    +0.000 C 
ATOM      2  C   UNL     1      -2.168  11.589  18.942  0.00  0.00    +0.000 C 
ATOM      3  C   UNL     1      -1.145  10.411  19.094  0.00  0.00    +0.000 C 
ATOM      4  C   UNL     1       0.211  10.849  18.692  0.00  0.00    +0.000 A 
ATOM      5  C   UNL     1       0.559  12.158  18.425  0.00  0.00    +0.000 A 
ATOM      6  N   UNL     1       1.909  12.248  18.284  0.00  0.00    +0.000 NA
ATOM      7  N   UNL     1       2.426  11.057  18.541  0.00  0.00    +0.000 NA
ATOM      8  N   UNL     1       1.415  10.180  18.782  0.00  0.00    +0.000 N 
ATOM      9  C   UNL     1      -0.383  13.327  18.427  0.00  0.00    +0.000 C 
ATOM     10  C   UNL     1       0.369  14.618  18.765  0.00  0.00    +0.000 C 
ATOM     11  N   UNL     1      -1.571  12.927  19.279  0.00  0.00    +0.000 N 
ATOM     12  C   UNL     1      -2.158  13.869  20.142  0.00  0.00    +0.000 C 
ATOM     13  O   UNL     1      -1.808  15.048  20.188  0.00  0.00    +0.000 OA
ENDROOT
BRANCH  12  14
ATOM     14  C   UNL     1      -3.308  13.558  21.046  0.00  0.00    +0.000 A 
ATOM     15  C   UNL     1      -4.584  13.676  20.457  0.00  0.00    +0.000 A 
ATOM     16  C   UNL     1      -5.747  13.470  21.197  0.00  0.00    +0.000 A 
ATOM     17  C   UNL     1      -5.650  13.060  22.521  0.00  0.00    +0.000 A 
ATOM     18  C   UNL     1      -4.394  12.943  23.143  0.00  0.00    +0.000 A 
ATOM     19  C   UNL     1      -3.235  13.303  22.425  0.00  0.00    +0.000 A 
ATOM     20 CL   UNL     1      -1.775  13.602  23.305  0.00  0.00    +0.000 Cl
BRANCH  18  21
ATOM     21  C   UNL     1      -4.315  12.361  24.533  0.00  0.00    +0.000 C 
ATOM     22  F   UNL     1      -3.844  13.247  25.457  0.00  0.00    +0.000 F 
ATOM     23  F   UNL     1      -5.546  11.989  24.991  0.00  0.00    +0.000 F 
ATOM     24  F   UNL     1      -3.517  11.269  24.642  0.00  0.00    +0.000 F 
ENDBRANCH  18  21
ENDBRANCH  12  14
BRANCH   8  25
ATOM     25  C   UNL     1       1.694   8.832  19.115  0.00  0.00    +0.000 A 
ATOM     26  C   UNL     1       2.228   7.984  18.132  0.00  0.00    +0.000 A 
ATOM     27  C   UNL     1       2.545   6.662  18.442  0.00  0.00    +0.000 A 
ATOM     28  C   UNL     1       2.298   6.168  19.722  0.00  0.00    +0.000 A 
ATOM     29  C   UNL     1       1.737   6.997  20.691  0.00  0.00    +0.000 A 
ATOM     30  C   UNL     1       1.441   8.327  20.394  0.00  0.00    +0.000 A 
ENDBRANCH   8  25
TORSDOF 3
ENDMDL
MODEL 9
REMARK VINA RESULT:      -7.4      7.497      9.931
REMARK  Name = 
REMARK  5 active torsions:
REMARK  status: ('A' for Active; 'I' for Inactive)
REMARK    1  A    between atoms: C_1  and  C_2
REMARK    2  A    between atoms: N_8  and  C_9
REMARK    3  A    between atoms: C_15  and  C_16
REMARK    4  A    between atoms: C_18  and  C_20
REMARK    5  A    between atoms: C_24  and  C_25
REMARK                            x       y       z     vdW  Elec       q    Type
REMARK                         _______ _______ _______ _____ _____    ______ ____
ROOT
ATOM      1  C   UNL     1      -1.465  14.600  20.742  0.00  0.00    +0.000 C 
ATOM      2  C   UNL     1      -2.253  13.321  20.416  0.00  0.00    +0.000 C 
ATOM      3  C   UNL     1      -1.254  12.167  20.056  0.00  0.00    +0.000 C 
ATOM      4  C   UNL     1      -0.866  11.422  21.276  0.00  0.00    +0.000 A 
ATOM      5  C   UNL     1      -1.458  11.588  22.511  0.00  0.00    +0.000 A 
ATOM      6  N   UNL     1      -1.015  10.622  23.360  0.00  0.00    +0.000 NA
ATOM      7  N   UNL     1      -0.231   9.804  22.674  0.00  0.00    +0.000 NA
ATOM      8  N   UNL     1      -0.112  10.273  21.402  0.00  0.00    +0.000 N 
ATOM      9  C   UNL     1      -2.531  12.587  22.836  0.00  0.00    +0.000 C 
ATOM     10  C   UNL     1      -3.399  12.083  23.993  0.00  0.00    +0.000 C 
ATOM     11  N   UNL     1      -3.199  12.950  21.524  0.00  0.00    +0.000 N 
ATOM     12  C   UNL     1      -4.593  13.127  21.478  0.00  0.00    +0.000 C 
ATOM     13  O   UNL     1      -5.310  13.083  22.477  0.00  0.00    +0.000 OA
ENDROOT
BRANCH  12  14
ATOM     14  C   UNL     1      -5.343  13.449  20.225  0.00  0.00    +0.000 A 
ATOM     15  C   UNL     1      -5.660  12.339  19.413  0.00  0.00    +0.000 A 
ATOM     16  C   UNL     1      -6.308  12.496  18.190  0.00  0.00    +0.000 A 
ATOM     17  C   UNL     1      -6.727  13.761  17.796  0.00  0.00    +0.000 A 
ATOM     18  C   UNL     1      -6.418  14.891  18.575  0.00  0.00    +0.000 A 
ATOM     19  C   UNL     1      -5.628  14.732  19.733  0.00  0.00    +0.000 A 
ATOM     20 CL   UNL     1      -4.873  16.130  20.418  0.00  0.00    +0.000 Cl
BRANCH  18  21
ATOM     21  C   UNL     1      -7.006  16.227  18.195  0.00  0.00    +0.000 C 
ATOM     22  F   UNL     1      -7.916  16.142  17.182  0.00  0.00    +0.000 F 
ATOM     23  F   UNL     1      -7.686  16.790  19.237  0.00  0.00    +0.000 F 
ATOM     24  F   UNL     1      -6.097  17.148  17.786  0.00  0.00    +0.000 F 
ENDBRANCH  18  21
ENDBRANCH  12  14
BRANCH   8  25
ATOM     25  C   UNL     1       0.653   9.566  20.442  0.00  0.00    +0.000 A 
ATOM     26  C   UNL     1       1.294   8.378  20.824  0.00  0.00    +0.000 A 
ATOM     27  C   UNL     1       2.025   7.643  19.891  0.00  0.00    +0.000 A 
ATOM     28  C   UNL     1       2.150   8.107  18.582  0.00  0.00    +0.000 A 
ATOM     29  C   UNL     1       1.543   9.304  18.208  0.00  0.00    +0.000 A 
ATOM     30  C   UNL     1       0.790  10.030  19.131  0.00  0.00    +0.000 A 
ENDBRANCH   8  25
TORSDOF 3
ENDMDL
