MODEL 1
REMARK VINA RESULT:      -7.1      0.000      0.000
REMARK  Name = 
REMARK  7 active torsions:
REMARK  status: ('A' for Active; 'I' for Inactive)
REMARK    1  A    between atoms: C_1  and  O_2
REMARK    2  A    between atoms: O_2  and  C_3
REMARK    3  A    between atoms: C_6  and  C_7
REMARK    4  A    between atoms: C_8  and  C_9
REMARK    5  A    between atoms: C_10  and  C_11
REMARK    6  A    between atoms: C_18  and  C_19
REMARK    7  A    between atoms: N_31  and  C_32
REMARK                            x       y       z     vdW  Elec       q    Type
REMARK                         _______ _______ _______ _____ _____    ______ ____
ROOT
ATOM      1  C   UNL     1      -1.929  12.084  20.800  0.00  0.00    +0.000 A 
ATOM      2  C   UNL     1      -1.516  11.216  19.802  0.00  0.00    +0.000 A 
ATOM      3  C   UNL     1      -0.459  10.414  20.250  0.00  0.00    +0.000 A 
ATOM      4  C   UNL     1       0.366   9.478  19.595  0.00  0.00    +0.000 A 
ATOM      5  C   UNL     1       1.209   8.630  20.312  0.00  0.00    +0.000 A 
ATOM      6  C   UNL     1       1.160   8.726  21.714  0.00  0.00    +0.000 A 
ATOM      7  C   UNL     1       0.399   9.716  22.392  0.00  0.00    +0.000 A 
ATOM      8  C   UNL     1      -0.385  10.596  21.622  0.00  0.00    +0.000 A 
ATOM      9  N   UNL     1      -1.169  11.716  21.912  0.00  0.00    +0.000 N 
ATOM     10  C   UNL     1      -1.088  12.468  23.147  0.00  0.00    +0.000 C 
ENDROOT
BRANCH   5  11
ATOM     11  C   UNL     1       2.088   7.686  19.576  0.00  0.00    +0.000 A 
ATOM     12  C   UNL     1       2.636   8.011  18.328  0.00  0.00    +0.000 A 
ATOM     13  C   UNL     1       3.447   7.110  17.614  0.00  0.00    +0.000 A 
ATOM     14  C   UNL     1       3.724   5.841  18.155  0.00  0.00    +0.000 A 
ATOM     15  C   UNL     1       4.442   4.699  17.701  0.00  0.00    +0.000 A 
ATOM     16  C   UNL     1       4.365   3.737  18.684  0.00  0.00    +0.000 A 
ATOM     17  N   UNL     1       3.641   4.259  19.723  0.00  0.00    +0.000 N 
ATOM     18  C   UNL     1       3.213   5.532  19.413  0.00  0.00    +0.000 A 
ATOM     19  C   UNL     1       2.409   6.426  20.138  0.00  0.00    +0.000 A 
ATOM     20  H   UNL     1       3.427   3.775  20.584  0.00  0.00    +0.000 HD
ENDBRANCH   5  11
BRANCH   1  24
ATOM     21  C   UNL     1      -5.009  15.116  20.581  0.00  0.00    +0.000 A 
ATOM     22  C   UNL     1      -3.674  15.495  20.752  0.00  0.00    +0.000 A 
ATOM     23  C   UNL     1      -2.641  14.536  20.798  0.00  0.00    +0.000 A 
ATOM     24  C   UNL     1      -2.926  13.176  20.657  0.00  0.00    +0.000 A 
ATOM     25  C   UNL     1      -4.281  12.823  20.484  0.00  0.00    +0.000 A 
ATOM     26  C   UNL     1      -5.310  13.766  20.478  0.00  0.00    +0.000 A 
BRANCH  21  28
ATOM     27  C   UNL     1      -6.346  16.605  21.835  0.00  0.00    +0.000 C 
ATOM     28  O   UNL     1      -5.936  16.122  20.555  0.00  0.00    +0.000 OA
ENDBRANCH  21  28
ENDBRANCH   1  24
BRANCH   2  29
ATOM     29  C   UNL     1      -2.107  11.048  18.527  0.00  0.00    +0.000 C 
ATOM     30  C   UNL     1      -2.519  10.825  17.420  0.00  0.00    +0.000 C 
BRANCH  30  31
ATOM     31  C   UNL     1      -2.968  10.487  16.118  0.00  0.00    +0.000 A 
ATOM     32  C   UNL     1      -2.245   9.673  15.219  0.00  0.00    +0.000 A 
ATOM     33  C   UNL     1      -2.879   9.583  14.003  0.00  0.00    +0.000 A 
ATOM     34  S   UNL     1      -4.365  10.438  13.984  0.00  0.00    +0.000 S 
ATOM     35  C   UNL     1      -4.158  10.943  15.602  0.00  0.00    +0.000 A 
ENDBRANCH  30  31
ENDBRANCH   2  29
TORSDOF 5
ENDMDL
MODEL 2
REMARK VINA RESULT:      -6.8      5.118      9.187
REMARK  Name = 
REMARK  7 active torsions:
REMARK  status: ('A' for Active; 'I' for Inactive)
REMARK    1  A    between atoms: C_1  and  O_2
REMARK    2  A    between atoms: O_2  and  C_3
REMARK    3  A    between atoms: C_6  and  C_7
REMARK    4  A    between atoms: C_8  and  C_9
REMARK    5  A    between atoms: C_10  and  C_11
REMARK    6  A    between atoms: C_18  and  C_19
REMARK    7  A    between atoms: N_31  and  C_32
REMARK                            x       y       z     vdW  Elec       q    Type
REMARK                         _______ _______ _______ _____ _____    ______ ____
ROOT
ATOM      1  C   UNL     1      -3.447  12.271  19.677  0.00  0.00    +0.000 A 
ATOM      2  C   UNL     1      -2.497  13.071  20.292  0.00  0.00    +0.000 A 
ATOM      3  C   UNL     1      -2.999  13.610  21.483  0.00  0.00    +0.000 A 
ATOM      4  C   UNL     1      -2.479  14.552  22.391  0.00  0.00    +0.000 A 
ATOM      5  C   UNL     1      -3.071  14.761  23.637  0.00  0.00    +0.000 A 
ATOM      6  C   UNL     1      -4.178  13.955  23.953  0.00  0.00    +0.000 A 
ATOM      7  C   UNL     1      -4.769  13.057  23.023  0.00  0.00    +0.000 A 
ATOM      8  C   UNL     1      -4.177  12.931  21.752  0.00  0.00    +0.000 A 
ATOM      9  N   UNL     1      -4.510  12.243  20.582  0.00  0.00    +0.000 N 
ATOM     10  C   UNL     1      -5.826  11.708  20.300  0.00  0.00    +0.000 C 
ENDROOT
BRANCH   5  11
ATOM     11  C   UNL     1      -2.509  15.792  24.545  0.00  0.00    +0.000 A 
ATOM     12  C   UNL     1      -2.780  17.156  24.369  0.00  0.00    +0.000 A 
ATOM     13  C   UNL     1      -2.229  18.139  25.211  0.00  0.00    +0.000 A 
ATOM     14  C   UNL     1      -1.377  17.758  26.263  0.00  0.00    +0.000 A 
ATOM     15  C   UNL     1      -0.629  18.466  27.247  0.00  0.00    +0.000 A 
ATOM     16  C   UNL     1       0.030  17.537  28.022  0.00  0.00    +0.000 A 
ATOM     17  N   UNL     1      -0.303  16.293  27.556  0.00  0.00    +0.000 N 
ATOM     18  C   UNL     1      -1.138  16.401  26.464  0.00  0.00    +0.000 A 
ATOM     19  C   UNL     1      -1.689  15.411  25.636  0.00  0.00    +0.000 A 
ATOM     20  H   UNL     1       0.031  15.420  27.939  0.00  0.00    +0.000 HD
ENDBRANCH   5  11
BRANCH   1  24
ATOM     21  C   UNL     1      -3.073  10.180  15.908  0.00  0.00    +0.000 A 
ATOM     22  C   UNL     1      -4.122  11.084  16.097  0.00  0.00    +0.000 A 
ATOM     23  C   UNL     1      -4.258  11.805  17.301  0.00  0.00    +0.000 A 
ATOM     24  C   UNL     1      -3.333  11.645  18.336  0.00  0.00    +0.000 A 
ATOM     25  C   UNL     1      -2.283  10.727  18.115  0.00  0.00    +0.000 A 
ATOM     26  C   UNL     1      -2.169   9.982  16.940  0.00  0.00    +0.000 A 
BRANCH  21  28
ATOM     27  C   UNL     1      -3.942  10.013  13.717  0.00  0.00    +0.000 C 
ATOM     28  O   UNL     1      -3.034   9.527  14.706  0.00  0.00    +0.000 OA
ENDBRANCH  21  28
ENDBRANCH   1  24
BRANCH   2  29
ATOM     29  C   UNL     1      -1.159  13.270  19.874  0.00  0.00    +0.000 C 
ATOM     30  C   UNL     1      -0.054  13.557  19.498  0.00  0.00    +0.000 C 
BRANCH  30  31
ATOM     31  C   UNL     1       1.234  13.973  19.077  0.00  0.00    +0.000 A 
ATOM     32  C   UNL     1       2.236  13.094  18.612  0.00  0.00    +0.000 A 
ATOM     33  C   UNL     1       3.409  13.763  18.352  0.00  0.00    +0.000 A 
ATOM     34  S   UNL     1       3.265  15.449  18.620  0.00  0.00    +0.000 S 
ATOM     35  C   UNL     1       1.633  15.289  19.100  0.00  0.00    +0.000 A 
ENDBRANCH  30  31
ENDBRANCH   2  29
TORSDOF 5
ENDMDL
MODEL 3
REMARK VINA RESULT:      -6.8      4.158      5.251
REMARK  Name = 
REMARK  7 active torsions:
REMARK  status: ('A' for Active; 'I' for Inactive)
REMARK    1  A    between atoms: C_1  and  O_2
REMARK    2  A    between atoms: O_2  and  C_3
REMARK    3  A    between atoms: C_6  and  C_7
REMARK    4  A    between atoms: C_8  and  C_9
REMARK    5  A    between atoms: C_10  and  C_11
REMARK    6  A    between atoms: C_18  and  C_19
REMARK    7  A    between atoms: N_31  and  C_32
REMARK                            x       y       z     vdW  Elec       q    Type
REMARK                         _______ _______ _______ _____ _____    ______ ____
ROOT
ATOM      1  C   UNL     1      -0.223  13.102  19.022  0.00  0.00    +0.000 A 
ATOM      2  C   UNL     1       1.038  12.546  18.890  0.00  0.00    +0.000 A 
ATOM      3  C   UNL     1       0.951  11.168  18.657  0.00  0.00    +0.000 A 
ATOM      4  C   UNL     1       1.927  10.157  18.569  0.00  0.00    +0.000 A 
ATOM      5  C   UNL     1       1.610   8.883  18.098  0.00  0.00    +0.000 A 
ATOM      6  C   UNL     1       0.285   8.678  17.676  0.00  0.00    +0.000 A 
ATOM      7  C   UNL     1      -0.734   9.656  17.830  0.00  0.00    +0.000 A 
ATOM      8  C   UNL     1      -0.381  10.904  18.376  0.00  0.00    +0.000 A 
ATOM      9  N   UNL     1      -1.095  12.045  18.751  0.00  0.00    +0.000 N 
ATOM     10  C   UNL     1      -2.527  12.073  18.968  0.00  0.00    +0.000 C 
ENDROOT
BRANCH   5  11
ATOM     11  C   UNL     1       2.664   7.839  18.060  0.00  0.00    +0.000 A 
ATOM     12  C   UNL     1       3.751   7.920  17.179  0.00  0.00    +0.000 A 
ATOM     13  C   UNL     1       4.739   6.921  17.120  0.00  0.00    +0.000 A 
ATOM     14  C   UNL     1       4.647   5.798  17.964  0.00  0.00    +0.000 A 
ATOM     15  C   UNL     1       5.415   4.612  18.133  0.00  0.00    +0.000 A 
ATOM     16  C   UNL     1       4.825   3.868  19.130  0.00  0.00    +0.000 A 
ATOM     17  N   UNL     1       3.737   4.566  19.583  0.00  0.00    +0.000 N 
ATOM     18  C   UNL     1       3.589   5.735  18.867  0.00  0.00    +0.000 A 
ATOM     19  C   UNL     1       2.602   6.731  18.940  0.00  0.00    +0.000 A 
ATOM     20  H   UNL     1       3.116   4.261  20.320  0.00  0.00    +0.000 HD
ENDBRANCH   5  11
BRANCH   1  24
ATOM     21  C   UNL     1      -0.945  17.139  20.402  0.00  0.00    +0.000 A 
ATOM     22  C   UNL     1      -0.597  16.916  19.067  0.00  0.00    +0.000 A 
ATOM     23  C   UNL     1      -0.383  15.611  18.575  0.00  0.00    +0.000 A 
ATOM     24  C   UNL     1      -0.531  14.502  19.412  0.00  0.00    +0.000 A 
ATOM     25  C   UNL     1      -0.885  14.758  20.753  0.00  0.00    +0.000 A 
ATOM     26  C   UNL     1      -1.057  16.050  21.254  0.00  0.00    +0.000 A 
BRANCH  21  28
ATOM     27  C   UNL     1      -1.558  18.631  22.129  0.00  0.00    +0.000 C 
ATOM     28  O   UNL     1      -1.125  18.442  20.781  0.00  0.00    +0.000 OA
ENDBRANCH  21  28
ENDBRANCH   1  24
BRANCH   2  29
ATOM     29  C   UNL     1       2.273  13.240  18.881  0.00  0.00    +0.000 C 
ATOM     30  C   UNL     1       3.265  13.915  18.807  0.00  0.00    +0.000 C 
BRANCH  30  31
ATOM     31  C   UNL     1       4.385  14.778  18.709  0.00  0.00    +0.000 A 
ATOM     32  C   UNL     1       5.521  14.511  17.914  0.00  0.00    +0.000 A 
ATOM     33  C   UNL     1       6.485  15.478  18.077  0.00  0.00    +0.000 A 
ATOM     34  S   UNL     1       5.980  16.721  19.143  0.00  0.00    +0.000 S 
ATOM     35  C   UNL     1       4.473  15.962  19.403  0.00  0.00    +0.000 A 
ENDBRANCH  30  31
ENDBRANCH   2  29
TORSDOF 5
ENDMDL
MODEL 4
REMARK VINA RESULT:      -6.7      0.890      1.283
REMARK  Name = 
REMARK  7 active torsions:
REMARK  status: ('A' for Active; 'I' for Inactive)
REMARK    1  A    between atoms: C_1  and  O_2
REMARK    2  A    between atoms: O_2  and  C_3
REMARK    3  A    between atoms: C_6  and  C_7
REMARK    4  A    between atoms: C_8  and  C_9
REMARK    5  A    between atoms: C_10  and  C_11
REMARK    6  A    between atoms: C_18  and  C_19
REMARK    7  A    between atoms: N_31  and  C_32
REMARK                            x       y       z     vdW  Elec       q    Type
REMARK                         _______ _______ _______ _____ _____    ______ ____
ROOT
ATOM      1  C   UNL     1      -1.936  12.471  21.065  0.00  0.00    +0.000 A 
ATOM      2  C   UNL     1      -1.565  11.516  20.133  0.00  0.00    +0.000 A 
ATOM      3  C   UNL     1      -0.630  10.627  20.679  0.00  0.00    +0.000 A 
ATOM      4  C   UNL     1       0.121   9.577  20.118  0.00  0.00    +0.000 A 
ATOM      5  C   UNL     1       0.823   8.679  20.921  0.00  0.00    +0.000 A 
ATOM      6  C   UNL     1       0.704   8.848  22.311  0.00  0.00    +0.000 A 
ATOM      7  C   UNL     1       0.019   9.946  22.898  0.00  0.00    +0.000 A 
ATOM      8  C   UNL     1      -0.616  10.867  22.045  0.00  0.00    +0.000 A 
ATOM      9  N   UNL     1      -1.287  12.078  22.238  0.00  0.00    +0.000 N 
ATOM     10  C   UNL     1      -1.194  12.876  23.443  0.00  0.00    +0.000 C 
ENDROOT
BRANCH   5  11
ATOM     11  C   UNL     1       1.632   7.611  20.281  0.00  0.00    +0.000 A 
ATOM     12  C   UNL     1       1.705   6.319  20.819  0.00  0.00    +0.000 A 
ATOM     13  C   UNL     1       2.491   5.311  20.232  0.00  0.00    +0.000 A 
ATOM     14  C   UNL     1       3.234   5.593  19.071  0.00  0.00    +0.000 A 
ATOM     15  C   UNL     1       4.143   4.853  18.264  0.00  0.00    +0.000 A 
ATOM     16  C   UNL     1       4.560   5.673  17.239  0.00  0.00    +0.000 A 
ATOM     17  N   UNL     1       3.925   6.878  17.385  0.00  0.00    +0.000 N 
ATOM     18  C   UNL     1       3.132   6.865  18.512  0.00  0.00    +0.000 A 
ATOM     19  C   UNL     1       2.344   7.876  19.085  0.00  0.00    +0.000 A 
ATOM     20  H   UNL     1       4.037   7.673  16.771  0.00  0.00    +0.000 HD
ENDBRANCH   5  11
BRANCH   1  24
ATOM     21  C   UNL     1      -4.624  15.823  20.554  0.00  0.00    +0.000 A 
ATOM     22  C   UNL     1      -3.248  16.047  20.641  0.00  0.00    +0.000 A 
ATOM     23  C   UNL     1      -2.339  14.976  20.779  0.00  0.00    +0.000 A 
ATOM     24  C   UNL     1      -2.795  13.656  20.815  0.00  0.00    +0.000 A 
ATOM     25  C   UNL     1      -4.190  13.461  20.722  0.00  0.00    +0.000 A 
ATOM     26  C   UNL     1      -5.094  14.520  20.627  0.00  0.00    +0.000 A 
BRANCH  21  28
ATOM     27  C   UNL     1      -6.323  17.157  21.511  0.00  0.00    +0.000 C 
ATOM     28  O   UNL     1      -5.421  16.929  20.428  0.00  0.00    +0.000 OA
ENDBRANCH  21  28
ENDBRANCH   1  24
BRANCH   2  29
ATOM     29  C   UNL     1      -2.097  11.351  18.831  0.00  0.00    +0.000 C 
ATOM     30  C   UNL     1      -2.499  11.098  17.727  0.00  0.00    +0.000 C 
BRANCH  30  31
ATOM     31  C   UNL     1      -2.971  10.719  16.446  0.00  0.00    +0.000 A 
ATOM     32  C   UNL     1      -2.269   9.868  15.565  0.00  0.00    +0.000 A 
ATOM     33  C   UNL     1      -2.924   9.741  14.362  0.00  0.00    +0.000 A 
ATOM     34  S   UNL     1      -4.403  10.607  14.337  0.00  0.00    +0.000 S 
ATOM     35  C   UNL     1      -4.165  11.167  15.932  0.00  0.00    +0.000 A 
ENDBRANCH  30  31
ENDBRANCH   2  29
TORSDOF 5
ENDMDL
MODEL 5
REMARK VINA RESULT:      -6.7      0.996      1.503
REMARK  Name = 
REMARK  7 active torsions:
REMARK  status: ('A' for Active; 'I' for Inactive)
REMARK    1  A    between atoms: C_1  and  O_2
REMARK    2  A    between atoms: O_2  and  C_3
REMARK    3  A    between atoms: C_6  and  C_7
REMARK    4  A    between atoms: C_8  and  C_9
REMARK    5  A    between atoms: C_10  and  C_11
REMARK    6  A    between atoms: C_18  and  C_19
REMARK    7  A    between atoms: N_31  and  C_32
REMARK                            x       y       z     vdW  Elec       q    Type
REMARK                         _______ _______ _______ _____ _____    ______ ____
ROOT
ATOM      1  C   UNL     1      -1.673  11.940  20.773  0.00  0.00    +0.000 A 
ATOM      2  C   UNL     1      -1.237  11.111  19.753  0.00  0.00    +0.000 A 
ATOM      3  C   UNL     1      -0.244  10.238  20.214  0.00  0.00    +0.000 A 
ATOM      4  C   UNL     1       0.578   9.303  19.556  0.00  0.00    +0.000 A 
ATOM      5  C   UNL     1       1.339   8.378  20.271  0.00  0.00    +0.000 A 
ATOM      6  C   UNL     1       1.207   8.398  21.670  0.00  0.00    +0.000 A 
ATOM      7  C   UNL     1       0.448   9.382  22.359  0.00  0.00    +0.000 A 
ATOM      8  C   UNL     1      -0.248  10.339  21.597  0.00  0.00    +0.000 A 
ATOM      9  N   UNL     1      -1.001  11.475  21.905  0.00  0.00    +0.000 N 
ATOM     10  C   UNL     1      -0.964  12.153  23.185  0.00  0.00    +0.000 C 
ENDROOT
BRANCH   5  11
ATOM     11  C   UNL     1       2.220   7.438  19.534  0.00  0.00    +0.000 A 
ATOM     12  C   UNL     1       2.449   6.132  19.988  0.00  0.00    +0.000 A 
ATOM     13  C   UNL     1       3.304   5.246  19.308  0.00  0.00    +0.000 A 
ATOM     14  C   UNL     1       3.957   5.668  18.136  0.00  0.00    +0.000 A 
ATOM     15  C   UNL     1       4.897   5.073  17.248  0.00  0.00    +0.000 A 
ATOM     16  C   UNL     1       5.179   5.988  16.258  0.00  0.00    +0.000 A 
ATOM     17  N   UNL     1       4.433   7.111  16.504  0.00  0.00    +0.000 N 
ATOM     18  C   UNL     1       3.700   6.952  17.661  0.00  0.00    +0.000 A 
ATOM     19  C   UNL     1       2.843   7.842  18.327  0.00  0.00    +0.000 A 
ATOM     20  H   UNL     1       4.434   7.946  15.935  0.00  0.00    +0.000 HD
ENDBRANCH   5  11
BRANCH   1  24
ATOM     21  C   UNL     1      -4.583  15.137  20.581  0.00  0.00    +0.000 A 
ATOM     22  C   UNL     1      -3.224  15.444  20.689  0.00  0.00    +0.000 A 
ATOM     23  C   UNL     1      -2.245  14.428  20.724  0.00  0.00    +0.000 A 
ATOM     24  C   UNL     1      -2.612  13.083  20.636  0.00  0.00    +0.000 A 
ATOM     25  C   UNL     1      -3.991  12.804  20.526  0.00  0.00    +0.000 A 
ATOM     26  C   UNL     1      -4.965  13.804  20.532  0.00  0.00    +0.000 A 
BRANCH  21  28
ATOM     27  C   UNL     1      -6.823  15.853  20.347  0.00  0.00    +0.000 C 
ATOM     28  O   UNL     1      -5.452  16.194  20.561  0.00  0.00    +0.000 OA
ENDBRANCH  21  28
ENDBRANCH   1  24
BRANCH   2  29
ATOM     29  C   UNL     1      -1.755  11.043  18.436  0.00  0.00    +0.000 C 
ATOM     30  C   UNL     1      -2.209  10.863  17.338  0.00  0.00    +0.000 C 
BRANCH  30  31
ATOM     31  C   UNL     1      -2.786  10.585  16.074  0.00  0.00    +0.000 A 
ATOM     32  C   UNL     1      -3.996  11.150  15.615  0.00  0.00    +0.000 A 
ATOM     33  C   UNL     1      -4.356  10.638  14.391  0.00  0.00    +0.000 A 
ATOM     34  S   UNL     1      -3.199   9.526  13.789  0.00  0.00    +0.000 S 
ATOM     35  C   UNL     1      -2.217   9.714  15.174  0.00  0.00    +0.000 A 
ENDBRANCH  30  31
ENDBRANCH   2  29
TORSDOF 5
ENDMDL
MODEL 6
REMARK VINA RESULT:      -6.6      4.283      5.468
REMARK  Name = 
REMARK  7 active torsions:
REMARK  status: ('A' for Active; 'I' for Inactive)
REMARK    1  A    between atoms: C_1  and  O_2
REMARK    2  A    between atoms: O_2  and  C_3
REMARK    3  A    between atoms: C_6  and  C_7
REMARK    4  A    between atoms: C_8  and  C_9
REMARK    5  A    between atoms: C_10  and  C_11
REMARK    6  A    between atoms: C_18  and  C_19
REMARK    7  A    between atoms: N_31  and  C_32
REMARK                            x       y       z     vdW  Elec       q    Type
REMARK                         _______ _______ _______ _____ _____    ______ ____
ROOT
ATOM      1  C   UNL     1      -0.196  13.083  19.015  0.00  0.00    +0.000 A 
ATOM      2  C   UNL     1       1.068  12.532  18.885  0.00  0.00    +0.000 A 
ATOM      3  C   UNL     1       0.986  11.153  18.656  0.00  0.00    +0.000 A 
ATOM      4  C   UNL     1       1.967  10.146  18.572  0.00  0.00    +0.000 A 
ATOM      5  C   UNL     1       1.655   8.869  18.106  0.00  0.00    +0.000 A 
ATOM      6  C   UNL     1       0.331   8.656  17.685  0.00  0.00    +0.000 A 
ATOM      7  C   UNL     1      -0.692   9.630  17.836  0.00  0.00    +0.000 A 
ATOM      8  C   UNL     1      -0.344  10.882  18.376  0.00  0.00    +0.000 A 
ATOM      9  N   UNL     1      -1.063  12.021  18.748  0.00  0.00    +0.000 N 
ATOM     10  C   UNL     1      -2.495  12.044  18.965  0.00  0.00    +0.000 C 
ENDROOT
BRANCH   5  11
ATOM     11  C   UNL     1       2.714   7.829  18.072  0.00  0.00    +0.000 A 
ATOM     12  C   UNL     1       2.699   6.732  18.944  0.00  0.00    +0.000 A 
ATOM     13  C   UNL     1       3.714   5.758  18.933  0.00  0.00    +0.000 A 
ATOM     14  C   UNL     1       4.784   5.876  18.027  0.00  0.00    +0.000 A 
ATOM     15  C   UNL     1       5.969   5.127  17.781  0.00  0.00    +0.000 A 
ATOM     16  C   UNL     1       6.646   5.738  16.749  0.00  0.00    +0.000 A 
ATOM     17  N   UNL     1       5.908   6.821  16.350  0.00  0.00    +0.000 N 
ATOM     18  C   UNL     1       4.781   6.944  17.134  0.00  0.00    +0.000 A 
ATOM     19  C   UNL     1       3.768   7.917  17.130  0.00  0.00    +0.000 A 
ATOM     20  H   UNL     1       6.161   7.454  15.604  0.00  0.00    +0.000 HD
ENDBRANCH   5  11
BRANCH   1  24
ATOM     21  C   UNL     1      -1.243  17.195  19.865  0.00  0.00    +0.000 A 
ATOM     22  C   UNL     1      -1.492  16.205  20.820  0.00  0.00    +0.000 A 
ATOM     23  C   UNL     1      -1.137  14.860  20.589  0.00  0.00    +0.000 A 
ATOM     24  C   UNL     1      -0.510  14.483  19.399  0.00  0.00    +0.000 A 
ATOM     25  C   UNL     1      -0.269  15.504  18.455  0.00  0.00    +0.000 A 
ATOM     26  C   UNL     1      -0.655  16.829  18.662  0.00  0.00    +0.000 A 
BRANCH  21  28
ATOM     27  C   UNL     1      -2.173  18.631  21.494  0.00  0.00    +0.000 C 
ATOM     28  O   UNL     1      -1.630  18.469  20.183  0.00  0.00    +0.000 OA
ENDBRANCH  21  28
ENDBRANCH   1  24
BRANCH   2  29
ATOM     29  C   UNL     1       2.299  13.231  18.873  0.00  0.00    +0.000 C 
ATOM     30  C   UNL     1       3.288  13.912  18.929  0.00  0.00    +0.000 C 
BRANCH  30  31
ATOM     31  C   UNL     1       4.424  14.749  19.065  0.00  0.00    +0.000 A 
ATOM     32  C   UNL     1       5.422  14.893  18.076  0.00  0.00    +0.000 A 
ATOM     33  C   UNL     1       6.446  15.701  18.511  0.00  0.00    +0.000 A 
ATOM     34  S   UNL     1       6.159  16.317  20.085  0.00  0.00    +0.000 S 
ATOM     35  C   UNL     1       4.668  15.492  20.195  0.00  0.00    +0.000 A 
ENDBRANCH  30  31
ENDBRANCH   2  29
TORSDOF 5
ENDMDL
MODEL 7
REMARK VINA RESULT:      -6.6      6.060      7.484
REMARK  Name = 
REMARK  7 active torsions:
REMARK  status: ('A' for Active; 'I' for Inactive)
REMARK    1  A    between atoms: C_1  and  O_2
REMARK    2  A    between atoms: O_2  and  C_3
REMARK    3  A    between atoms: C_6  and  C_7
REMARK    4  A    between atoms: C_8  and  C_9
REMARK    5  A    between atoms: C_10  and  C_11
REMARK    6  A    between atoms: C_18  and  C_19
REMARK    7  A    between atoms: N_31  and  C_32
REMARK                            x       y       z     vdW  Elec       q    Type
REMARK                         _______ _______ _______ _____ _____    ______ ____
ROOT
ATOM      1  C   UNL     1       0.221  13.538  18.579  0.00  0.00    +0.000 A 
ATOM      2  C   UNL     1       1.473  12.956  18.467  0.00  0.00    +0.000 A 
ATOM      3  C   UNL     1       2.475  13.934  18.463  0.00  0.00    +0.000 A 
ATOM      4  C   UNL     1       3.867  13.866  18.260  0.00  0.00    +0.000 A 
ATOM      5  C   UNL     1       4.694  14.956  18.533  0.00  0.00    +0.000 A 
ATOM      6  C   UNL     1       4.074  16.101  19.061  0.00  0.00    +0.000 A 
ATOM      7  C   UNL     1       2.665  16.222  19.198  0.00  0.00    +0.000 A 
ATOM      8  C   UNL     1       1.865  15.119  18.843  0.00  0.00    +0.000 A 
ATOM      9  N   UNL     1       0.488  14.897  18.758  0.00  0.00    +0.000 N 
ATOM     10  C   UNL     1      -0.505  15.950  18.715  0.00  0.00    +0.000 C 
ENDROOT
BRANCH   5  11
ATOM     11  C   UNL     1       6.150  14.848  18.266  0.00  0.00    +0.000 A 
ATOM     12  C   UNL     1       6.720  13.679  17.744  0.00  0.00    +0.000 A 
ATOM     13  C   UNL     1       8.102  13.563  17.514  0.00  0.00    +0.000 A 
ATOM     14  C   UNL     1       8.953  14.642  17.815  0.00  0.00    +0.000 A 
ATOM     15  C   UNL     1      10.360  14.850  17.757  0.00  0.00    +0.000 A 
ATOM     16  C   UNL     1      10.614  16.134  18.187  0.00  0.00    +0.000 A 
ATOM     17  N   UNL     1       9.412  16.718  18.488  0.00  0.00    +0.000 N 
ATOM     18  C   UNL     1       8.384  15.819  18.297  0.00  0.00    +0.000 A 
ATOM     19  C   UNL     1       7.005  15.949  18.522  0.00  0.00    +0.000 A 
ATOM     20  H   UNL     1       9.292  17.663  18.825  0.00  0.00    +0.000 HD
ENDBRANCH   5  11
BRANCH   1  24
ATOM     21  C   UNL     1      -3.435  11.259  18.177  0.00  0.00    +0.000 A 
ATOM     22  C   UNL     1      -3.176  11.949  19.365  0.00  0.00    +0.000 A 
ATOM     23  C   UNL     1      -2.009  12.726  19.521  0.00  0.00    +0.000 A 
ATOM     24  C   UNL     1      -1.085  12.838  18.479  0.00  0.00    +0.000 A 
ATOM     25  C   UNL     1      -1.374  12.132  17.292  0.00  0.00    +0.000 A 
ATOM     26  C   UNL     1      -2.508  11.330  17.149  0.00  0.00    +0.000 A 
BRANCH  21  28
ATOM     27  C   UNL     1      -5.774  11.235  18.515  0.00  0.00    +0.000 C 
ATOM     28  O   UNL     1      -4.593  10.530  18.130  0.00  0.00    +0.000 OA
ENDBRANCH  21  28
ENDBRANCH   1  24
BRANCH   2  29
ATOM     29  C   UNL     1       1.766  11.571  18.456  0.00  0.00    +0.000 C 
ATOM     30  C   UNL     1       1.955  10.388  18.555  0.00  0.00    +0.000 C 
BRANCH  30  31
ATOM     31  C   UNL     1       2.110   8.989  18.719  0.00  0.00    +0.000 A 
ATOM     32  C   UNL     1       1.780   8.290  19.901  0.00  0.00    +0.000 A 
ATOM     33  C   UNL     1       2.112   6.959  19.806  0.00  0.00    +0.000 A 
ATOM     34  S   UNL     1       2.765   6.563  18.272  0.00  0.00    +0.000 S 
ATOM     35  C   UNL     1       2.620   8.177  17.733  0.00  0.00    +0.000 A 
ENDBRANCH  30  31
ENDBRANCH   2  29
TORSDOF 5
ENDMDL
MODEL 8
REMARK VINA RESULT:      -6.6      5.873      7.285
REMARK  Name = 
REMARK  7 active torsions:
REMARK  status: ('A' for Active; 'I' for Inactive)
REMARK    1  A    between atoms: C_1  and  O_2
REMARK    2  A    between atoms: O_2  and  C_3
REMARK    3  A    between atoms: C_6  and  C_7
REMARK    4  A    between atoms: C_8  and  C_9
REMARK    5  A    between atoms: C_10  and  C_11
REMARK    6  A    between atoms: C_18  and  C_19
REMARK    7  A    between atoms: N_31  and  C_32
REMARK                            x       y       z     vdW  Elec       q    Type
REMARK                         _______ _______ _______ _____ _____    ______ ____
ROOT
ATOM      1  C   UNL     1       0.015  13.320  18.733  0.00  0.00    +0.000 A 
ATOM      2  C   UNL     1       1.269  12.757  18.564  0.00  0.00    +0.000 A 
ATOM      3  C   UNL     1       2.263  13.743  18.589  0.00  0.00    +0.000 A 
ATOM      4  C   UNL     1       3.650  13.698  18.353  0.00  0.00    +0.000 A 
ATOM      5  C   UNL     1       4.473  14.780  18.664  0.00  0.00    +0.000 A 
ATOM      6  C   UNL     1       3.856  15.892  19.263  0.00  0.00    +0.000 A 
ATOM      7  C   UNL     1       2.449  15.992  19.436  0.00  0.00    +0.000 A 
ATOM      8  C   UNL     1       1.651  14.901  19.043  0.00  0.00    +0.000 A 
ATOM      9  N   UNL     1       0.275  14.671  18.976  0.00  0.00    +0.000 N 
ATOM     10  C   UNL     1      -0.728  15.716  19.008  0.00  0.00    +0.000 C 
ENDROOT
BRANCH   5  11
ATOM     11  C   UNL     1       5.924  14.700  18.361  0.00  0.00    +0.000 A 
ATOM     12  C   UNL     1       6.480  13.597  17.698  0.00  0.00    +0.000 A 
ATOM     13  C   UNL     1       7.858  13.504  17.432  0.00  0.00    +0.000 A 
ATOM     14  C   UNL     1       8.718  14.540  17.839  0.00  0.00    +0.000 A 
ATOM     15  C   UNL     1      10.125  14.749  17.780  0.00  0.00    +0.000 A 
ATOM     16  C   UNL     1      10.392  15.975  18.349  0.00  0.00    +0.000 A 
ATOM     17  N   UNL     1       9.198  16.524  18.737  0.00  0.00    +0.000 N 
ATOM     18  C   UNL     1       8.163  15.655  18.463  0.00  0.00    +0.000 A 
ATOM     19  C   UNL     1       6.788  15.762  18.725  0.00  0.00    +0.000 A 
ATOM     20  H   UNL     1       9.089  17.425  19.181  0.00  0.00    +0.000 HD
ENDBRANCH   5  11
BRANCH   1  24
ATOM     21  C   UNL     1      -3.913  11.516  18.520  0.00  0.00    +0.000 A 
ATOM     22  C   UNL     1      -3.034  11.392  17.440  0.00  0.00    +0.000 A 
ATOM     23  C   UNL     1      -1.736  11.942  17.486  0.00  0.00    +0.000 A 
ATOM     24  C   UNL     1      -1.287  12.614  18.625  0.00  0.00    +0.000 A 
ATOM     25  C   UNL     1      -2.195  12.721  19.701  0.00  0.00    +0.000 A 
ATOM     26  C   UNL     1      -3.495  12.214  19.643  0.00  0.00    +0.000 A 
BRANCH  21  28
ATOM     27  C   UNL     1      -6.099  11.742  17.654  0.00  0.00    +0.000 C 
ATOM     28  O   UNL     1      -5.151  10.952  18.373  0.00  0.00    +0.000 OA
ENDBRANCH  21  28
ENDBRANCH   1  24
BRANCH   2  29
ATOM     29  C   UNL     1       1.573  11.376  18.476  0.00  0.00    +0.000 C 
ATOM     30  C   UNL     1       1.876  10.214  18.516  0.00  0.00    +0.000 C 
BRANCH  30  31
ATOM     31  C   UNL     1       2.227   8.847  18.646  0.00  0.00    +0.000 A 
ATOM     32  C   UNL     1       2.932   8.115  17.665  0.00  0.00    +0.000 A 
ATOM     33  C   UNL     1       3.060   6.793  18.021  0.00  0.00    +0.000 A 
ATOM     34  S   UNL     1       2.375   6.469  19.558  0.00  0.00    +0.000 S 
ATOM     35  C   UNL     1       1.892   8.096  19.748  0.00  0.00    +0.000 A 
ENDBRANCH  30  31
ENDBRANCH   2  29
TORSDOF 5
ENDMDL
MODEL 9
REMARK VINA RESULT:      -6.5      3.907      5.272
REMARK  Name = 
REMARK  7 active torsions:
REMARK  status: ('A' for Active; 'I' for Inactive)
REMARK    1  A    between atoms: C_1  and  O_2
REMARK    2  A    between atoms: O_2  and  C_3
REMARK    3  A    between atoms: C_6  and  C_7
REMARK    4  A    between atoms: C_8  and  C_9
REMARK    5  A    between atoms: C_10  and  C_11
REMARK    6  A    between atoms: C_18  and  C_19
REMARK    7  A    between atoms: N_31  and  C_32
REMARK                            x       y       z     vdW  Elec       q    Type
REMARK                         _______ _______ _______ _____ _____    ______ ____
ROOT
ATOM      1  C   UNL     1      -0.926  13.523  20.290  0.00  0.00    +0.000 A 
ATOM      2  C   UNL     1       0.320  12.921  20.230  0.00  0.00    +0.000 A 
ATOM      3  C   UNL     1       0.227  11.644  19.663  0.00  0.00    +0.000 A 
ATOM      4  C   UNL     1       1.169  10.611  19.491  0.00  0.00    +0.000 A 
ATOM      5  C   UNL     1       0.893   9.507  18.685  0.00  0.00    +0.000 A 
ATOM      6  C   UNL     1      -0.346   9.502  18.022  0.00  0.00    +0.000 A 
ATOM      7  C   UNL     1      -1.342  10.491  18.243  0.00  0.00    +0.000 A 
ATOM      8  C   UNL     1      -1.045  11.550  19.120  0.00  0.00    +0.000 A 
ATOM      9  N   UNL     1      -1.774  12.624  19.640  0.00  0.00    +0.000 N 
ATOM     10  C   UNL     1      -3.220  12.706  19.629  0.00  0.00    +0.000 C 
ENDROOT
BRANCH   5  11
ATOM     11  C   UNL     1       1.903   8.425  18.565  0.00  0.00    +0.000 A 
ATOM     12  C   UNL     1       2.801   8.371  17.490  0.00  0.00    +0.000 A 
ATOM     13  C   UNL     1       3.742   7.333  17.358  0.00  0.00    +0.000 A 
ATOM     14  C   UNL     1       3.794   6.312  18.324  0.00  0.00    +0.000 A 
ATOM     15  C   UNL     1       4.560   5.122  18.476  0.00  0.00    +0.000 A 
ATOM     16  C   UNL     1       4.160   4.511  19.644  0.00  0.00    +0.000 A 
ATOM     17  N   UNL     1       3.191   5.294  20.214  0.00  0.00    +0.000 N 
ATOM     18  C   UNL     1       2.929   6.385  19.412  0.00  0.00    +0.000 A 
ATOM     19  C   UNL     1       1.992   7.420  19.559  0.00  0.00    +0.000 A 
ATOM     20  H   UNL     1       2.718   5.093  21.083  0.00  0.00    +0.000 HD
ENDBRANCH   5  11
BRANCH   1  24
ATOM     21  C   UNL     1      -2.049  17.344  21.981  0.00  0.00    +0.000 A 
ATOM     22  C   UNL     1      -2.034  16.206  22.792  0.00  0.00    +0.000 A 
ATOM     23  C   UNL     1      -1.645  14.950  22.282  0.00  0.00    +0.000 A 
ATOM     24  C   UNL     1      -1.247  14.814  20.950  0.00  0.00    +0.000 A 
ATOM     25  C   UNL     1      -1.270  15.981  20.156  0.00  0.00    +0.000 A 
ATOM     26  C   UNL     1      -1.693  17.218  20.647  0.00  0.00    +0.000 A 
BRANCH  21  28
ATOM     27  C   UNL     1      -3.715  18.465  23.227  0.00  0.00    +0.000 C 
ATOM     28  O   UNL     1      -2.448  18.514  22.570  0.00  0.00    +0.000 OA
ENDBRANCH  21  28
ENDBRANCH   1  24
BRANCH   2  29
ATOM     29  C   UNL     1       1.561  13.506  20.582  0.00  0.00    +0.000 C 
ATOM     30  C   UNL     1       2.657  13.961  20.773  0.00  0.00    +0.000 C 
BRANCH  30  31
ATOM     31  C   UNL     1       3.960  14.502  20.915  0.00  0.00    +0.000 A 
ATOM     32  C   UNL     1       4.625  15.236  19.909  0.00  0.00    +0.000 A 
ATOM     33  C   UNL     1       5.904  15.564  20.291  0.00  0.00    +0.000 A 
ATOM     34  S   UNL     1       6.262  15.030  21.879  0.00  0.00    +0.000 S 
ATOM     35  C   UNL     1       4.709  14.344  22.057  0.00  0.00    +0.000 A 
ENDBRANCH  30  31
ENDBRANCH   2  29
TORSDOF 5
ENDMDL
