MODEL 1
REMARK VINA RESULT:      -8.8      0.000      0.000
REMARK  Name = 
REMARK  5 active torsions:
REMARK  status: ('A' for Active; 'I' for Inactive)
REMARK    1  A    between atoms: C_2  and  C_3
REMARK    2  A    between atoms: C_3  and  N_4
REMARK    3  A    between atoms: N_4  and  C_15
REMARK    4  A    between atoms: N_7  and  C_8
REMARK    5  A    between atoms: N_21  and  C_22
REMARK                            x       y       z     vdW  Elec       q    Type
REMARK                         _______ _______ _______ _____ _____    ______ ____
ROOT
ATOM      1  N   UNL     1       3.323   4.896  19.300  0.00  0.00    +0.000 N 
ATOM      2  C   UNL     1       2.363   5.865  19.722  0.00  0.00    +0.000 C 
ATOM      3  O   UNL     1       1.422   5.577  20.455  0.00  0.00    +0.000 OA
ATOM      4  N   UNL     1       2.583   7.146  19.260  0.00  0.00    +0.000 N 
ATOM      5  H   UNL     1       3.452   7.344  18.797  0.00  0.00    +0.000 HD
ENDROOT
BRANCH   4   6
ATOM      6  C   UNL     1       1.806   8.304  19.493  0.00  0.00    +0.000 A 
ATOM      7  C   UNL     1       1.313   8.706  20.736  0.00  0.00    +0.000 A 
ATOM      8  C   UNL     1       0.485   9.833  20.836  0.00  0.00    +0.000 A 
ATOM      9  C   UNL     1       0.156  10.564  19.697  0.00  0.00    +0.000 A 
ATOM     10 CL   UNL     1      -0.899  11.916  19.812  0.00  0.00    +0.000 Cl
ATOM     11  C   UNL     1       0.671  10.196  18.459  0.00  0.00    +0.000 A 
ATOM     12  C   UNL     1       1.492   9.071  18.359  0.00  0.00    +0.000 A 
ENDBRANCH   4   6
BRANCH   1  13
ATOM     13  C   UNL     1       3.326   3.614  20.101  0.00  0.00    +0.000 C 
ATOM     14  C   UNL     1       1.927   3.003  20.384  0.00  0.00    +0.000 C 
ATOM     15  C   UNL     1       1.264   2.474  19.116  0.00  0.00    +0.000 C 
ATOM     16  C   UNL     1       2.134   1.429  18.422  0.00  0.00    +0.000 C 
ATOM     17  C   UNL     1       3.565   1.916  18.214  0.00  0.00    +0.000 C 
ATOM     18  C   UNL     1       4.162   2.444  19.518  0.00  0.00    +0.000 C 
ENDBRANCH   1  13
BRANCH   1  19
ATOM     19  C   UNL     1       4.618   5.358  18.747  0.00  0.00    +0.000 C 
BRANCH  19  21
ATOM     20  O   UNL     1       4.558   6.490  16.653  0.00  0.00    +0.000 OA
ATOM     21  C   UNL     1       4.892   5.455  17.231  0.00  0.00    +0.000 C 
ATOM     22  N   UNL     1       5.529   4.389  16.614  0.00  0.00    +0.000 N 
ATOM     23  H   UNL     1       5.546   3.513  17.123  0.00  0.00    +0.000 HD
BRANCH  22  24
ATOM     24  C   UNL     1       6.013   4.396  15.274  0.00  0.00    +0.000 A 
ATOM     25  C   UNL     1       7.169   5.080  14.867  0.00  0.00    +0.000 A 
ATOM     26  C   UNL     1       7.591   5.053  13.535  0.00  0.00    +0.000 A 
ATOM     27  F   UNL     1       8.701   5.712  13.180  0.00  0.00    +0.000 F 
ATOM     28  C   UNL     1       6.884   4.350  12.575  0.00  0.00    +0.000 A 
ATOM     29  C   UNL     1       5.751   3.656  12.975  0.00  0.00    +0.000 A 
ATOM     30  F   UNL     1       5.054   2.969  12.060  0.00  0.00    +0.000 F 
ATOM     31  C   UNL     1       5.314   3.665  14.310  0.00  0.00    +0.000 A 
ENDBRANCH  22  24
ENDBRANCH  19  21
ENDBRANCH   1  19
TORSDOF 5
ENDMDL
MODEL 2
REMARK VINA RESULT:      -8.7      0.180      1.529
REMARK  Name = 
REMARK  5 active torsions:
REMARK  status: ('A' for Active; 'I' for Inactive)
REMARK    1  A    between atoms: C_2  and  C_3
REMARK    2  A    between atoms: C_3  and  N_4
REMARK    3  A    between atoms: N_4  and  C_15
REMARK    4  A    between atoms: N_7  and  C_8
REMARK    5  A    between atoms: N_21  and  C_22
REMARK                            x       y       z     vdW  Elec       q    Type
REMARK                         _______ _______ _______ _____ _____    ______ ____
ROOT
ATOM      1  N   UNL     1       3.373   4.930  19.200  0.00  0.00    +0.000 N 
ATOM      2  C   UNL     1       2.424   5.916  19.607  0.00  0.00    +0.000 C 
ATOM      3  O   UNL     1       1.502   5.660  20.375  0.00  0.00    +0.000 OA
ATOM      4  N   UNL     1       2.634   7.177  19.089  0.00  0.00    +0.000 N 
ATOM      5  H   UNL     1       3.491   7.355  18.597  0.00  0.00    +0.000 HD
ENDROOT
BRANCH   4   6
ATOM      6  C   UNL     1       1.864   8.345  19.295  0.00  0.00    +0.000 A 
ATOM      7  C   UNL     1       1.326   8.749  20.519  0.00  0.00    +0.000 A 
ATOM      8  C   UNL     1       0.510   9.888  20.590  0.00  0.00    +0.000 A 
ATOM      9  C   UNL     1       0.238  10.628  19.441  0.00  0.00    +0.000 A 
ATOM     10 CL   UNL     1      -0.802  11.994  19.519  0.00  0.00    +0.000 Cl
ATOM     11  C   UNL     1       0.798  10.257  18.224  0.00  0.00    +0.000 A 
ATOM     12  C   UNL     1       1.607   9.121  18.153  0.00  0.00    +0.000 A 
ENDBRANCH   4   6
BRANCH   1  13
ATOM     13  C   UNL     1       3.395   3.681  20.052  0.00  0.00    +0.000 C 
ATOM     14  C   UNL     1       2.003   3.092  20.406  0.00  0.00    +0.000 C 
ATOM     15  C   UNL     1       1.294   2.518  19.184  0.00  0.00    +0.000 C 
ATOM     16  C   UNL     1       2.133   1.440  18.504  0.00  0.00    +0.000 C 
ATOM     17  C   UNL     1       3.559   1.906  18.228  0.00  0.00    +0.000 C 
ATOM     18  C   UNL     1       4.203   2.482  19.489  0.00  0.00    +0.000 C 
ENDBRANCH   1  13
BRANCH   1  19
ATOM     19  C   UNL     1       4.653   5.366  18.596  0.00  0.00    +0.000 C 
BRANCH  19  21
ATOM     20  O   UNL     1       4.510   6.418  16.465  0.00  0.00    +0.000 OA
ATOM     21  C   UNL     1       4.885   5.414  17.071  0.00  0.00    +0.000 C 
ATOM     22  N   UNL     1       5.531   4.341  16.477  0.00  0.00    +0.000 N 
ATOM     23  H   UNL     1       5.583   3.485  17.016  0.00  0.00    +0.000 HD
BRANCH  22  24
ATOM     24  C   UNL     1       5.980   4.310  15.124  0.00  0.00    +0.000 A 
ATOM     25  C   UNL     1       5.333   3.594  14.106  0.00  0.00    +0.000 A 
ATOM     26  C   UNL     1       5.824   3.599  12.797  0.00  0.00    +0.000 A 
ATOM     27  F   UNL     1       5.181   2.908  11.848  0.00  0.00    +0.000 F 
ATOM     28  C   UNL     1       6.964   4.310  12.464  0.00  0.00    +0.000 A 
ATOM     29  C   UNL     1       7.596   5.036  13.463  0.00  0.00    +0.000 A 
ATOM     30  F   UNL     1       8.700   5.733  13.160  0.00  0.00    +0.000 F 
ATOM     31  C   UNL     1       7.115   5.051  14.783  0.00  0.00    +0.000 A 
ENDBRANCH  22  24
ENDBRANCH  19  21
ENDBRANCH   1  19
TORSDOF 5
ENDMDL
MODEL 3
REMARK VINA RESULT:      -8.1      1.162      1.701
REMARK  Name = 
REMARK  5 active torsions:
REMARK  status: ('A' for Active; 'I' for Inactive)
REMARK    1  A    between atoms: C_2  and  C_3
REMARK    2  A    between atoms: C_3  and  N_4
REMARK    3  A    between atoms: N_4  and  C_15
REMARK    4  A    between atoms: N_7  and  C_8
REMARK    5  A    between atoms: N_21  and  C_22
REMARK                            x       y       z     vdW  Elec       q    Type
REMARK                         _______ _______ _______ _____ _____    ______ ____
ROOT
ATOM      1  N   UNL     1       3.300   4.207  18.086  0.00  0.00    +0.000 N 
ATOM      2  C   UNL     1       2.375   5.245  18.412  0.00  0.00    +0.000 C 
ATOM      3  O   UNL     1       1.183   5.025  18.599  0.00  0.00    +0.000 OA
ATOM      4  N   UNL     1       2.926   6.506  18.519  0.00  0.00    +0.000 N 
ATOM      5  H   UNL     1       3.926   6.592  18.510  0.00  0.00    +0.000 HD
ENDROOT
BRANCH   4   6
ATOM      6  C   UNL     1       2.270   7.723  18.812  0.00  0.00    +0.000 A 
ATOM      7  C   UNL     1       1.713   8.060  20.048  0.00  0.00    +0.000 A 
ATOM      8  C   UNL     1       1.014   9.267  20.203  0.00  0.00    +0.000 A 
ATOM      9  C   UNL     1       0.881  10.141  19.127  0.00  0.00    +0.000 A 
ATOM     10 CL   UNL     1      -0.016  11.596  19.303  0.00  0.00    +0.000 Cl
ATOM     11  C   UNL     1       1.463   9.834  17.902  0.00  0.00    +0.000 A 
ATOM     12  C   UNL     1       2.154   8.631  17.748  0.00  0.00    +0.000 A 
ENDBRANCH   4   6
BRANCH   1  13
ATOM     13  C   UNL     1       2.801   2.805  18.357  0.00  0.00    +0.000 C 
ATOM     14  C   UNL     1       3.899   1.765  18.704  0.00  0.00    +0.000 C 
ATOM     15  C   UNL     1       4.543   2.040  20.059  0.00  0.00    +0.000 C 
ATOM     16  C   UNL     1       3.506   2.064  21.179  0.00  0.00    +0.000 C 
ATOM     17  C   UNL     1       2.330   2.980  20.856  0.00  0.00    +0.000 C 
ATOM     18  C   UNL     1       1.743   2.660  19.482  0.00  0.00    +0.000 C 
ENDBRANCH   1  13
BRANCH   1  19
ATOM     19  C   UNL     1       4.751   4.457  18.245  0.00  0.00    +0.000 C 
BRANCH  19  21
ATOM     20  O   UNL     1       6.929   4.321  17.293  0.00  0.00    +0.000 OA
ATOM     21  C   UNL     1       5.731   4.479  17.053  0.00  0.00    +0.000 C 
ATOM     22  N   UNL     1       5.206   4.639  15.781  0.00  0.00    +0.000 N 
ATOM     23  H   UNL     1       4.257   4.989  15.721  0.00  0.00    +0.000 HD
BRANCH  22  24
ATOM     24  C   UNL     1       5.948   4.501  14.572  0.00  0.00    +0.000 A 
ATOM     25  C   UNL     1       7.104   5.241  14.278  0.00  0.00    +0.000 A 
ATOM     26  C   UNL     1       7.786   5.062  13.071  0.00  0.00    +0.000 A 
ATOM     27  F   UNL     1       8.888   5.781  12.823  0.00  0.00    +0.000 F 
ATOM     28  C   UNL     1       7.345   4.151  12.128  0.00  0.00    +0.000 A 
ATOM     29  C   UNL     1       6.214   3.402  12.421  0.00  0.00    +0.000 A 
ATOM     30  F   UNL     1       5.772   2.513  11.521  0.00  0.00    +0.000 F 
ATOM     31  C   UNL     1       5.518   3.561  13.632  0.00  0.00    +0.000 A 
ENDBRANCH  22  24
ENDBRANCH  19  21
ENDBRANCH   1  19
TORSDOF 5
ENDMDL
MODEL 4
REMARK VINA RESULT:      -8.0      0.926      1.779
REMARK  Name = 
REMARK  5 active torsions:
REMARK  status: ('A' for Active; 'I' for Inactive)
REMARK    1  A    between atoms: C_2  and  C_3
REMARK    2  A    between atoms: C_3  and  N_4
REMARK    3  A    between atoms: N_4  and  C_15
REMARK    4  A    between atoms: N_7  and  C_8
REMARK    5  A    between atoms: N_21  and  C_22
REMARK                            x       y       z     vdW  Elec       q    Type
REMARK                         _______ _______ _______ _____ _____    ______ ____
ROOT
ATOM      1  N   UNL     1       3.279   4.750  19.731  0.00  0.00    +0.000 N 
ATOM      2  C   UNL     1       2.257   5.677  20.099  0.00  0.00    +0.000 C 
ATOM      3  O   UNL     1       1.191   5.317  20.587  0.00  0.00    +0.000 OA
ATOM      4  N   UNL     1       2.567   7.004  19.881  0.00  0.00    +0.000 N 
ATOM      5  H   UNL     1       3.509   7.239  19.628  0.00  0.00    +0.000 HD
ENDROOT
BRANCH   4   6
ATOM      6  C   UNL     1       1.762   8.140  20.128  0.00  0.00    +0.000 A 
ATOM      7  C   UNL     1       1.217   8.487  21.366  0.00  0.00    +0.000 A 
ATOM      8  C   UNL     1       0.366   9.597  21.478  0.00  0.00    +0.000 A 
ATOM      9  C   UNL     1       0.068  10.366  20.356  0.00  0.00    +0.000 A 
ATOM     10 CL   UNL     1      -1.013  11.696  20.483  0.00  0.00    +0.000 Cl
ATOM     11  C   UNL     1       0.634  10.053  19.125  0.00  0.00    +0.000 A 
ATOM     12  C   UNL     1       1.477   8.946  19.014  0.00  0.00    +0.000 A 
ENDBRANCH   4   6
BRANCH   1  13
ATOM     13  C   UNL     1       3.122   3.366  20.321  0.00  0.00    +0.000 C 
ATOM     14  C   UNL     1       1.677   2.800  20.312  0.00  0.00    +0.000 C 
ATOM     15  C   UNL     1       1.186   2.499  18.900  0.00  0.00    +0.000 C 
ATOM     16  C   UNL     1       2.109   1.520  18.181  0.00  0.00    +0.000 C 
ATOM     17  C   UNL     1       3.572   1.951  18.248  0.00  0.00    +0.000 C 
ATOM     18  C   UNL     1       3.992   2.250  19.686  0.00  0.00    +0.000 C 
ENDBRANCH   1  13
BRANCH   1  19
ATOM     19  C   UNL     1       4.657   5.246  19.510  0.00  0.00    +0.000 C 
BRANCH  19  21
ATOM     20  O   UNL     1       6.469   4.208  18.366  0.00  0.00    +0.000 OA
ATOM     21  C   UNL     1       5.470   4.918  18.240  0.00  0.00    +0.000 C 
ATOM     22  N   UNL     1       5.012   5.411  17.028  0.00  0.00    +0.000 N 
ATOM     23  H   UNL     1       4.333   6.161  17.070  0.00  0.00    +0.000 HD
BRANCH  22  24
ATOM     24  C   UNL     1       5.539   5.053  15.753  0.00  0.00    +0.000 A 
ATOM     25  C   UNL     1       4.840   4.284  14.810  0.00  0.00    +0.000 A 
ATOM     26  C   UNL     1       5.414   3.962  13.576  0.00  0.00    +0.000 A 
ATOM     27  F   UNL     1       4.719   3.230  12.696  0.00  0.00    +0.000 F 
ATOM     28  C   UNL     1       6.687   4.390  13.245  0.00  0.00    +0.000 A 
ATOM     29  C   UNL     1       7.375   5.167  14.166  0.00  0.00    +0.000 A 
ATOM     30  F   UNL     1       8.609   5.593  13.864  0.00  0.00    +0.000 F 
ATOM     31  C   UNL     1       6.815   5.509  15.409  0.00  0.00    +0.000 A 
ENDBRANCH  22  24
ENDBRANCH  19  21
ENDBRANCH   1  19
TORSDOF 5
ENDMDL
MODEL 5
REMARK VINA RESULT:      -7.9      1.335      2.062
REMARK  Name = 
REMARK  5 active torsions:
REMARK  status: ('A' for Active; 'I' for Inactive)
REMARK    1  A    between atoms: C_2  and  C_3
REMARK    2  A    between atoms: C_3  and  N_4
REMARK    3  A    between atoms: N_4  and  C_15
REMARK    4  A    between atoms: N_7  and  C_8
REMARK    5  A    between atoms: N_21  and  C_22
REMARK                            x       y       z     vdW  Elec       q    Type
REMARK                         _______ _______ _______ _____ _____    ______ ____
ROOT
ATOM      1  N   UNL     1       3.535   5.957  18.479  0.00  0.00    +0.000 N 
ATOM      2  C   UNL     1       2.561   6.962  18.759  0.00  0.00    +0.000 C 
ATOM      3  O   UNL     1       1.643   6.781  19.553  0.00  0.00    +0.000 OA
ATOM      4  N   UNL     1       2.740   8.153  18.086  0.00  0.00    +0.000 N 
ATOM      5  H   UNL     1       3.594   8.289  17.576  0.00  0.00    +0.000 HD
ENDROOT
BRANCH   4   6
ATOM      6  C   UNL     1       1.940   9.317  18.144  0.00  0.00    +0.000 A 
ATOM      7  C   UNL     1       2.409  10.604  18.415  0.00  0.00    +0.000 A 
ATOM      8  C   UNL     1       1.510  11.675  18.525  0.00  0.00    +0.000 A 
ATOM      9  C   UNL     1       0.144  11.463  18.355  0.00  0.00    +0.000 A 
ATOM     10 CL   UNL     1      -0.962  12.765  18.539  0.00  0.00    +0.000 Cl
ATOM     11  C   UNL     1      -0.332  10.193  18.048  0.00  0.00    +0.000 A 
ATOM     12  C   UNL     1       0.563   9.127  17.942  0.00  0.00    +0.000 A 
ENDBRANCH   4   6
BRANCH   1  13
ATOM     13  C   UNL     1       3.587   4.826  19.482  0.00  0.00    +0.000 C 
ATOM     14  C   UNL     1       2.218   4.181  19.828  0.00  0.00    +0.000 C 
ATOM     15  C   UNL     1       1.631   3.411  18.649  0.00  0.00    +0.000 C 
ATOM     16  C   UNL     1       2.583   2.324  18.159  0.00  0.00    +0.000 C 
ATOM     17  C   UNL     1       3.990   2.860  17.907  0.00  0.00    +0.000 C 
ATOM     18  C   UNL     1       4.509   3.632  19.120  0.00  0.00    +0.000 C 
ENDBRANCH   1  13
BRANCH   1  19
ATOM     19  C   UNL     1       4.806   6.346  17.825  0.00  0.00    +0.000 C 
BRANCH  19  21
ATOM     20  O   UNL     1       4.787   7.038  15.546  0.00  0.00    +0.000 OA
ATOM     21  C   UNL     1       5.075   6.125  16.321  0.00  0.00    +0.000 C 
ATOM     22  N   UNL     1       5.655   4.927  15.933  0.00  0.00    +0.000 N 
ATOM     23  H   UNL     1       5.632   4.171  16.606  0.00  0.00    +0.000 HD
BRANCH  22  24
ATOM     24  C   UNL     1       6.130   4.642  14.620  0.00  0.00    +0.000 A 
ATOM     25  C   UNL     1       5.527   3.714  13.758  0.00  0.00    +0.000 A 
ATOM     26  C   UNL     1       6.043   3.475  12.481  0.00  0.00    +0.000 A 
ATOM     27  F   UNL     1       5.441   2.585  11.681  0.00  0.00    +0.000 F 
ATOM     28  C   UNL     1       7.164   4.146  12.025  0.00  0.00    +0.000 A 
ATOM     29  C   UNL     1       7.753   5.080  12.866  0.00  0.00    +0.000 A 
ATOM     30  F   UNL     1       8.839   5.741  12.442  0.00  0.00    +0.000 F 
ATOM     31  C   UNL     1       7.246   5.341  14.150  0.00  0.00    +0.000 A 
ENDBRANCH  22  24
ENDBRANCH  19  21
ENDBRANCH   1  19
TORSDOF 5
ENDMDL
MODEL 6
REMARK VINA RESULT:      -7.9      1.202      2.462
REMARK  Name = 
REMARK  5 active torsions:
REMARK  status: ('A' for Active; 'I' for Inactive)
REMARK    1  A    between atoms: C_2  and  C_3
REMARK    2  A    between atoms: C_3  and  N_4
REMARK    3  A    between atoms: N_4  and  C_15
REMARK    4  A    between atoms: N_7  and  C_8
REMARK    5  A    between atoms: N_21  and  C_22
REMARK                            x       y       z     vdW  Elec       q    Type
REMARK                         _______ _______ _______ _____ _____    ______ ____
ROOT
ATOM      1  N   UNL     1       3.239   4.156  18.046  0.00  0.00    +0.000 N 
ATOM      2  C   UNL     1       2.322   5.208  18.350  0.00  0.00    +0.000 C 
ATOM      3  O   UNL     1       1.132   4.999  18.562  0.00  0.00    +0.000 OA
ATOM      4  N   UNL     1       2.879   6.469  18.406  0.00  0.00    +0.000 N 
ATOM      5  H   UNL     1       3.879   6.552  18.380  0.00  0.00    +0.000 HD
ENDROOT
BRANCH   4   6
ATOM      6  C   UNL     1       2.231   7.698  18.668  0.00  0.00    +0.000 A 
ATOM      7  C   UNL     1       2.042   8.723  17.738  0.00  0.00    +0.000 A 
ATOM      8  C   UNL     1       1.454   9.935  18.132  0.00  0.00    +0.000 A 
ATOM      9  C   UNL     1       1.045  10.118  19.451  0.00  0.00    +0.000 A 
ATOM     10 CL   UNL     1       0.369  11.619  19.945  0.00  0.00    +0.000 Cl
ATOM     11  C   UNL     1       1.193   9.092  20.377  0.00  0.00    +0.000 A 
ATOM     12  C   UNL     1       1.782   7.888  19.985  0.00  0.00    +0.000 A 
ENDBRANCH   4   6
BRANCH   1  13
ATOM     13  C   UNL     1       2.740   2.766  18.372  0.00  0.00    +0.000 C 
ATOM     14  C   UNL     1       3.842   1.728  18.714  0.00  0.00    +0.000 C 
ATOM     15  C   UNL     1       4.530   2.036  20.040  0.00  0.00    +0.000 C 
ATOM     16  C   UNL     1       3.529   2.099  21.190  0.00  0.00    +0.000 C 
ATOM     17  C   UNL     1       2.349   3.014  20.879  0.00  0.00    +0.000 C 
ATOM     18  C   UNL     1       1.718   2.660  19.533  0.00  0.00    +0.000 C 
ENDBRANCH   1  13
BRANCH   1  19
ATOM     19  C   UNL     1       4.693   4.407  18.176  0.00  0.00    +0.000 C 
BRANCH  19  21
ATOM     20  O   UNL     1       6.845   4.137  17.191  0.00  0.00    +0.000 OA
ATOM     21  C   UNL     1       5.657   4.379  16.970  0.00  0.00    +0.000 C 
ATOM     22  N   UNL     1       5.127   4.593  15.708  0.00  0.00    +0.000 N 
ATOM     23  H   UNL     1       4.204   5.008  15.666  0.00  0.00    +0.000 HD
BRANCH  22  24
ATOM     24  C   UNL     1       5.842   4.423  14.486  0.00  0.00    +0.000 A 
ATOM     25  C   UNL     1       5.467   3.514  13.485  0.00  0.00    +0.000 A 
ATOM     26  C   UNL     1       6.212   3.389  12.309  0.00  0.00    +0.000 A 
ATOM     27  F   UNL     1       5.825   2.516  11.372  0.00  0.00    +0.000 F 
ATOM     28  C   UNL     1       7.343   4.158  12.094  0.00  0.00    +0.000 A 
ATOM     29  C   UNL     1       7.707   5.073  13.072  0.00  0.00    +0.000 A 
ATOM     30  F   UNL     1       8.798   5.827  12.881  0.00  0.00    +0.000 F 
ATOM     31  C   UNL     1       6.967   5.219  14.258  0.00  0.00    +0.000 A 
ENDBRANCH  22  24
ENDBRANCH  19  21
ENDBRANCH   1  19
TORSDOF 5
ENDMDL
MODEL 7
REMARK VINA RESULT:      -7.8      4.593      8.129
REMARK  Name = 
REMARK  5 active torsions:
REMARK  status: ('A' for Active; 'I' for Inactive)
REMARK    1  A    between atoms: C_2  and  C_3
REMARK    2  A    between atoms: C_3  and  N_4
REMARK    3  A    between atoms: N_4  and  C_15
REMARK    4  A    between atoms: N_7  and  C_8
REMARK    5  A    between atoms: N_21  and  C_22
REMARK                            x       y       z     vdW  Elec       q    Type
REMARK                         _______ _______ _______ _____ _____    ______ ____
ROOT
ATOM      1  N   UNL     1       3.048   4.670  18.777  0.00  0.00    +0.000 N 
ATOM      2  C   UNL     1       3.585   4.265  17.517  0.00  0.00    +0.000 C 
ATOM      3  O   UNL     1       3.078   3.374  16.845  0.00  0.00    +0.000 OA
ATOM      4  N   UNL     1       4.702   4.965  17.108  0.00  0.00    +0.000 N 
ATOM      5  H   UNL     1       4.971   5.782  17.626  0.00  0.00    +0.000 HD
ENDROOT
BRANCH   4   6
ATOM      6  C   UNL     1       5.459   4.787  15.927  0.00  0.00    +0.000 A 
ATOM      7  C   UNL     1       6.785   5.188  15.752  0.00  0.00    +0.000 A 
ATOM      8  C   UNL     1       7.412   5.031  14.507  0.00  0.00    +0.000 A 
ATOM      9  C   UNL     1       6.718   4.465  13.440  0.00  0.00    +0.000 A 
ATOM     10 CL   UNL     1       7.470   4.317  11.902  0.00  0.00    +0.000 Cl
ATOM     11  C   UNL     1       5.410   4.028  13.612  0.00  0.00    +0.000 A 
ATOM     12  C   UNL     1       4.785   4.188  14.850  0.00  0.00    +0.000 A 
ENDBRANCH   4   6
BRANCH   1  13
ATOM     13  C   UNL     1       1.633   4.206  19.042  0.00  0.00    +0.000 C 
ATOM     14  C   UNL     1       1.384   2.686  18.845  0.00  0.00    +0.000 C 
ATOM     15  C   UNL     1       2.097   1.846  19.900  0.00  0.00    +0.000 C 
ATOM     16  C   UNL     1       1.675   2.242  21.312  0.00  0.00    +0.000 C 
ATOM     17  C   UNL     1       1.781   3.746  21.545  0.00  0.00    +0.000 C 
ATOM     18  C   UNL     1       1.059   4.526  20.447  0.00  0.00    +0.000 C 
ENDBRANCH   1  13
BRANCH   1  19
ATOM     19  C   UNL     1       3.457   5.972  19.352  0.00  0.00    +0.000 C 
BRANCH  19  21
ATOM     20  O   UNL     1       2.167   7.645  18.252  0.00  0.00    +0.000 OA
ATOM     21  C   UNL     1       2.540   7.214  19.345  0.00  0.00    +0.000 C 
ATOM     22  N   UNL     1       2.162   7.751  20.565  0.00  0.00    +0.000 N 
ATOM     23  H   UNL     1       2.703   7.470  21.373  0.00  0.00    +0.000 HD
BRANCH  22  24
ATOM     24  C   UNL     1       1.184   8.774  20.735  0.00  0.00    +0.000 A 
ATOM     25  C   UNL     1       0.774   9.637  19.707  0.00  0.00    +0.000 A 
ATOM     26  C   UNL     1      -0.188  10.626  19.938  0.00  0.00    +0.000 A 
ATOM     27  F   UNL     1      -0.561  11.430  18.935  0.00  0.00    +0.000 F 
ATOM     28  C   UNL     1      -0.766  10.784  21.185  0.00  0.00    +0.000 A 
ATOM     29  C   UNL     1      -0.378   9.921  22.200  0.00  0.00    +0.000 A 
ATOM     30  F   UNL     1      -0.928  10.058  23.414  0.00  0.00    +0.000 F 
ATOM     31  C   UNL     1       0.581   8.916  21.987  0.00  0.00    +0.000 A 
ENDBRANCH  22  24
ENDBRANCH  19  21
ENDBRANCH   1  19
TORSDOF 5
ENDMDL
MODEL 8
REMARK VINA RESULT:      -7.7      4.594      8.140
REMARK  Name = 
REMARK  5 active torsions:
REMARK  status: ('A' for Active; 'I' for Inactive)
REMARK    1  A    between atoms: C_2  and  C_3
REMARK    2  A    between atoms: C_3  and  N_4
REMARK    3  A    between atoms: N_4  and  C_15
REMARK    4  A    between atoms: N_7  and  C_8
REMARK    5  A    between atoms: N_21  and  C_22
REMARK                            x       y       z     vdW  Elec       q    Type
REMARK                         _______ _______ _______ _____ _____    ______ ____
ROOT
ATOM      1  N   UNL     1       3.045   4.726  18.775  0.00  0.00    +0.000 N 
ATOM      2  C   UNL     1       3.581   4.296  17.523  0.00  0.00    +0.000 C 
ATOM      3  O   UNL     1       3.073   3.390  16.871  0.00  0.00    +0.000 OA
ATOM      4  N   UNL     1       4.695   4.988  17.097  0.00  0.00    +0.000 N 
ATOM      5  H   UNL     1       4.964   5.816  17.597  0.00  0.00    +0.000 HD
ENDROOT
BRANCH   4   6
ATOM      6  C   UNL     1       5.450   4.787  15.918  0.00  0.00    +0.000 A 
ATOM      7  C   UNL     1       6.805   5.087  15.769  0.00  0.00    +0.000 A 
ATOM      8  C   UNL     1       7.433   4.919  14.525  0.00  0.00    +0.000 A 
ATOM      9  C   UNL     1       6.710   4.442  13.435  0.00  0.00    +0.000 A 
ATOM     10 CL   UNL     1       7.466   4.282  11.900  0.00  0.00    +0.000 Cl
ATOM     11  C   UNL     1       5.369   4.104  13.581  0.00  0.00    +0.000 A 
ATOM     12  C   UNL     1       4.744   4.275  14.817  0.00  0.00    +0.000 A 
ENDBRANCH   4   6
BRANCH   1  13
ATOM     13  C   UNL     1       1.631   4.265  19.052  0.00  0.00    +0.000 C 
ATOM     14  C   UNL     1       1.373   2.749  18.842  0.00  0.00    +0.000 C 
ATOM     15  C   UNL     1       2.095   1.894  19.878  0.00  0.00    +0.000 C 
ATOM     16  C   UNL     1       1.693   2.276  21.300  0.00  0.00    +0.000 C 
ATOM     17  C   UNL     1       1.809   3.777  21.549  0.00  0.00    +0.000 C 
ATOM     18  C   UNL     1       1.077   4.572  20.469  0.00  0.00    +0.000 C 
ENDBRANCH   1  13
BRANCH   1  19
ATOM     19  C   UNL     1       3.453   6.040  19.322  0.00  0.00    +0.000 C 
BRANCH  19  21
ATOM     20  O   UNL     1       2.083   7.687  18.282  0.00  0.00    +0.000 OA
ATOM     21  C   UNL     1       2.509   7.261  19.356  0.00  0.00    +0.000 C 
ATOM     22  N   UNL     1       2.167   7.785  20.593  0.00  0.00    +0.000 N 
ATOM     23  H   UNL     1       2.746   7.514  21.378  0.00  0.00    +0.000 HD
BRANCH  22  24
ATOM     24  C   UNL     1       1.174   8.785  20.806  0.00  0.00    +0.000 A 
ATOM     25  C   UNL     1       0.508   8.974  22.026  0.00  0.00    +0.000 A 
ATOM     26  C   UNL     1      -0.462   9.971  22.172  0.00  0.00    +0.000 A 
ATOM     27  F   UNL     1      -1.076  10.127  23.351  0.00  0.00    +0.000 F 
ATOM     28  C   UNL     1      -0.795  10.803  21.118  0.00  0.00    +0.000 A 
ATOM     29  C   UNL     1      -0.125  10.634  19.914  0.00  0.00    +0.000 A 
ATOM     30  F   UNL     1      -0.433  11.432  18.883  0.00  0.00    +0.000 F 
ATOM     31  C   UNL     1       0.857   9.643  19.749  0.00  0.00    +0.000 A 
ENDBRANCH  22  24
ENDBRANCH  19  21
ENDBRANCH   1  19
TORSDOF 5
ENDMDL
MODEL 9
REMARK VINA RESULT:      -7.6      1.239      1.338
REMARK  Name = 
REMARK  5 active torsions:
REMARK  status: ('A' for Active; 'I' for Inactive)
REMARK    1  A    between atoms: C_2  and  C_3
REMARK    2  A    between atoms: C_3  and  N_4
REMARK    3  A    between atoms: N_4  and  C_15
REMARK    4  A    between atoms: N_7  and  C_8
REMARK    5  A    between atoms: N_21  and  C_22
REMARK                            x       y       z     vdW  Elec       q    Type
REMARK                         _______ _______ _______ _____ _____    ______ ____
ROOT
ATOM      1  N   UNL     1       3.444   5.863  18.500  0.00  0.00    +0.000 N 
ATOM      2  C   UNL     1       2.461   6.850  18.812  0.00  0.00    +0.000 C 
ATOM      3  O   UNL     1       1.522   6.624  19.569  0.00  0.00    +0.000 OA
ATOM      4  N   UNL     1       2.656   8.078  18.213  0.00  0.00    +0.000 N 
ATOM      5  H   UNL     1       3.523   8.244  17.735  0.00  0.00    +0.000 HD
ENDROOT
BRANCH   4   6
ATOM      6  C   UNL     1       1.853   9.237  18.317  0.00  0.00    +0.000 A 
ATOM      7  C   UNL     1       0.462   9.244  18.435  0.00  0.00    +0.000 A 
ATOM      8  C   UNL     1      -0.240  10.459  18.451  0.00  0.00    +0.000 A 
ATOM      9  C   UNL     1       0.449  11.666  18.358  0.00  0.00    +0.000 A 
ATOM     10 CL   UNL     1      -0.413  13.153  18.328  0.00  0.00    +0.000 Cl
ATOM     11  C   UNL     1       1.837  11.673  18.278  0.00  0.00    +0.000 A 
ATOM     12  C   UNL     1       2.534  10.464  18.258  0.00  0.00    +0.000 A 
ENDBRANCH   4   6
BRANCH   1  13
ATOM     13  C   UNL     1       3.470   4.676  19.436  0.00  0.00    +0.000 C 
ATOM     14  C   UNL     1       2.088   4.037  19.739  0.00  0.00    +0.000 C 
ATOM     15  C   UNL     1       1.495   3.345  18.515  0.00  0.00    +0.000 C 
ATOM     16  C   UNL     1       2.432   2.272  17.968  0.00  0.00    +0.000 C 
ATOM     17  C   UNL     1       3.848   2.797  17.754  0.00  0.00    +0.000 C 
ATOM     18  C   UNL     1       4.374   3.488  19.011  0.00  0.00    +0.000 C 
ENDBRANCH   1  13
BRANCH   1  19
ATOM     19  C   UNL     1       4.731   6.290  17.904  0.00  0.00    +0.000 C 
BRANCH  19  21
ATOM     20  O   UNL     1       4.791   7.065  15.653  0.00  0.00    +0.000 OA
ATOM     21  C   UNL     1       5.054   6.124  16.404  0.00  0.00    +0.000 C 
ATOM     22  N   UNL     1       5.651   4.942  15.993  0.00  0.00    +0.000 N 
ATOM     23  H   UNL     1       5.607   4.162  16.637  0.00  0.00    +0.000 HD
BRANCH  22  24
ATOM     24  C   UNL     1       6.174   4.706  14.688  0.00  0.00    +0.000 A 
ATOM     25  C   UNL     1       7.307   5.355  14.174  0.00  0.00    +0.000 A 
ATOM     26  C   UNL     1       7.768   5.084  12.882  0.00  0.00    +0.000 A 
ATOM     27  F   UNL     1       8.855   5.717  12.423  0.00  0.00    +0.000 F 
ATOM     28  C   UNL     1       7.124   4.166  12.071  0.00  0.00    +0.000 A 
ATOM     29  C   UNL     1       6.015   3.507  12.581  0.00  0.00    +0.000 A 
ATOM     30  F   UNL     1       5.379   2.614  11.811  0.00  0.00    +0.000 F 
ATOM     31  C   UNL     1       5.539   3.760  13.879  0.00  0.00    +0.000 A 
ENDBRANCH  22  24
ENDBRANCH  19  21
ENDBRANCH   1  19
TORSDOF 5
ENDMDL
