MODEL 1
REMARK VINA RESULT:      -8.0      0.000      0.000
REMARK  Name = 
REMARK  4 active torsions:
REMARK  status: ('A' for Active; 'I' for Inactive)
REMARK    1  A    between atoms: O_1  and  C_2
REMARK    2  A    between atoms: C_2  and  C_3
REMARK    3  A    between atoms: C_2  and  C_23
REMARK    4  A    between atoms: C_5  and  C_6
REMARK                            x       y       z     vdW  Elec       q    Type
REMARK                         _______ _______ _______ _____ _____    ______ ____
ROOT
ATOM      1  C   UNL     1       4.996   6.475  17.687  0.00  0.00    +0.000 A 
ATOM      2  C   UNL     1       4.159   7.575  17.487  0.00  0.00    +0.000 A 
ATOM      3  C   UNL     1       2.932   7.644  18.135  0.00  0.00    +0.000 A 
ATOM      4  N   UNL     1       2.490   6.644  18.927  0.00  0.00    +0.000 NA
ATOM      5  C   UNL     1       3.248   5.534  19.108  0.00  0.00    +0.000 A 
ATOM      6  C   UNL     1       4.538   5.433  18.528  0.00  0.00    +0.000 A 
ATOM      7  C   UNL     1       5.312   4.279  18.800  0.00  0.00    +0.000 A 
ATOM      8  C   UNL     1       4.793   3.205  19.516  0.00  0.00    +0.000 A 
ATOM      9  C   UNL     1       3.515   3.277  20.054  0.00  0.00    +0.000 A 
ATOM     10  C   UNL     1       2.993   2.190  20.778  0.00  0.00    +0.000 A 
ATOM     11  C   UNL     1       1.742   2.270  21.379  0.00  0.00    +0.000 A 
ATOM     12  C   UNL     1       0.991   3.428  21.253  0.00  0.00    +0.000 A 
ATOM     13  C   UNL     1       1.480   4.501  20.504  0.00  0.00    +0.000 A 
ATOM     14  C   UNL     1       2.748   4.458  19.881  0.00  0.00    +0.000 A 
ENDROOT
BRANCH   3  15
ATOM     15  C   UNL     1       2.093   8.850  18.036  0.00  0.00    +0.000 A 
ATOM     16  C   UNL     1       2.659  10.140  18.046  0.00  0.00    +0.000 A 
ATOM     17  C   UNL     1       1.867  11.283  18.091  0.00  0.00    +0.000 A 
ATOM     18  C   UNL     1       0.480  11.165  18.107  0.00  0.00    +0.000 A 
ATOM     19  C   UNL     1      -0.107   9.904  18.057  0.00  0.00    +0.000 A 
ATOM     20  C   UNL     1       0.689   8.758  18.013  0.00  0.00    +0.000 A 
ENDBRANCH   3  15
BRANCH   1  21
ATOM     21  C   UNL     1       6.323   6.430  16.929  0.00  0.00    +0.000 C 
BRANCH  21  22
ATOM     22  C   UNL     1       6.195   5.852  15.483  0.00  0.00    +0.000 C 
ATOM     23  C   UNL     1       5.240   4.640  15.478  0.00  0.00    +0.000 C 
ATOM     24  C   UNL     1       5.055   4.092  14.064  0.00  0.00    +0.000 C 
ATOM     25  C   UNL     1       6.407   3.814  13.418  0.00  0.00    +0.000 C 
ATOM     26  C   UNL     1       7.320   5.034  13.491  0.00  0.00    +0.000 C 
ATOM     27  N   UNL     1       7.493   5.466  14.877  0.00  0.00    +0.000 NA
ATOM     28  H   UNL     1       8.126   6.264  14.904  0.00  0.00    +0.000 HD
ENDBRANCH  21  22
BRANCH  21  29
ATOM     29  O   UNL     1       6.953   7.716  16.890  0.00  0.00    +0.000 OA
ATOM     30  H   UNL     1       7.785   7.645  17.392  0.00  0.00    +0.000 HD
ENDBRANCH  21  29
ENDBRANCH   1  21
TORSDOF 4
ENDMDL
MODEL 2
REMARK VINA RESULT:      -7.7      3.109      6.755
REMARK  Name = 
REMARK  4 active torsions:
REMARK  status: ('A' for Active; 'I' for Inactive)
REMARK    1  A    between atoms: O_1  and  C_2
REMARK    2  A    between atoms: C_2  and  C_3
REMARK    3  A    between atoms: C_2  and  C_23
REMARK    4  A    between atoms: C_5  and  C_6
REMARK                            x       y       z     vdW  Elec       q    Type
REMARK                         _______ _______ _______ _____ _____    ______ ____
ROOT
ATOM      1  C   UNL     1       5.856   5.128  18.205  0.00  0.00    +0.000 A 
ATOM      2  C   UNL     1       6.585   6.260  18.577  0.00  0.00    +0.000 A 
ATOM      3  C   UNL     1       7.299   6.973  17.623  0.00  0.00    +0.000 A 
ATOM      4  N   UNL     1       7.355   6.576  16.334  0.00  0.00    +0.000 NA
ATOM      5  C   UNL     1       6.704   5.454  15.939  0.00  0.00    +0.000 A 
ATOM      6  C   UNL     1       5.904   4.719  16.851  0.00  0.00    +0.000 A 
ATOM      7  C   UNL     1       5.196   3.591  16.371  0.00  0.00    +0.000 A 
ATOM      8  C   UNL     1       5.363   3.125  15.070  0.00  0.00    +0.000 A 
ATOM      9  C   UNL     1       6.177   3.813  14.181  0.00  0.00    +0.000 A 
ATOM     10  C   UNL     1       6.343   3.341  12.867  0.00  0.00    +0.000 A 
ATOM     11  C   UNL     1       7.101   4.053  11.944  0.00  0.00    +0.000 A 
ATOM     12  C   UNL     1       7.714   5.236  12.325  0.00  0.00    +0.000 A 
ATOM     13  C   UNL     1       7.590   5.698  13.637  0.00  0.00    +0.000 A 
ATOM     14  C   UNL     1       6.826   5.003  14.602  0.00  0.00    +0.000 A 
ENDROOT
BRANCH   3  15
ATOM     15  C   UNL     1       7.970   8.237  17.972  0.00  0.00    +0.000 A 
ATOM     16  C   UNL     1       8.838   8.326  19.078  0.00  0.00    +0.000 A 
ATOM     17  C   UNL     1       9.367   9.544  19.493  0.00  0.00    +0.000 A 
ATOM     18  C   UNL     1       9.055  10.708  18.797  0.00  0.00    +0.000 A 
ATOM     19  C   UNL     1       8.232  10.645  17.677  0.00  0.00    +0.000 A 
ATOM     20  C   UNL     1       7.701   9.422  17.261  0.00  0.00    +0.000 A 
ENDBRANCH   3  15
BRANCH   1  21
ATOM     21  C   UNL     1       5.111   4.359  19.295  0.00  0.00    +0.000 C 
BRANCH  21  22
ATOM     22  C   UNL     1       3.556   4.487  19.196  0.00  0.00    +0.000 C 
ATOM     23  C   UNL     1       2.994   5.130  20.481  0.00  0.00    +0.000 C 
ATOM     24  C   UNL     1       1.481   5.317  20.385  0.00  0.00    +0.000 C 
ATOM     25  C   UNL     1       0.803   4.006  20.005  0.00  0.00    +0.000 C 
ATOM     26  C   UNL     1       1.429   3.399  18.753  0.00  0.00    +0.000 C 
ATOM     27  N   UNL     1       2.865   3.198  18.941  0.00  0.00    +0.000 NA
ATOM     28  H   UNL     1       3.257   2.769  18.104  0.00  0.00    +0.000 HD
ENDBRANCH  21  22
BRANCH  21  29
ATOM     29  O   UNL     1       5.489   2.977  19.320  0.00  0.00    +0.000 OA
ATOM     30  H   UNL     1       4.951   2.542  20.007  0.00  0.00    +0.000 HD
ENDBRANCH  21  29
ENDBRANCH   1  21
TORSDOF 4
ENDMDL
MODEL 3
REMARK VINA RESULT:      -7.6      4.422      9.918
REMARK  Name = 
REMARK  4 active torsions:
REMARK  status: ('A' for Active; 'I' for Inactive)
REMARK    1  A    between atoms: O_1  and  C_2
REMARK    2  A    between atoms: C_2  and  C_3
REMARK    3  A    between atoms: C_2  and  C_23
REMARK    4  A    between atoms: C_5  and  C_6
REMARK                            x       y       z     vdW  Elec       q    Type
REMARK                         _______ _______ _______ _____ _____    ______ ____
ROOT
ATOM      1  C   UNL     1      -0.167  10.749  20.869  0.00  0.00    +0.000 A 
ATOM      2  C   UNL     1       0.805   9.781  20.603  0.00  0.00    +0.000 A 
ATOM      3  C   UNL     1       0.841   9.152  19.365  0.00  0.00    +0.000 A 
ATOM      4  N   UNL     1      -0.075   9.412  18.409  0.00  0.00    +0.000 NA
ATOM      5  C   UNL     1      -1.066  10.308  18.642  0.00  0.00    +0.000 A 
ATOM      6  C   UNL     1      -1.119  11.032  19.861  0.00  0.00    +0.000 A 
ATOM      7  C   UNL     1      -2.139  12.000  20.027  0.00  0.00    +0.000 A 
ATOM      8  C   UNL     1      -3.147  12.167  19.083  0.00  0.00    +0.000 A 
ATOM      9  C   UNL     1      -3.128  11.433  17.904  0.00  0.00    +0.000 A 
ATOM     10  C   UNL     1      -4.147  11.605  16.950  0.00  0.00    +0.000 A 
ATOM     11  C   UNL     1      -4.109  10.928  15.737  0.00  0.00    +0.000 A 
ATOM     12  C   UNL     1      -3.061  10.061  15.465  0.00  0.00    +0.000 A 
ATOM     13  C   UNL     1      -2.062   9.851  16.419  0.00  0.00    +0.000 A 
ATOM     14  C   UNL     1      -2.066  10.523  17.662  0.00  0.00    +0.000 A 
ENDROOT
BRANCH   3  15
ATOM     15  C   UNL     1       1.931   8.222  19.023  0.00  0.00    +0.000 A 
ATOM     16  C   UNL     1       2.676   8.370  17.837  0.00  0.00    +0.000 A 
ATOM     17  C   UNL     1       3.612   7.420  17.441  0.00  0.00    +0.000 A 
ATOM     18  C   UNL     1       3.843   6.301  18.237  0.00  0.00    +0.000 A 
ATOM     19  C   UNL     1       3.151   6.150  19.435  0.00  0.00    +0.000 A 
ATOM     20  C   UNL     1       2.211   7.104  19.831  0.00  0.00    +0.000 A 
ENDBRANCH   3  15
BRANCH   1  21
ATOM     21  C   UNL     1      -0.185  11.392  22.255  0.00  0.00    +0.000 C 
BRANCH  21  22
ATOM     22  C   UNL     1      -1.448  12.277  22.515  0.00  0.00    +0.000 C 
ATOM     23  C   UNL     1      -1.024  13.662  23.046  0.00  0.00    +0.000 C 
ATOM     24  C   UNL     1      -2.239  14.565  23.256  0.00  0.00    +0.000 C 
ATOM     25  C   UNL     1      -3.282  13.866  24.119  0.00  0.00    +0.000 C 
ATOM     26  C   UNL     1      -3.628  12.486  23.566  0.00  0.00    +0.000 C 
ATOM     27  N   UNL     1      -2.425  11.663  23.447  0.00  0.00    +0.000 NA
ATOM     28  H   UNL     1      -2.683  10.739  23.101  0.00  0.00    +0.000 HD
ENDBRANCH  21  22
BRANCH  21  29
ATOM     29  O   UNL     1      -0.049  10.414  23.293  0.00  0.00    +0.000 OA
ATOM     30  H   UNL     1       0.532   9.711  22.953  0.00  0.00    +0.000 HD
ENDBRANCH  21  29
ENDBRANCH   1  21
TORSDOF 4
ENDMDL
MODEL 4
REMARK VINA RESULT:      -7.4      7.989     10.566
REMARK  Name = 
REMARK  4 active torsions:
REMARK  status: ('A' for Active; 'I' for Inactive)
REMARK    1  A    between atoms: O_1  and  C_2
REMARK    2  A    between atoms: C_2  and  C_3
REMARK    3  A    between atoms: C_2  and  C_23
REMARK    4  A    between atoms: C_5  and  C_6
REMARK                            x       y       z     vdW  Elec       q    Type
REMARK                         _______ _______ _______ _____ _____    ______ ____
ROOT
ATOM      1  C   UNL     1      -0.821  12.840  19.665  0.00  0.00    +0.000 A 
ATOM      2  C   UNL     1      -0.387  13.900  18.865  0.00  0.00    +0.000 A 
ATOM      3  C   UNL     1      -0.456  15.204  19.338  0.00  0.00    +0.000 A 
ATOM      4  N   UNL     1      -0.984  15.493  20.546  0.00  0.00    +0.000 NA
ATOM      5  C   UNL     1      -1.464  14.500  21.335  0.00  0.00    +0.000 A 
ATOM      6  C   UNL     1      -1.361  13.143  20.937  0.00  0.00    +0.000 A 
ATOM      7  C   UNL     1      -1.822  12.142  21.826  0.00  0.00    +0.000 A 
ATOM      8  C   UNL     1      -2.474  12.464  23.012  0.00  0.00    +0.000 A 
ATOM      9  C   UNL     1      -2.617  13.792  23.392  0.00  0.00    +0.000 A 
ATOM     10  C   UNL     1      -3.276  14.116  24.591  0.00  0.00    +0.000 A 
ATOM     11  C   UNL     1      -3.370  15.435  25.019  0.00  0.00    +0.000 A 
ATOM     12  C   UNL     1      -2.822  16.449  24.249  0.00  0.00    +0.000 A 
ATOM     13  C   UNL     1      -2.198  16.147  23.036  0.00  0.00    +0.000 A 
ATOM     14  C   UNL     1      -2.081  14.818  22.570  0.00  0.00    +0.000 A 
ENDROOT
BRANCH   3  15
ATOM     15  C   UNL     1       0.111  16.320  18.562  0.00  0.00    +0.000 A 
ATOM     16  C   UNL     1      -0.717  17.261  17.919  0.00  0.00    +0.000 A 
ATOM     17  C   UNL     1      -0.193  18.234  17.075  0.00  0.00    +0.000 A 
ATOM     18  C   UNL     1       1.181  18.305  16.865  0.00  0.00    +0.000 A 
ATOM     19  C   UNL     1       2.026  17.413  17.519  0.00  0.00    +0.000 A 
ATOM     20  C   UNL     1       1.500  16.436  18.366  0.00  0.00    +0.000 A 
ENDBRANCH   3  15
BRANCH   1  21
ATOM     21  C   UNL     1      -0.753  11.426  19.089  0.00  0.00    +0.000 C 
BRANCH  21  22
ATOM     22  C   UNL     1      -2.060  10.989  18.352  0.00  0.00    +0.000 C 
ATOM     23  C   UNL     1      -1.710  10.132  17.117  0.00  0.00    +0.000 C 
ATOM     24  C   UNL     1      -2.975   9.647  16.410  0.00  0.00    +0.000 C 
ATOM     25  C   UNL     1      -3.901  10.818  16.105  0.00  0.00    +0.000 C 
ATOM     26  C   UNL     1      -4.175  11.650  17.355  0.00  0.00    +0.000 C 
ATOM     27  N   UNL     1      -2.922  12.125  17.942  0.00  0.00    +0.000 NA
ATOM     28  H   UNL     1      -3.130  12.698  18.759  0.00  0.00    +0.000 HD
ENDBRANCH  21  22
BRANCH  21  29
ATOM     29  O   UNL     1       0.378  11.261  18.224  0.00  0.00    +0.000 OA
ATOM     30  H   UNL     1       0.048  10.896  17.384  0.00  0.00    +0.000 HD
ENDBRANCH  21  29
ENDBRANCH   1  21
TORSDOF 4
ENDMDL
MODEL 5
REMARK VINA RESULT:      -7.4      4.786     10.403
REMARK  Name = 
REMARK  4 active torsions:
REMARK  status: ('A' for Active; 'I' for Inactive)
REMARK    1  A    between atoms: O_1  and  C_2
REMARK    2  A    between atoms: C_2  and  C_3
REMARK    3  A    between atoms: C_2  and  C_23
REMARK    4  A    between atoms: C_5  and  C_6
REMARK                            x       y       z     vdW  Elec       q    Type
REMARK                         _______ _______ _______ _____ _____    ______ ____
ROOT
ATOM      1  C   UNL     1      -1.065  12.501  19.799  0.00  0.00    +0.000 A 
ATOM      2  C   UNL     1      -0.598  11.196  19.626  0.00  0.00    +0.000 A 
ATOM      3  C   UNL     1       0.701  10.974  19.187  0.00  0.00    +0.000 A 
ATOM      4  N   UNL     1       1.527  11.993  18.868  0.00  0.00    +0.000 NA
ATOM      5  C   UNL     1       1.099  13.275  18.973  0.00  0.00    +0.000 A 
ATOM      6  C   UNL     1      -0.193  13.569  19.479  0.00  0.00    +0.000 A 
ATOM      7  C   UNL     1      -0.567  14.927  19.626  0.00  0.00    +0.000 A 
ATOM      8  C   UNL     1       0.249  15.961  19.178  0.00  0.00    +0.000 A 
ATOM      9  C   UNL     1       1.499  15.681  18.643  0.00  0.00    +0.000 A 
ATOM     10  C   UNL     1       2.323  16.728  18.192  0.00  0.00    +0.000 A 
ATOM     11  C   UNL     1       3.604  16.472  17.715  0.00  0.00    +0.000 A 
ATOM     12  C   UNL     1       4.073  15.168  17.668  0.00  0.00    +0.000 A 
ATOM     13  C   UNL     1       3.251  14.114  18.076  0.00  0.00    +0.000 A 
ATOM     14  C   UNL     1       1.946  14.336  18.570  0.00  0.00    +0.000 A 
ENDROOT
BRANCH   3  15
ATOM     15  C   UNL     1       1.251   9.609  19.118  0.00  0.00    +0.000 A 
ATOM     16  C   UNL     1       1.280   8.772  20.251  0.00  0.00    +0.000 A 
ATOM     17  C   UNL     1       1.920   7.537  20.227  0.00  0.00    +0.000 A 
ATOM     18  C   UNL     1       2.533   7.096  19.059  0.00  0.00    +0.000 A 
ATOM     19  C   UNL     1       2.485   7.884  17.913  0.00  0.00    +0.000 A 
ATOM     20  C   UNL     1       1.844   9.124  17.937  0.00  0.00    +0.000 A 
ENDBRANCH   3  15
BRANCH   1  21
ATOM     21  C   UNL     1      -2.510  12.696  20.256  0.00  0.00    +0.000 C 
BRANCH  21  22
ATOM     22  C   UNL     1      -3.558  12.021  19.313  0.00  0.00    +0.000 C 
ATOM     23  C   UNL     1      -2.947  11.801  17.913  0.00  0.00    +0.000 C 
ATOM     24  C   UNL     1      -3.935  11.091  16.989  0.00  0.00    +0.000 C 
ATOM     25  C   UNL     1      -5.272  11.822  16.971  0.00  0.00    +0.000 C 
ATOM     26  C   UNL     1      -5.802  12.046  18.384  0.00  0.00    +0.000 C 
ATOM     27  N   UNL     1      -4.827  12.779  19.190  0.00  0.00    +0.000 NA
ATOM     28  H   UNL     1      -5.213  12.939  20.120  0.00  0.00    +0.000 HD
ENDBRANCH  21  22
BRANCH  21  29
ATOM     29  O   UNL     1      -2.703  12.251  21.604  0.00  0.00    +0.000 OA
ATOM     30  H   UNL     1      -1.862  11.862  21.903  0.00  0.00    +0.000 HD
ENDBRANCH  21  29
ENDBRANCH   1  21
TORSDOF 4
ENDMDL
MODEL 6
REMARK VINA RESULT:      -7.4      4.702     10.682
REMARK  Name = 
REMARK  4 active torsions:
REMARK  status: ('A' for Active; 'I' for Inactive)
REMARK    1  A    between atoms: O_1  and  C_2
REMARK    2  A    between atoms: C_2  and  C_3
REMARK    3  A    between atoms: C_2  and  C_23
REMARK    4  A    between atoms: C_5  and  C_6
REMARK                            x       y       z     vdW  Elec       q    Type
REMARK                         _______ _______ _______ _____ _____    ______ ____
ROOT
ATOM      1  C   UNL     1      -1.096  11.882  19.438  0.00  0.00    +0.000 A 
ATOM      2  C   UNL     1      -0.524  10.619  19.270  0.00  0.00    +0.000 A 
ATOM      3  C   UNL     1       0.825  10.500  18.961  0.00  0.00    +0.000 A 
ATOM      4  N   UNL     1       1.606  11.583  18.766  0.00  0.00    +0.000 NA
ATOM      5  C   UNL     1       1.081  12.829  18.870  0.00  0.00    +0.000 A 
ATOM      6  C   UNL     1      -0.273  13.017  19.247  0.00  0.00    +0.000 A 
ATOM      7  C   UNL     1      -0.753  14.340  19.401  0.00  0.00    +0.000 A 
ATOM      8  C   UNL     1       0.030  15.443  19.077  0.00  0.00    +0.000 A 
ATOM      9  C   UNL     1       1.345  15.268  18.666  0.00  0.00    +0.000 A 
ATOM     10  C   UNL     1       2.136  16.385  18.340  0.00  0.00    +0.000 A 
ATOM     11  C   UNL     1       3.473  16.233  17.991  0.00  0.00    +0.000 A 
ATOM     12  C   UNL     1       4.034  14.966  17.948  0.00  0.00    +0.000 A 
ATOM     13  C   UNL     1       3.250  13.844  18.232  0.00  0.00    +0.000 A 
ATOM     14  C   UNL     1       1.889  13.959  18.594  0.00  0.00    +0.000 A 
ENDROOT
BRANCH   3  15
ATOM     15  C   UNL     1       1.472   9.179  18.903  0.00  0.00    +0.000 A 
ATOM     16  C   UNL     1       1.468   8.310  20.013  0.00  0.00    +0.000 A 
ATOM     17  C   UNL     1       2.192   7.122  20.011  0.00  0.00    +0.000 A 
ATOM     18  C   UNL     1       2.927   6.760  18.886  0.00  0.00    +0.000 A 
ATOM     19  C   UNL     1       2.918   7.579  17.761  0.00  0.00    +0.000 A 
ATOM     20  C   UNL     1       2.191   8.772  17.764  0.00  0.00    +0.000 A 
ENDBRANCH   3  15
BRANCH   1  21
ATOM     21  C   UNL     1      -2.591  11.963  19.748  0.00  0.00    +0.000 C 
BRANCH  21  22
ATOM     22  C   UNL     1      -2.913  12.725  21.073  0.00  0.00    +0.000 C 
ATOM     23  C   UNL     1      -2.061  12.162  22.229  0.00  0.00    +0.000 C 
ATOM     24  C   UNL     1      -2.317  12.929  23.526  0.00  0.00    +0.000 C 
ATOM     25  C   UNL     1      -3.810  12.983  23.829  0.00  0.00    +0.000 C 
ATOM     26  C   UNL     1      -4.601  13.508  22.635  0.00  0.00    +0.000 C 
ATOM     27  N   UNL     1      -4.348  12.691  21.449  0.00  0.00    +0.000 NA
ATOM     28  H   UNL     1      -4.905  13.044  20.672  0.00  0.00    +0.000 HD
ENDBRANCH  21  22
BRANCH  21  29
ATOM     29  O   UNL     1      -3.326  12.537  18.660  0.00  0.00    +0.000 OA
ATOM     30  H   UNL     1      -3.662  11.801  18.118  0.00  0.00    +0.000 HD
ENDBRANCH  21  29
ENDBRANCH   1  21
TORSDOF 4
ENDMDL
MODEL 7
REMARK VINA RESULT:      -7.4      4.341      9.711
REMARK  Name = 
REMARK  4 active torsions:
REMARK  status: ('A' for Active; 'I' for Inactive)
REMARK    1  A    between atoms: O_1  and  C_2
REMARK    2  A    between atoms: C_2  and  C_3
REMARK    3  A    between atoms: C_2  and  C_23
REMARK    4  A    between atoms: C_5  and  C_6
REMARK                            x       y       z     vdW  Elec       q    Type
REMARK                         _______ _______ _______ _____ _____    ______ ____
ROOT
ATOM      1  C   UNL     1      -0.250  10.825  20.841  0.00  0.00    +0.000 A 
ATOM      2  C   UNL     1       0.731   9.864  20.589  0.00  0.00    +0.000 A 
ATOM      3  C   UNL     1       0.779   9.222  19.359  0.00  0.00    +0.000 A 
ATOM      4  N   UNL     1      -0.137   9.462  18.397  0.00  0.00    +0.000 NA
ATOM      5  C   UNL     1      -1.138  10.351  18.617  0.00  0.00    +0.000 A 
ATOM      6  C   UNL     1      -1.202  11.087  19.827  0.00  0.00    +0.000 A 
ATOM      7  C   UNL     1      -2.232  12.047  19.980  0.00  0.00    +0.000 A 
ATOM      8  C   UNL     1      -3.238  12.194  19.030  0.00  0.00    +0.000 A 
ATOM      9  C   UNL     1      -3.208  11.447  17.860  0.00  0.00    +0.000 A 
ATOM     10  C   UNL     1      -4.226  11.598  16.901  0.00  0.00    +0.000 A 
ATOM     11  C   UNL     1      -4.177  10.909  15.695  0.00  0.00    +0.000 A 
ATOM     12  C   UNL     1      -3.120  10.049  15.436  0.00  0.00    +0.000 A 
ATOM     13  C   UNL     1      -2.121   9.859  16.395  0.00  0.00    +0.000 A 
ATOM     14  C   UNL     1      -2.137  10.545  17.631  0.00  0.00    +0.000 A 
ENDROOT
BRANCH   3  15
ATOM     15  C   UNL     1       1.879   8.299  19.030  0.00  0.00    +0.000 A 
ATOM     16  C   UNL     1       2.625   8.440  17.844  0.00  0.00    +0.000 A 
ATOM     17  C   UNL     1       3.572   7.496  17.462  0.00  0.00    +0.000 A 
ATOM     18  C   UNL     1       3.813   6.389  18.271  0.00  0.00    +0.000 A 
ATOM     19  C   UNL     1       3.119   6.244  19.469  0.00  0.00    +0.000 A 
ATOM     20  C   UNL     1       2.168   7.193  19.851  0.00  0.00    +0.000 A 
ENDBRANCH   3  15
BRANCH   1  21
ATOM     21  C   UNL     1      -0.280  11.482  22.220  0.00  0.00    +0.000 C 
BRANCH  21  22
ATOM     22  C   UNL     1      -0.475  13.032  22.168  0.00  0.00    +0.000 C 
ATOM     23  C   UNL     1       0.758  13.700  21.524  0.00  0.00    +0.000 C 
ATOM     24  C   UNL     1       0.567  15.212  21.411  0.00  0.00    +0.000 C 
ATOM     25  C   UNL     1       0.179  15.805  22.761  0.00  0.00    +0.000 C 
ATOM     26  C   UNL     1      -1.018  15.076  23.364  0.00  0.00    +0.000 C 
ATOM     27  N   UNL     1      -0.740  13.646  23.493  0.00  0.00    +0.000 NA
ATOM     28  H   UNL     1      -1.542  13.185  23.921  0.00  0.00    +0.000 HD
ENDBRANCH  21  22
BRANCH  21  29
ATOM     29  O   UNL     1      -1.274  10.891  23.067  0.00  0.00    +0.000 OA
ATOM     30  H   UNL     1      -1.962  11.564  23.218  0.00  0.00    +0.000 HD
ENDBRANCH  21  29
ENDBRANCH   1  21
TORSDOF 4
ENDMDL
MODEL 8
REMARK VINA RESULT:      -7.2      1.996      2.759
REMARK  Name = 
REMARK  4 active torsions:
REMARK  status: ('A' for Active; 'I' for Inactive)
REMARK    1  A    between atoms: O_1  and  C_2
REMARK    2  A    between atoms: C_2  and  C_3
REMARK    3  A    between atoms: C_2  and  C_23
REMARK    4  A    between atoms: C_5  and  C_6
REMARK                            x       y       z     vdW  Elec       q    Type
REMARK                         _______ _______ _______ _____ _____    ______ ____
ROOT
ATOM      1  C   UNL     1       4.233   6.775  17.096  0.00  0.00    +0.000 A 
ATOM      2  C   UNL     1       3.510   7.904  17.490  0.00  0.00    +0.000 A 
ATOM      3  C   UNL     1       2.428   7.772  18.350  0.00  0.00    +0.000 A 
ATOM      4  N   UNL     1       2.011   6.566  18.789  0.00  0.00    +0.000 NA
ATOM      5  C   UNL     1       2.652   5.439  18.391  0.00  0.00    +0.000 A 
ATOM      6  C   UNL     1       3.804   5.511  17.567  0.00  0.00    +0.000 A 
ATOM      7  C   UNL     1       4.472   4.308  17.233  0.00  0.00    +0.000 A 
ATOM      8  C   UNL     1       3.958   3.066  17.592  0.00  0.00    +0.000 A 
ATOM      9  C   UNL     1       2.807   2.982  18.363  0.00  0.00    +0.000 A 
ATOM     10  C   UNL     1       2.291   1.725  18.725  0.00  0.00    +0.000 A 
ATOM     11  C   UNL     1       1.178   1.623  19.552  0.00  0.00    +0.000 A 
ATOM     12  C   UNL     1       0.558   2.773  20.016  0.00  0.00    +0.000 A 
ATOM     13  C   UNL     1       1.036   4.029  19.634  0.00  0.00    +0.000 A 
ATOM     14  C   UNL     1       2.166   4.172  18.797  0.00  0.00    +0.000 A 
ENDROOT
BRANCH   3  15
ATOM     15  C   UNL     1       1.732   8.960  18.875  0.00  0.00    +0.000 A 
ATOM     16  C   UNL     1       1.743  10.184  18.177  0.00  0.00    +0.000 A 
ATOM     17  C   UNL     1       1.206  11.342  18.729  0.00  0.00    +0.000 A 
ATOM     18  C   UNL     1       0.623  11.302  19.992  0.00  0.00    +0.000 A 
ATOM     19  C   UNL     1       0.562  10.098  20.688  0.00  0.00    +0.000 A 
ATOM     20  C   UNL     1       1.102   8.936  20.133  0.00  0.00    +0.000 A 
ENDBRANCH   3  15
BRANCH   1  21
ATOM     21  C   UNL     1       5.397   6.966  16.125  0.00  0.00    +0.000 C 
BRANCH  21  22
ATOM     22  C   UNL     1       6.772   7.182  16.835  0.00  0.00    +0.000 C 
ATOM     23  C   UNL     1       6.877   6.271  18.076  0.00  0.00    +0.000 C 
ATOM     24  C   UNL     1       8.236   6.424  18.757  0.00  0.00    +0.000 C 
ATOM     25  C   UNL     1       8.529   7.892  19.043  0.00  0.00    +0.000 C 
ATOM     26  C   UNL     1       8.369   8.746  17.788  0.00  0.00    +0.000 C 
ATOM     27  N   UNL     1       7.027   8.590  17.227  0.00  0.00    +0.000 NA
ATOM     28  H   UNL     1       6.935   9.188  16.407  0.00  0.00    +0.000 HD
ENDBRANCH  21  22
BRANCH  21  29
ATOM     29  O   UNL     1       5.491   5.881  15.193  0.00  0.00    +0.000 OA
ATOM     30  H   UNL     1       5.654   5.071  15.708  0.00  0.00    +0.000 HD
ENDBRANCH  21  29
ENDBRANCH   1  21
TORSDOF 4
ENDMDL
MODEL 9
REMARK VINA RESULT:      -7.1      5.102     10.755
REMARK  Name = 
REMARK  4 active torsions:
REMARK  status: ('A' for Active; 'I' for Inactive)
REMARK    1  A    between atoms: O_1  and  C_2
REMARK    2  A    between atoms: C_2  and  C_3
REMARK    3  A    between atoms: C_2  and  C_23
REMARK    4  A    between atoms: C_5  and  C_6
REMARK                            x       y       z     vdW  Elec       q    Type
REMARK                         _______ _______ _______ _____ _____    ______ ____
ROOT
ATOM      1  C   UNL     1      -1.343  12.815  20.161  0.00  0.00    +0.000 A 
ATOM      2  C   UNL     1      -0.875  11.508  20.004  0.00  0.00    +0.000 A 
ATOM      3  C   UNL     1       0.386  11.279  19.470  0.00  0.00    +0.000 A 
ATOM      4  N   UNL     1       1.172  12.291  19.043  0.00  0.00    +0.000 NA
ATOM      5  C   UNL     1       0.737  13.572  19.130  0.00  0.00    +0.000 A 
ATOM      6  C   UNL     1      -0.513  13.876  19.726  0.00  0.00    +0.000 A 
ATOM      7  C   UNL     1      -0.891  15.235  19.848  0.00  0.00    +0.000 A 
ATOM      8  C   UNL     1      -0.126  16.257  19.293  0.00  0.00    +0.000 A 
ATOM      9  C   UNL     1       1.080  15.966  18.669  0.00  0.00    +0.000 A 
ATOM     10  C   UNL     1       1.851  17.000  18.110  0.00  0.00    +0.000 A 
ATOM     11  C   UNL     1       3.092  16.736  17.541  0.00  0.00    +0.000 A 
ATOM     12  C   UNL     1       3.572  15.436  17.510  0.00  0.00    +0.000 A 
ATOM     13  C   UNL     1       2.799  14.392  18.027  0.00  0.00    +0.000 A 
ATOM     14  C   UNL     1       1.535  14.623  18.615  0.00  0.00    +0.000 A 
ENDROOT
BRANCH   3  15
ATOM     15  C   UNL     1       0.946   9.917  19.412  0.00  0.00    +0.000 A 
ATOM     16  C   UNL     1       0.978   9.089  20.551  0.00  0.00    +0.000 A 
ATOM     17  C   UNL     1       1.626   7.858  20.539  0.00  0.00    +0.000 A 
ATOM     18  C   UNL     1       2.245   7.412  19.374  0.00  0.00    +0.000 A 
ATOM     19  C   UNL     1       2.194   8.191  18.222  0.00  0.00    +0.000 A 
ATOM     20  C   UNL     1       1.544   9.427  18.236  0.00  0.00    +0.000 A 
ENDBRANCH   3  15
BRANCH   1  21
ATOM     21  C   UNL     1      -2.748  13.016  20.725  0.00  0.00    +0.000 C 
BRANCH  21  22
ATOM     22  C   UNL     1      -3.882  12.777  19.676  0.00  0.00    +0.000 C 
ATOM     23  C   UNL     1      -5.149  12.244  20.376  0.00  0.00    +0.000 C 
ATOM     24  C   UNL     1      -6.290  12.055  19.377  0.00  0.00    +0.000 C 
ATOM     25  C   UNL     1      -5.833  11.204  18.198  0.00  0.00    +0.000 C 
ATOM     26  C   UNL     1      -4.555  11.757  17.576  0.00  0.00    +0.000 C 
ATOM     27  N   UNL     1      -3.495  11.856  18.578  0.00  0.00    +0.000 NA
ATOM     28  H   UNL     1      -2.645  12.202  18.135  0.00  0.00    +0.000 HD
ENDBRANCH  21  22
BRANCH  21  29
ATOM     29  O   UNL     1      -2.974  12.204  21.885  0.00  0.00    +0.000 OA
ATOM     30  H   UNL     1      -2.840  11.277  21.618  0.00  0.00    +0.000 HD
ENDBRANCH  21  29
ENDBRANCH   1  21
TORSDOF 4
ENDMDL
