MODEL 1
REMARK VINA RESULT:      -8.2      0.000      0.000
REMARK  Name = 
REMARK  9 active torsions:
REMARK  status: ('A' for Active; 'I' for Inactive)
REMARK    1  A    between atoms: N_1  and  C_2
REMARK    2  A    between atoms: N_10  and  C_11
REMARK    3  A    between atoms: C_13  and  C_14
REMARK    4  A    between atoms: C_14  and  O_15
REMARK    5  A    between atoms: O_15  and  C_16
REMARK    6  A    between atoms: N_18  and  C_19
REMARK    7  A    between atoms: C_19  and  C_20
REMARK    8  A    between atoms: C_26  and  O_27
REMARK    9  A    between atoms: C_28  and  O_29
REMARK                            x       y       z     vdW  Elec       q    Type
REMARK                         _______ _______ _______ _____ _____    ______ ____
ROOT
ATOM      1  C   UNL     1       4.439   3.300  17.761  0.00  0.00    +0.000 C 
ATOM      2  O   UNL     1       3.197   3.099  17.050  0.00  0.00    +0.000 OA
ATOM      3  C   UNL     1       2.309   2.309  17.883  0.00  0.00    +0.000 C 
ATOM      4  C   UNL     1       3.160   1.787  19.043  0.00  0.00    +0.000 C 
ATOM      5  C   UNL     1       4.242   2.835  19.203  0.00  0.00    +0.000 C 
ENDROOT
BRANCH   1  14
ATOM      6  C   UNL     1       7.202   7.287  17.874  0.00  0.00    +0.000 A 
ATOM      7  N   UNL     1       8.176   6.745  18.641  0.00  0.00    +0.000 NA
ATOM      8  C   UNL     1       8.026   5.470  19.057  0.00  0.00    +0.000 A 
ATOM      9  N   UNL     1       7.000   4.629  18.825  0.00  0.00    +0.000 NA
ATOM     10  C   UNL     1       6.049   5.219  18.086  0.00  0.00    +0.000 A 
ATOM     11  C   UNL     1       6.065   6.511  17.586  0.00  0.00    +0.000 A 
ATOM     12  N   UNL     1       4.917   6.769  16.862  0.00  0.00    +0.000 NA
ATOM     13  C   UNL     1       4.239   5.641  16.897  0.00  0.00    +0.000 A 
ATOM     14  N   UNL     1       4.883   4.673  17.626  0.00  0.00    +0.000 N 
BRANCH   6  15
ATOM     15  N   UNL     1       7.386   8.571  17.389  0.00  0.00    +0.000 N 
ATOM     16  H   UNL     1       8.339   8.900  17.429  0.00  0.00    +0.000 HD
ATOM     17  H   UNL     1       6.625   9.215  17.566  0.00  0.00    +0.000 HD
ENDBRANCH   6  15
ENDBRANCH   1  14
BRANCH   4  18
ATOM     18  O   UNL     1       3.814   0.538  18.697  0.00  0.00    +0.000 OA
ATOM     19  H   UNL     1       3.464   0.217  17.848  0.00  0.00    +0.000 HD
ENDBRANCH   4  18
BRANCH   5  20
ATOM     20  O   UNL     1       5.445   2.282  19.746  0.00  0.00    +0.000 OA
ATOM     21  H   UNL     1       5.968   3.040  20.080  0.00  0.00    +0.000 HD
ENDBRANCH   5  20
BRANCH   3  22
ATOM     22  C   UNL     1       1.107   3.170  18.296  0.00  0.00    +0.000 C 
BRANCH  22  23
ATOM     23  O   UNL     1       1.511   4.406  18.897  0.00  0.00    +0.000 OA
BRANCH  23  24
ATOM     24  C   UNL     1       1.308   4.523  20.236  0.00  0.00    +0.000 C 
ATOM     25  O   UNL     1       1.130   3.604  21.016  0.00  0.00    +0.000 OA
ATOM     26  N   UNL     1       1.152   5.829  20.589  0.00  0.00    +0.000 N 
ATOM     27  H   UNL     1       0.677   5.963  21.468  0.00  0.00    +0.000 HD
BRANCH  26  28
ATOM     28  C   UNL     1       2.239   6.751  20.331  0.00  0.00    +0.000 C 
BRANCH  28  29
ATOM     29  C   UNL     1       1.786   8.052  19.717  0.00  0.00    +0.000 A 
ATOM     30  C   UNL     1       1.061   8.963  20.501  0.00  0.00    +0.000 A 
ATOM     31  C   UNL     1       0.668  10.189  19.967  0.00  0.00    +0.000 A 
ATOM     32  C   UNL     1       1.003  10.522  18.652  0.00  0.00    +0.000 A 
ATOM     33  C   UNL     1       1.733   9.634  17.869  0.00  0.00    +0.000 A 
ATOM     34  C   UNL     1       2.134   8.413  18.405  0.00  0.00    +0.000 A 
ENDBRANCH  28  29
ENDBRANCH  26  28
ENDBRANCH  23  24
ENDBRANCH  22  23
ENDBRANCH   3  22
TORSDOF 9
ENDMDL
MODEL 2
REMARK VINA RESULT:      -7.9      2.841      3.898
REMARK  Name = 
REMARK  9 active torsions:
REMARK  status: ('A' for Active; 'I' for Inactive)
REMARK    1  A    between atoms: N_1  and  C_2
REMARK    2  A    between atoms: N_10  and  C_11
REMARK    3  A    between atoms: C_13  and  C_14
REMARK    4  A    between atoms: C_14  and  O_15
REMARK    5  A    between atoms: O_15  and  C_16
REMARK    6  A    between atoms: N_18  and  C_19
REMARK    7  A    between atoms: C_19  and  C_20
REMARK    8  A    between atoms: C_26  and  O_27
REMARK    9  A    between atoms: C_28  and  O_29
REMARK                            x       y       z     vdW  Elec       q    Type
REMARK                         _______ _______ _______ _____ _____    ______ ____
ROOT
ATOM      1  C   UNL     1       4.485   4.216  17.558  0.00  0.00    +0.000 C 
ATOM      2  O   UNL     1       3.396   5.155  17.422  0.00  0.00    +0.000 OA
ATOM      3  C   UNL     1       2.809   5.379  18.731  0.00  0.00    +0.000 C 
ATOM      4  C   UNL     1       3.411   4.319  19.657  0.00  0.00    +0.000 C 
ATOM      5  C   UNL     1       4.767   4.028  19.048  0.00  0.00    +0.000 C 
ENDROOT
BRANCH   1  14
ATOM      6  C   UNL     1       7.466   5.076  13.829  0.00  0.00    +0.000 A 
ATOM      7  N   UNL     1       6.810   4.279  12.955  0.00  0.00    +0.000 NA
ATOM      8  C   UNL     1       5.724   3.607  13.393  0.00  0.00    +0.000 A 
ATOM      9  N   UNL     1       5.187   3.601  14.628  0.00  0.00    +0.000 NA
ATOM     10  C   UNL     1       5.887   4.383  15.464  0.00  0.00    +0.000 A 
ATOM     11  C   UNL     1       7.013   5.131  15.158  0.00  0.00    +0.000 A 
ATOM     12  N   UNL     1       7.459   5.818  16.270  0.00  0.00    +0.000 NA
ATOM     13  C   UNL     1       6.597   5.516  17.218  0.00  0.00    +0.000 A 
ATOM     14  N   UNL     1       5.627   4.650  16.779  0.00  0.00    +0.000 N 
BRANCH   6  15
ATOM     15  N   UNL     1       8.539   5.818  13.362  0.00  0.00    +0.000 N 
ATOM     16  H   UNL     1       8.882   6.510  14.013  0.00  0.00    +0.000 HD
ATOM     17  H   UNL     1       8.527   6.023  12.371  0.00  0.00    +0.000 HD
ENDBRANCH   6  15
ENDBRANCH   1  14
BRANCH   4  18
ATOM     18  O   UNL     1       2.644   3.087  19.615  0.00  0.00    +0.000 OA
ATOM     19  H   UNL     1       1.865   3.213  19.046  0.00  0.00    +0.000 HD
ENDBRANCH   4  18
BRANCH   5  20
ATOM     20  O   UNL     1       5.208   2.698  19.336  0.00  0.00    +0.000 OA
ATOM     21  H   UNL     1       6.043   2.572  18.840  0.00  0.00    +0.000 HD
ENDBRANCH   5  20
BRANCH   3  22
ATOM     22  C   UNL     1       3.066   6.832  19.156  0.00  0.00    +0.000 C 
BRANCH  22  23
ATOM     23  O   UNL     1       1.906   7.655  18.987  0.00  0.00    +0.000 OA
BRANCH  23  24
ATOM     24  C   UNL     1       2.034   8.718  18.149  0.00  0.00    +0.000 C 
ATOM     25  O   UNL     1       2.703   8.750  17.131  0.00  0.00    +0.000 OA
ATOM     26  N   UNL     1       1.450   9.826  18.682  0.00  0.00    +0.000 N 
ATOM     27  H   UNL     1       1.788  10.695  18.295  0.00  0.00    +0.000 HD
BRANCH  26  28
ATOM     28  C   UNL     1       0.032   9.792  18.968  0.00  0.00    +0.000 C 
BRANCH  28  29
ATOM     29  C   UNL     1      -0.291  10.038  20.421  0.00  0.00    +0.000 A 
ATOM     30  C   UNL     1      -0.153   8.986  21.340  0.00  0.00    +0.000 A 
ATOM     31  C   UNL     1      -0.405   9.200  22.694  0.00  0.00    +0.000 A 
ATOM     32  C   UNL     1      -0.787  10.466  23.145  0.00  0.00    +0.000 A 
ATOM     33  C   UNL     1      -0.914  11.521  22.247  0.00  0.00    +0.000 A 
ATOM     34  C   UNL     1      -0.652  11.309  20.896  0.00  0.00    +0.000 A 
ENDBRANCH  28  29
ENDBRANCH  26  28
ENDBRANCH  23  24
ENDBRANCH  22  23
ENDBRANCH   3  22
TORSDOF 9
ENDMDL
MODEL 3
REMARK VINA RESULT:      -7.8      1.849      2.609
REMARK  Name = 
REMARK  9 active torsions:
REMARK  status: ('A' for Active; 'I' for Inactive)
REMARK    1  A    between atoms: N_1  and  C_2
REMARK    2  A    between atoms: N_10  and  C_11
REMARK    3  A    between atoms: C_13  and  C_14
REMARK    4  A    between atoms: C_14  and  O_15
REMARK    5  A    between atoms: O_15  and  C_16
REMARK    6  A    between atoms: N_18  and  C_19
REMARK    7  A    between atoms: C_19  and  C_20
REMARK    8  A    between atoms: C_26  and  O_27
REMARK    9  A    between atoms: C_28  and  O_29
REMARK                            x       y       z     vdW  Elec       q    Type
REMARK                         _______ _______ _______ _____ _____    ______ ____
ROOT
ATOM      1  C   UNL     1       3.763   3.333  18.355  0.00  0.00    +0.000 C 
ATOM      2  O   UNL     1       2.504   4.000  18.115  0.00  0.00    +0.000 OA
ATOM      3  C   UNL     1       1.539   3.538  19.096  0.00  0.00    +0.000 C 
ATOM      4  C   UNL     1       2.180   2.336  19.795  0.00  0.00    +0.000 C 
ATOM      5  C   UNL     1       3.667   2.606  19.696  0.00  0.00    +0.000 C 
ENDROOT
BRANCH   1  14
ATOM      6  C   UNL     1       7.199   6.237  16.540  0.00  0.00    +0.000 A 
ATOM      7  N   UNL     1       7.125   5.749  15.280  0.00  0.00    +0.000 NA
ATOM      8  C   UNL     1       6.254   4.749  15.032  0.00  0.00    +0.000 A 
ATOM      9  N   UNL     1       5.426   4.128  15.893  0.00  0.00    +0.000 NA
ATOM     10  C   UNL     1       5.555   4.627  17.132  0.00  0.00    +0.000 A 
ATOM     11  C   UNL     1       6.399   5.649  17.535  0.00  0.00    +0.000 A 
ATOM     12  N   UNL     1       6.254   5.899  18.885  0.00  0.00    +0.000 NA
ATOM     13  C   UNL     1       5.316   5.064  19.281  0.00  0.00    +0.000 A 
ATOM     14  N   UNL     1       4.861   4.273  18.256  0.00  0.00    +0.000 N 
BRANCH   6  15
ATOM     15  N   UNL     1       8.042   7.309  16.781  0.00  0.00    +0.000 N 
ATOM     16  H   UNL     1       8.819   7.382  16.140  0.00  0.00    +0.000 HD
ATOM     17  H   UNL     1       8.172   7.550  17.755  0.00  0.00    +0.000 HD
ENDBRANCH   6  15
ENDBRANCH   1  14
BRANCH   4  18
ATOM     18  O   UNL     1       1.915   1.105  19.073  0.00  0.00    +0.000 OA
ATOM     19  H   UNL     1       2.747   0.763  18.704  0.00  0.00    +0.000 HD
ENDBRANCH   4  18
BRANCH   5  20
ATOM     20  O   UNL     1       4.431   1.397  19.694  0.00  0.00    +0.000 OA
ATOM     21  H   UNL     1       3.849   0.705  20.072  0.00  0.00    +0.000 HD
ENDBRANCH   5  20
BRANCH   3  22
ATOM     22  C   UNL     1       1.165   4.703  20.022  0.00  0.00    +0.000 C 
BRANCH  22  23
ATOM     23  O   UNL     1       2.275   5.578  20.263  0.00  0.00    +0.000 OA
BRANCH  23  24
ATOM     24  C   UNL     1       2.194   6.821  19.720  0.00  0.00    +0.000 C 
ATOM     25  O   UNL     1       2.378   7.103  18.548  0.00  0.00    +0.000 OA
ATOM     26  N   UNL     1       2.048   7.764  20.691  0.00  0.00    +0.000 N 
ATOM     27  H   UNL     1       2.315   8.693  20.404  0.00  0.00    +0.000 HD
BRANCH  26  28
ATOM     28  C   UNL     1       0.887   7.697  21.553  0.00  0.00    +0.000 C 
BRANCH  28  29
ATOM     29  C   UNL     1       0.153   9.010  21.669  0.00  0.00    +0.000 A 
ATOM     30  C   UNL     1      -0.298   9.432  22.929  0.00  0.00    +0.000 A 
ATOM     31  C   UNL     1      -0.942  10.661  23.067  0.00  0.00    +0.000 A 
ATOM     32  C   UNL     1      -1.133  11.483  21.953  0.00  0.00    +0.000 A 
ATOM     33  C   UNL     1      -0.677  11.082  20.701  0.00  0.00    +0.000 A 
ATOM     34  C   UNL     1      -0.025   9.859  20.565  0.00  0.00    +0.000 A 
ENDBRANCH  28  29
ENDBRANCH  26  28
ENDBRANCH  23  24
ENDBRANCH  22  23
ENDBRANCH   3  22
TORSDOF 9
ENDMDL
MODEL 4
REMARK VINA RESULT:      -7.8      3.897      7.101
REMARK  Name = 
REMARK  9 active torsions:
REMARK  status: ('A' for Active; 'I' for Inactive)
REMARK    1  A    between atoms: N_1  and  C_2
REMARK    2  A    between atoms: N_10  and  C_11
REMARK    3  A    between atoms: C_13  and  C_14
REMARK    4  A    between atoms: C_14  and  O_15
REMARK    5  A    between atoms: O_15  and  C_16
REMARK    6  A    between atoms: N_18  and  C_19
REMARK    7  A    between atoms: C_19  and  C_20
REMARK    8  A    between atoms: C_26  and  O_27
REMARK    9  A    between atoms: C_28  and  O_29
REMARK                            x       y       z     vdW  Elec       q    Type
REMARK                         _______ _______ _______ _____ _____    ______ ____
ROOT
ATOM      1  C   UNL     1       5.635   3.778  17.192  0.00  0.00    +0.000 C 
ATOM      2  O   UNL     1       6.742   4.057  18.077  0.00  0.00    +0.000 OA
ATOM      3  C   UNL     1       7.446   5.229  17.587  0.00  0.00    +0.000 C 
ATOM      4  C   UNL     1       6.887   5.510  16.189  0.00  0.00    +0.000 C 
ATOM      5  C   UNL     1       5.475   4.965  16.243  0.00  0.00    +0.000 C 
ENDROOT
BRANCH   1  14
ATOM      6  C   UNL     1       1.638   4.201  19.908  0.00  0.00    +0.000 A 
ATOM      7  N   UNL     1       1.853   5.492  20.251  0.00  0.00    +0.000 NA
ATOM      8  C   UNL     1       2.967   6.098  19.790  0.00  0.00    +0.000 A 
ATOM      9  N   UNL     1       3.944   5.580  19.022  0.00  0.00    +0.000 NA
ATOM     10  C   UNL     1       3.701   4.294  18.732  0.00  0.00    +0.000 A 
ATOM     11  C   UNL     1       2.605   3.543  19.128  0.00  0.00    +0.000 A 
ATOM     12  N   UNL     1       2.690   2.257  18.634  0.00  0.00    +0.000 NA
ATOM     13  C   UNL     1       3.799   2.243  17.926  0.00  0.00    +0.000 A 
ATOM     14  N   UNL     1       4.447   3.452  17.954  0.00  0.00    +0.000 N 
BRANCH   6  15
ATOM     15  N   UNL     1       0.461   3.599  20.323  0.00  0.00    +0.000 N 
ATOM     16  H   UNL     1      -0.377   4.023  19.954  0.00  0.00    +0.000 HD
ATOM     17  H   UNL     1       0.468   3.238  21.268  0.00  0.00    +0.000 HD
ENDBRANCH   6  15
ENDBRANCH   1  14
BRANCH   4  18
ATOM     18  O   UNL     1       7.604   4.756  15.175  0.00  0.00    +0.000 OA
ATOM     19  H   UNL     1       8.560   4.855  15.318  0.00  0.00    +0.000 HD
ENDBRANCH   4  18
BRANCH   5  20
ATOM     20  O   UNL     1       5.013   4.550  14.955  0.00  0.00    +0.000 OA
ATOM     21  H   UNL     1       4.172   5.030  14.797  0.00  0.00    +0.000 HD
ENDBRANCH   5  20
BRANCH   3  22
ATOM     22  C   UNL     1       7.278   6.374  18.595  0.00  0.00    +0.000 C 
BRANCH  22  23
ATOM     23  O   UNL     1       8.259   7.403  18.409  0.00  0.00    +0.000 OA
BRANCH  23  24
ATOM     24  C   UNL     1       7.828   8.553  17.829  0.00  0.00    +0.000 C 
ATOM     25  O   UNL     1       6.813   8.684  17.167  0.00  0.00    +0.000 OA
ATOM     26  N   UNL     1       8.772   9.529  17.931  0.00  0.00    +0.000 N 
ATOM     27  H   UNL     1       8.671  10.271  17.256  0.00  0.00    +0.000 HD
BRANCH  26  28
ATOM     28  C   UNL     1       9.189   9.953  19.251  0.00  0.00    +0.000 C 
BRANCH  28  29
ATOM     29  C   UNL     1      10.118  11.142  19.230  0.00  0.00    +0.000 A 
ATOM     30  C   UNL     1      10.684  11.548  18.012  0.00  0.00    +0.000 A 
ATOM     31  C   UNL     1      11.512  12.668  17.962  0.00  0.00    +0.000 A 
ATOM     32  C   UNL     1      11.775  13.398  19.124  0.00  0.00    +0.000 A 
ATOM     33  C   UNL     1      11.209  13.015  20.336  0.00  0.00    +0.000 A 
ATOM     34  C   UNL     1      10.374  11.902  20.383  0.00  0.00    +0.000 A 
ENDBRANCH  28  29
ENDBRANCH  26  28
ENDBRANCH  23  24
ENDBRANCH  22  23
ENDBRANCH   3  22
TORSDOF 9
ENDMDL
MODEL 5
REMARK VINA RESULT:      -7.8      3.187      6.611
REMARK  Name = 
REMARK  9 active torsions:
REMARK  status: ('A' for Active; 'I' for Inactive)
REMARK    1  A    between atoms: N_1  and  C_2
REMARK    2  A    between atoms: N_10  and  C_11
REMARK    3  A    between atoms: C_13  and  C_14
REMARK    4  A    between atoms: C_14  and  O_15
REMARK    5  A    between atoms: O_15  and  C_16
REMARK    6  A    between atoms: N_18  and  C_19
REMARK    7  A    between atoms: C_19  and  C_20
REMARK    8  A    between atoms: C_26  and  O_27
REMARK    9  A    between atoms: C_28  and  O_29
REMARK                            x       y       z     vdW  Elec       q    Type
REMARK                         _______ _______ _______ _____ _____    ______ ____
ROOT
ATOM      1  C   UNL     1       2.293   5.963  19.119  0.00  0.00    +0.000 C 
ATOM      2  O   UNL     1       3.379   5.872  20.068  0.00  0.00    +0.000 OA
ATOM      3  C   UNL     1       4.143   4.671  19.785  0.00  0.00    +0.000 C 
ATOM      4  C   UNL     1       3.317   3.864  18.780  0.00  0.00    +0.000 C 
ATOM      5  C   UNL     1       2.524   4.915  18.031  0.00  0.00    +0.000 C 
ENDROOT
BRANCH   1  14
ATOM      6  C   UNL     1       1.451  10.737  18.928  0.00  0.00    +0.000 A 
ATOM      7  N   UNL     1       0.827  10.804  20.126  0.00  0.00    +0.000 NA
ATOM      8  C   UNL     1       0.668   9.663  20.829  0.00  0.00    +0.000 A 
ATOM      9  N   UNL     1       1.040   8.414  20.490  0.00  0.00    +0.000 NA
ATOM     10  C   UNL     1       1.629   8.394  19.285  0.00  0.00    +0.000 A 
ATOM     11  C   UNL     1       1.863   9.479  18.455  0.00  0.00    +0.000 A 
ATOM     12  N   UNL     1       2.498   9.079  17.296  0.00  0.00    +0.000 NA
ATOM     13  C   UNL     1       2.672   7.782  17.441  0.00  0.00    +0.000 A 
ATOM     14  N   UNL     1       2.163   7.320  18.628  0.00  0.00    +0.000 N 
BRANCH   6  15
ATOM     15  N   UNL     1       1.676  11.917  18.238  0.00  0.00    +0.000 N 
ATOM     16  H   UNL     1       1.717  12.740  18.820  0.00  0.00    +0.000 HD
ATOM     17  H   UNL     1       1.251  11.971  17.321  0.00  0.00    +0.000 HD
ENDBRANCH   6  15
ENDBRANCH   1  14
BRANCH   4  18
ATOM     18  O   UNL     1       2.365   3.001  19.455  0.00  0.00    +0.000 OA
ATOM     19  H   UNL     1       1.707   2.684  18.812  0.00  0.00    +0.000 HD
ENDBRANCH   4  18
BRANCH   5  20
ATOM     20  O   UNL     1       1.288   4.396  17.531  0.00  0.00    +0.000 OA
ATOM     21  H   UNL     1       1.476   4.062  16.629  0.00  0.00    +0.000 HD
ENDBRANCH   5  20
BRANCH   3  22
ATOM     22  C   UNL     1       5.545   5.068  19.302  0.00  0.00    +0.000 C 
BRANCH  22  23
ATOM     23  O   UNL     1       6.108   4.090  18.419  0.00  0.00    +0.000 OA
BRANCH  23  24
ATOM     24  C   UNL     1       7.090   4.522  17.585  0.00  0.00    +0.000 C 
ATOM     25  O   UNL     1       8.287   4.354  17.740  0.00  0.00    +0.000 OA
ATOM     26  N   UNL     1       6.580   5.332  16.616  0.00  0.00    +0.000 N 
ATOM     27  H   UNL     1       7.261   5.939  16.187  0.00  0.00    +0.000 HD
BRANCH  26  28
ATOM     28  C   UNL     1       5.585   4.792  15.714  0.00  0.00    +0.000 C 
BRANCH  28  29
ATOM     29  C   UNL     1       6.123   4.499  14.336  0.00  0.00    +0.000 A 
ATOM     30  C   UNL     1       5.414   3.627  13.495  0.00  0.00    +0.000 A 
ATOM     31  C   UNL     1       5.871   3.376  12.202  0.00  0.00    +0.000 A 
ATOM     32  C   UNL     1       7.031   3.997  11.734  0.00  0.00    +0.000 A 
ATOM     33  C   UNL     1       7.735   4.874  12.552  0.00  0.00    +0.000 A 
ATOM     34  C   UNL     1       7.274   5.133  13.840  0.00  0.00    +0.000 A 
ENDBRANCH  28  29
ENDBRANCH  26  28
ENDBRANCH  23  24
ENDBRANCH  22  23
ENDBRANCH   3  22
TORSDOF 9
ENDMDL
MODEL 6
REMARK VINA RESULT:      -7.6      3.694      6.984
REMARK  Name = 
REMARK  9 active torsions:
REMARK  status: ('A' for Active; 'I' for Inactive)
REMARK    1  A    between atoms: N_1  and  C_2
REMARK    2  A    between atoms: N_10  and  C_11
REMARK    3  A    between atoms: C_13  and  C_14
REMARK    4  A    between atoms: C_14  and  O_15
REMARK    5  A    between atoms: O_15  and  C_16
REMARK    6  A    between atoms: N_18  and  C_19
REMARK    7  A    between atoms: C_19  and  C_20
REMARK    8  A    between atoms: C_26  and  O_27
REMARK    9  A    between atoms: C_28  and  O_29
REMARK                            x       y       z     vdW  Elec       q    Type
REMARK                         _______ _______ _______ _____ _____    ______ ____
ROOT
ATOM      1  C   UNL     1       3.653   5.649  19.174  0.00  0.00    +0.000 C 
ATOM      2  O   UNL     1       4.940   5.517  18.529  0.00  0.00    +0.000 OA
ATOM      3  C   UNL     1       5.111   4.138  18.110  0.00  0.00    +0.000 C 
ATOM      4  C   UNL     1       3.980   3.346  18.772  0.00  0.00    +0.000 C 
ATOM      5  C   UNL     1       2.867   4.361  18.932  0.00  0.00    +0.000 C 
ENDROOT
BRANCH   1  14
ATOM      6  C   UNL     1       1.037   9.734  19.159  0.00  0.00    +0.000 A 
ATOM      7  N   UNL     1       0.504   9.548  20.389  0.00  0.00    +0.000 NA
ATOM      8  C   UNL     1       0.835   8.428  21.066  0.00  0.00    +0.000 A 
ATOM      9  N   UNL     1       1.637   7.421  20.675  0.00  0.00    +0.000 NA
ATOM     10  C   UNL     1       2.119   7.637  19.441  0.00  0.00    +0.000 A 
ATOM     11  C   UNL     1       1.872   8.734  18.631  0.00  0.00    +0.000 A 
ATOM     12  N   UNL     1       2.544   8.615  17.431  0.00  0.00    +0.000 NA
ATOM     13  C   UNL     1       3.210   7.484  17.531  0.00  0.00    +0.000 A 
ATOM     14  N   UNL     1       2.985   6.855  18.729  0.00  0.00    +0.000 N 
BRANCH   6  15
ATOM     15  N   UNL     1       0.752  10.914  18.492  0.00  0.00    +0.000 N 
ATOM     16  H   UNL     1       0.979  10.902  17.508  0.00  0.00    +0.000 HD
ATOM     17  H   UNL     1       0.889  11.760  19.029  0.00  0.00    +0.000 HD
ENDBRANCH   6  15
ENDBRANCH   1  14
BRANCH   4  18
ATOM     18  O   UNL     1       4.358   2.903  20.103  0.00  0.00    +0.000 OA
ATOM     19  H   UNL     1       5.154   2.349  20.042  0.00  0.00    +0.000 HD
ENDBRANCH   4  18
BRANCH   5  20
ATOM     20  O   UNL     1       2.015   4.050  20.039  0.00  0.00    +0.000 OA
ATOM     21  H   UNL     1       1.116   4.343  19.783  0.00  0.00    +0.000 HD
ENDBRANCH   5  20
BRANCH   3  22
ATOM     22  C   UNL     1       5.133   4.077  16.576  0.00  0.00    +0.000 C 
BRANCH  22  23
ATOM     23  O   UNL     1       6.469   4.064  16.057  0.00  0.00    +0.000 OA
BRANCH  23  24
ATOM     24  C   UNL     1       6.964   5.256  15.633  0.00  0.00    +0.000 C 
ATOM     25  O   UNL     1       7.367   6.159  16.346  0.00  0.00    +0.000 OA
ATOM     26  N   UNL     1       6.797   5.398  14.289  0.00  0.00    +0.000 N 
ATOM     27  H   UNL     1       6.826   6.355  13.970  0.00  0.00    +0.000 HD
BRANCH  26  28
ATOM     28  C   UNL     1       7.427   4.438  13.407  0.00  0.00    +0.000 C 
BRANCH  28  29
ATOM     29  C   UNL     1       6.441   3.629  12.602  0.00  0.00    +0.000 A 
ATOM     30  C   UNL     1       5.106   4.057  12.524  0.00  0.00    +0.000 A 
ATOM     31  C   UNL     1       4.187   3.349  11.752  0.00  0.00    +0.000 A 
ATOM     32  C   UNL     1       4.592   2.214  11.045  0.00  0.00    +0.000 A 
ATOM     33  C   UNL     1       5.914   1.787  11.102  0.00  0.00    +0.000 A 
ATOM     34  C   UNL     1       6.835   2.501  11.865  0.00  0.00    +0.000 A 
ENDBRANCH  28  29
ENDBRANCH  26  28
ENDBRANCH  23  24
ENDBRANCH  22  23
ENDBRANCH   3  22
TORSDOF 9
ENDMDL
MODEL 7
REMARK VINA RESULT:      -7.6      3.094      3.987
REMARK  Name = 
REMARK  9 active torsions:
REMARK  status: ('A' for Active; 'I' for Inactive)
REMARK    1  A    between atoms: N_1  and  C_2
REMARK    2  A    between atoms: N_10  and  C_11
REMARK    3  A    between atoms: C_13  and  C_14
REMARK    4  A    between atoms: C_14  and  O_15
REMARK    5  A    between atoms: O_15  and  C_16
REMARK    6  A    between atoms: N_18  and  C_19
REMARK    7  A    between atoms: C_19  and  C_20
REMARK    8  A    between atoms: C_26  and  O_27
REMARK    9  A    between atoms: C_28  and  O_29
REMARK                            x       y       z     vdW  Elec       q    Type
REMARK                         _______ _______ _______ _____ _____    ______ ____
ROOT
ATOM      1  C   UNL     1       4.496   4.430  17.588  0.00  0.00    +0.000 C 
ATOM      2  O   UNL     1       3.427   5.392  17.443  0.00  0.00    +0.000 OA
ATOM      3  C   UNL     1       2.857   5.654  18.752  0.00  0.00    +0.000 C 
ATOM      4  C   UNL     1       3.442   4.598  19.693  0.00  0.00    +0.000 C 
ATOM      5  C   UNL     1       4.785   4.264  19.079  0.00  0.00    +0.000 C 
ENDROOT
BRANCH   1  14
ATOM      6  C   UNL     1       7.479   5.118  13.825  0.00  0.00    +0.000 A 
ATOM      7  N   UNL     1       6.813   4.294  12.983  0.00  0.00    +0.000 NA
ATOM      8  C   UNL     1       5.722   3.651  13.448  0.00  0.00    +0.000 A 
ATOM      9  N   UNL     1       5.187   3.697  14.682  0.00  0.00    +0.000 NA
ATOM     10  C   UNL     1       5.895   4.503  15.487  0.00  0.00    +0.000 A 
ATOM     11  C   UNL     1       7.028   5.228  15.152  0.00  0.00    +0.000 A 
ATOM     12  N   UNL     1       7.483   5.952  16.236  0.00  0.00    +0.000 NA
ATOM     13  C   UNL     1       6.620   5.695  17.196  0.00  0.00    +0.000 A 
ATOM     14  N   UNL     1       5.641   4.823  16.792  0.00  0.00    +0.000 N 
BRANCH   6  15
ATOM     15  N   UNL     1       8.558   5.831  13.329  0.00  0.00    +0.000 N 
ATOM     16  H   UNL     1       9.409   5.723  13.862  0.00  0.00    +0.000 HD
ATOM     17  H   UNL     1       8.334   6.727  12.916  0.00  0.00    +0.000 HD
ENDBRANCH   6  15
ENDBRANCH   1  14
BRANCH   4  18
ATOM     18  O   UNL     1       2.646   3.384  19.681  0.00  0.00    +0.000 OA
ATOM     19  H   UNL     1       2.353   3.202  18.772  0.00  0.00    +0.000 HD
ENDBRANCH   4  18
BRANCH   5  20
ATOM     20  O   UNL     1       5.198   2.930  19.389  0.00  0.00    +0.000 OA
ATOM     21  H   UNL     1       4.863   2.742  20.291  0.00  0.00    +0.000 HD
ENDBRANCH   5  20
BRANCH   3  22
ATOM     22  C   UNL     1       3.151   7.109  19.146  0.00  0.00    +0.000 C 
BRANCH  22  23
ATOM     23  O   UNL     1       1.953   7.885  19.272  0.00  0.00    +0.000 OA
BRANCH  23  24
ATOM     24  C   UNL     1       1.795   8.901  18.383  0.00  0.00    +0.000 C 
ATOM     25  O   UNL     1       2.219   8.925  17.241  0.00  0.00    +0.000 OA
ATOM     26  N   UNL     1       1.237   9.987  18.985  0.00  0.00    +0.000 N 
ATOM     27  H   UNL     1       1.398  10.855  18.497  0.00  0.00    +0.000 HD
BRANCH  26  28
ATOM     28  C   UNL     1      -0.075   9.852  19.581  0.00  0.00    +0.000 C 
BRANCH  28  29
ATOM     29  C   UNL     1      -1.193  10.302  18.673  0.00  0.00    +0.000 A 
ATOM     30  C   UNL     1      -2.005  11.377  19.066  0.00  0.00    +0.000 A 
ATOM     31  C   UNL     1      -3.016  11.836  18.225  0.00  0.00    +0.000 A 
ATOM     32  C   UNL     1      -3.222  11.234  16.981  0.00  0.00    +0.000 A 
ATOM     33  C   UNL     1      -2.415  10.177  16.572  0.00  0.00    +0.000 A 
ATOM     34  C   UNL     1      -1.398   9.725  17.409  0.00  0.00    +0.000 A 
ENDBRANCH  28  29
ENDBRANCH  26  28
ENDBRANCH  23  24
ENDBRANCH  22  23
ENDBRANCH   3  22
TORSDOF 9
ENDMDL
MODEL 8
REMARK VINA RESULT:      -7.6      1.294      1.607
REMARK  Name = 
REMARK  9 active torsions:
REMARK  status: ('A' for Active; 'I' for Inactive)
REMARK    1  A    between atoms: N_1  and  C_2
REMARK    2  A    between atoms: N_10  and  C_11
REMARK    3  A    between atoms: C_13  and  C_14
REMARK    4  A    between atoms: C_14  and  O_15
REMARK    5  A    between atoms: O_15  and  C_16
REMARK    6  A    between atoms: N_18  and  C_19
REMARK    7  A    between atoms: C_19  and  C_20
REMARK    8  A    between atoms: C_26  and  O_27
REMARK    9  A    between atoms: C_28  and  O_29
REMARK                            x       y       z     vdW  Elec       q    Type
REMARK                         _______ _______ _______ _____ _____    ______ ____
ROOT
ATOM      1  C   UNL     1       4.450   2.957  18.275  0.00  0.00    +0.000 C 
ATOM      2  O   UNL     1       3.186   3.215  17.624  0.00  0.00    +0.000 OA
ATOM      3  C   UNL     1       2.129   2.593  18.401  0.00  0.00    +0.000 C 
ATOM      4  C   UNL     1       2.823   1.694  19.427  0.00  0.00    +0.000 C 
ATOM      5  C   UNL     1       4.163   2.364  19.653  0.00  0.00    +0.000 C 
ENDROOT
BRANCH   1  14
ATOM      6  C   UNL     1       7.290   6.626  16.855  0.00  0.00    +0.000 A 
ATOM      7  N   UNL     1       7.586   6.096  15.645  0.00  0.00    +0.000 NA
ATOM      8  C   UNL     1       7.068   4.890  15.332  0.00  0.00    +0.000 A 
ATOM      9  N   UNL     1       6.283   4.096  16.083  0.00  0.00    +0.000 NA
ATOM     10  C   UNL     1       6.041   4.649  17.281  0.00  0.00    +0.000 A 
ATOM     11  C   UNL     1       6.497   5.875  17.740  0.00  0.00    +0.000 A 
ATOM     12  N   UNL     1       6.039   6.118  19.020  0.00  0.00    +0.000 NA
ATOM     13  C   UNL     1       5.294   5.073  19.313  0.00  0.00    +0.000 A 
ATOM     14  N   UNL     1       5.263   4.156  18.292  0.00  0.00    +0.000 N 
BRANCH   6  15
ATOM     15  N   UNL     1       7.763   7.893  17.150  0.00  0.00    +0.000 N 
ATOM     16  H   UNL     1       8.536   8.195  16.576  0.00  0.00    +0.000 HD
ATOM     17  H   UNL     1       7.735   8.150  18.129  0.00  0.00    +0.000 HD
ENDBRANCH   6  15
ENDBRANCH   1  14
BRANCH   4  18
ATOM     18  O   UNL     1       3.085   0.375  18.880  0.00  0.00    +0.000 OA
ATOM     19  H   UNL     1       2.248  -0.115  18.807  0.00  0.00    +0.000 HD
ENDBRANCH   4  18
BRANCH   5  20
ATOM     20  O   UNL     1       5.170   1.426  20.042  0.00  0.00    +0.000 OA
ATOM     21  H   UNL     1       4.696   0.651  20.410  0.00  0.00    +0.000 HD
ENDBRANCH   5  20
BRANCH   3  22
ATOM     22  C   UNL     1       1.232   3.687  18.998  0.00  0.00    +0.000 C 
BRANCH  22  23
ATOM     23  O   UNL     1       1.965   4.883  19.292  0.00  0.00    +0.000 OA
BRANCH  23  24
ATOM     24  C   UNL     1       2.024   5.251  20.599  0.00  0.00    +0.000 C 
ATOM     25  O   UNL     1       2.351   4.536  21.530  0.00  0.00    +0.000 OA
ATOM     26  N   UNL     1       1.497   6.495  20.774  0.00  0.00    +0.000 N 
ATOM     27  H   UNL     1       1.204   6.687  21.720  0.00  0.00    +0.000 HD
BRANCH  26  28
ATOM     28  C   UNL     1       2.109   7.609  20.082  0.00  0.00    +0.000 C 
BRANCH  28  29
ATOM     29  C   UNL     1       1.196   8.802  19.948  0.00  0.00    +0.000 A 
ATOM     30  C   UNL     1       0.496   9.260  21.075  0.00  0.00    +0.000 A 
ATOM     31  C   UNL     1      -0.320  10.386  20.984  0.00  0.00    +0.000 A 
ATOM     32  C   UNL     1      -0.439  11.071  19.772  0.00  0.00    +0.000 A 
ATOM     33  C   UNL     1       0.260  10.636  18.651  0.00  0.00    +0.000 A 
ATOM     34  C   UNL     1       1.083   9.517  18.744  0.00  0.00    +0.000 A 
ENDBRANCH  28  29
ENDBRANCH  26  28
ENDBRANCH  23  24
ENDBRANCH  22  23
ENDBRANCH   3  22
TORSDOF 9
ENDMDL
MODEL 9
REMARK VINA RESULT:      -7.6      3.093      6.556
REMARK  Name = 
REMARK  9 active torsions:
REMARK  status: ('A' for Active; 'I' for Inactive)
REMARK    1  A    between atoms: N_1  and  C_2
REMARK    2  A    between atoms: N_10  and  C_11
REMARK    3  A    between atoms: C_13  and  C_14
REMARK    4  A    between atoms: C_14  and  O_15
REMARK    5  A    between atoms: O_15  and  C_16
REMARK    6  A    between atoms: N_18  and  C_19
REMARK    7  A    between atoms: C_19  and  C_20
REMARK    8  A    between atoms: C_26  and  O_27
REMARK    9  A    between atoms: C_28  and  O_29
REMARK                            x       y       z     vdW  Elec       q    Type
REMARK                         _______ _______ _______ _____ _____    ______ ____
ROOT
ATOM      1  C   UNL     1       2.558   5.504  20.201  0.00  0.00    +0.000 C 
ATOM      2  O   UNL     1       3.985   5.296  20.293  0.00  0.00    +0.000 OA
ATOM      3  C   UNL     1       4.268   3.896  20.028  0.00  0.00    +0.000 C 
ATOM      4  C   UNL     1       2.917   3.177  20.038  0.00  0.00    +0.000 C 
ATOM      5  C   UNL     1       1.931   4.243  19.608  0.00  0.00    +0.000 C 
ENDROOT
BRANCH   1  14
ATOM      6  C   UNL     1       1.237  10.054  19.157  0.00  0.00    +0.000 A 
ATOM      7  N   UNL     1       0.666  10.299  20.359  0.00  0.00    +0.000 NA
ATOM      8  C   UNL     1       0.655   9.309  21.276  0.00  0.00    +0.000 A 
ATOM      9  N   UNL     1       1.133   8.056  21.159  0.00  0.00    +0.000 NA
ATOM     10  C   UNL     1       1.663   7.852  19.943  0.00  0.00    +0.000 A 
ATOM     11  C   UNL     1       1.749   8.768  18.907  0.00  0.00    +0.000 A 
ATOM     12  N   UNL     1       2.365   8.206  17.807  0.00  0.00    +0.000 NA
ATOM     13  C   UNL     1       2.674   6.983  18.185  0.00  0.00    +0.000 A 
ATOM     14  N   UNL     1       2.270   6.721  19.470  0.00  0.00    +0.000 N 
BRANCH   6  15
ATOM     15  N   UNL     1       1.310  11.090  18.241  0.00  0.00    +0.000 N 
ATOM     16  H   UNL     1       2.231  11.488  18.133  0.00  0.00    +0.000 HD
ATOM     17  H   UNL     1       0.495  11.689  18.197  0.00  0.00    +0.000 HD
ENDBRANCH   6  15
ENDBRANCH   1  14
BRANCH   4  18
ATOM     18  O   UNL     1       2.550   2.764  21.381  0.00  0.00    +0.000 OA
ATOM     19  H   UNL     1       2.120   1.893  21.343  0.00  0.00    +0.000 HD
ENDBRANCH   4  18
BRANCH   5  20
ATOM     20  O   UNL     1       0.623   4.007  20.137  0.00  0.00    +0.000 OA
ATOM     21  H   UNL     1       0.115   3.564  19.425  0.00  0.00    +0.000 HD
ENDBRANCH   5  20
BRANCH   3  22
ATOM     22  C   UNL     1       5.055   3.782  18.715  0.00  0.00    +0.000 C 
BRANCH  22  23
ATOM     23  O   UNL     1       5.806   4.969  18.431  0.00  0.00    +0.000 OA
BRANCH  23  24
ATOM     24  C   UNL     1       6.915   4.813  17.662  0.00  0.00    +0.000 C 
ATOM     25  O   UNL     1       7.955   4.278  18.005  0.00  0.00    +0.000 OA
ATOM     26  N   UNL     1       6.789   5.493  16.489  0.00  0.00    +0.000 N 
ATOM     27  H   UNL     1       7.666   5.699  16.037  0.00  0.00    +0.000 HD
BRANCH  26  28
ATOM     28  C   UNL     1       5.706   5.138  15.596  0.00  0.00    +0.000 C 
BRANCH  28  29
ATOM     29  C   UNL     1       6.179   4.653  14.248  0.00  0.00    +0.000 A 
ATOM     30  C   UNL     1       5.395   3.730  13.539  0.00  0.00    +0.000 A 
ATOM     31  C   UNL     1       5.790   3.300  12.274  0.00  0.00    +0.000 A 
ATOM     32  C   UNL     1       6.965   3.793  11.700  0.00  0.00    +0.000 A 
ATOM     33  C   UNL     1       7.744   4.720  12.386  0.00  0.00    +0.000 A 
ATOM     34  C   UNL     1       7.343   5.157  13.646  0.00  0.00    +0.000 A 
ENDBRANCH  28  29
ENDBRANCH  26  28
ENDBRANCH  23  24
ENDBRANCH  22  23
ENDBRANCH   3  22
TORSDOF 9
ENDMDL
