MODEL 1
REMARK VINA RESULT:      -7.0      0.000      0.000
REMARK  Name = 
REMARK  7 active torsions:
REMARK  status: ('A' for Active; 'I' for Inactive)
REMARK    1  A    between atoms: C_1  and  C_2
REMARK    2  A    between atoms: C_2  and  O_4
REMARK    3  A    between atoms: O_4  and  C_5
REMARK    4  A    between atoms: C_6  and  C_7
REMARK    5  A    between atoms: C_13  and  C_14
REMARK    6  A    between atoms: C_23  and  C_24
REMARK    7  A    between atoms: C_24  and  C_25
REMARK                            x       y       z     vdW  Elec       q    Type
REMARK                         _______ _______ _______ _____ _____    ______ ____
ROOT
ATOM      1  C   UNL     1       2.252   5.418  19.701  0.00  0.00    +0.000 A 
ATOM      2  C   UNL     1       3.302   4.787  18.966  0.00  0.00    +0.000 A 
ATOM      3  C   UNL     1       3.794   5.736  18.044  0.00  0.00    +0.000 A 
ATOM      4  N   UNL     1       3.058   6.917  18.247  0.00  0.00    +0.000 N 
ATOM      5  C   UNL     1       3.120   8.146  17.570  0.00  0.00    +0.000 A 
ATOM      6  C   UNL     1       2.384   9.193  17.984  0.00  0.00    +0.000 A 
ATOM      7  C   UNL     1       1.494   9.043  19.130  0.00  0.00    +0.000 A 
ATOM      8  C   UNL     1       1.423   7.860  19.770  0.00  0.00    +0.000 A 
ATOM      9  C   UNL     1       2.184   6.735  19.315  0.00  0.00    +0.000 A 
ENDROOT
BRANCH   2  10
ATOM     10  C   UNL     1       3.788   3.405  19.122  0.00  0.00    +0.000 A 
ATOM     11  C   UNL     1       4.568   3.051  20.234  0.00  0.00    +0.000 A 
ATOM     12  C   UNL     1       4.981   1.728  20.432  0.00  0.00    +0.000 A 
ATOM     13  C   UNL     1       4.594   0.733  19.538  0.00  0.00    +0.000 A 
ATOM     14  C   UNL     1       3.840   1.070  18.418  0.00  0.00    +0.000 A 
ATOM     15  C   UNL     1       3.477   2.401  18.193  0.00  0.00    +0.000 A 
ENDBRANCH   2  10
BRANCH   3  16
ATOM     16  C   UNL     1       4.883   5.618  17.036  0.00  0.00    +0.000 A 
ATOM     17  C   UNL     1       4.689   4.903  15.843  0.00  0.00    +0.000 A 
ATOM     18  C   UNL     1       5.750   4.654  14.966  0.00  0.00    +0.000 A 
ATOM     19  C   UNL     1       7.008   5.191  15.221  0.00  0.00    +0.000 A 
ATOM     20  C   UNL     1       7.210   5.953  16.366  0.00  0.00    +0.000 A 
ATOM     21  C   UNL     1       6.167   6.133  17.282  0.00  0.00    +0.000 A 
ENDBRANCH   3  16
BRANCH   7  22
ATOM     22  C   UNL     1       0.681  10.227  19.574  0.00  0.00    +0.000 C 
ATOM     23  C   UNL     1      -0.562  10.632  18.812  0.00  0.00    +0.000 C 
ATOM     24  O   UNL     1       1.052  10.894  20.540  0.00  0.00    +0.000 OA
ENDBRANCH   7  22
BRANCH   1  25
ATOM     25  O   UNL     1       1.557   4.880  20.731  0.00  0.00    +0.000 OA
BRANCH  25  27
ATOM     26  C   UNL     1       1.345   2.777  21.732  0.00  0.00    +0.000 C 
ATOM     27  C   UNL     1       0.991   3.645  20.558  0.00  0.00    +0.000 C 
ATOM     28  O   UNL     1       0.289   3.269  19.632  0.00  0.00    +0.000 OA
ENDBRANCH  25  27
ENDBRANCH   1  25
TORSDOF 5
ENDMDL
MODEL 2
REMARK VINA RESULT:      -6.7      8.041     10.369
REMARK  Name = 
REMARK  7 active torsions:
REMARK  status: ('A' for Active; 'I' for Inactive)
REMARK    1  A    between atoms: C_1  and  C_2
REMARK    2  A    between atoms: C_2  and  O_4
REMARK    3  A    between atoms: O_4  and  C_5
REMARK    4  A    between atoms: C_6  and  C_7
REMARK    5  A    between atoms: C_13  and  C_14
REMARK    6  A    between atoms: C_23  and  C_24
REMARK    7  A    between atoms: C_24  and  C_25
REMARK                            x       y       z     vdW  Elec       q    Type
REMARK                         _______ _______ _______ _____ _____    ______ ____
ROOT
ATOM      1  C   UNL     1      -5.141  12.346  19.543  0.00  0.00    +0.000 A 
ATOM      2  C   UNL     1      -3.846  12.019  19.036  0.00  0.00    +0.000 A 
ATOM      3  C   UNL     1      -2.899  12.619  19.893  0.00  0.00    +0.000 A 
ATOM      4  N   UNL     1      -3.625  13.273  20.905  0.00  0.00    +0.000 N 
ATOM      5  C   UNL     1      -3.170  14.052  21.981  0.00  0.00    +0.000 A 
ATOM      6  C   UNL     1      -4.034  14.519  22.900  0.00  0.00    +0.000 A 
ATOM      7  C   UNL     1      -5.458  14.235  22.764  0.00  0.00    +0.000 A 
ATOM      8  C   UNL     1      -5.896  13.501  21.723  0.00  0.00    +0.000 A 
ATOM      9  C   UNL     1      -4.983  13.025  20.727  0.00  0.00    +0.000 A 
ENDROOT
BRANCH   2  10
ATOM     10  C   UNL     1      -3.540  11.216  17.840  0.00  0.00    +0.000 A 
ATOM     11  C   UNL     1      -4.192  11.478  16.625  0.00  0.00    +0.000 A 
ATOM     12  C   UNL     1      -3.865  10.770  15.463  0.00  0.00    +0.000 A 
ATOM     13  C   UNL     1      -2.858   9.809  15.490  0.00  0.00    +0.000 A 
ATOM     14  C   UNL     1      -2.216   9.519  16.690  0.00  0.00    +0.000 A 
ATOM     15  C   UNL     1      -2.584  10.189  17.861  0.00  0.00    +0.000 A 
ENDBRANCH   2  10
BRANCH   3  16
ATOM     16  C   UNL     1      -1.411  12.602  19.839  0.00  0.00    +0.000 A 
ATOM     17  C   UNL     1      -0.714  13.366  18.889  0.00  0.00    +0.000 A 
ATOM     18  C   UNL     1       0.670  13.237  18.728  0.00  0.00    +0.000 A 
ATOM     19  C   UNL     1       1.397  12.405  19.573  0.00  0.00    +0.000 A 
ATOM     20  C   UNL     1       0.736  11.683  20.561  0.00  0.00    +0.000 A 
ATOM     21  C   UNL     1      -0.658  11.753  20.667  0.00  0.00    +0.000 A 
ENDBRANCH   3  16
BRANCH   7  22
ATOM     22  C   UNL     1      -6.405  14.768  23.804  0.00  0.00    +0.000 C 
ATOM     23  C   UNL     1      -7.606  13.956  24.234  0.00  0.00    +0.000 C 
ATOM     24  O   UNL     1      -6.220  15.890  24.277  0.00  0.00    +0.000 OA
ENDBRANCH   7  22
BRANCH   1  25
ATOM     25  O   UNL     1      -6.328  11.913  19.056  0.00  0.00    +0.000 OA
BRANCH  25  27
ATOM     26  C   UNL     1      -7.721  10.779  20.554  0.00  0.00    +0.000 C 
ATOM     27  C   UNL     1      -6.756  10.661  19.407  0.00  0.00    +0.000 C 
ATOM     28  O   UNL     1      -6.452   9.596  18.893  0.00  0.00    +0.000 OA
ENDBRANCH  25  27
ENDBRANCH   1  25
TORSDOF 5
ENDMDL
MODEL 3
REMARK VINA RESULT:      -6.5      8.139     10.278
REMARK  Name = 
REMARK  7 active torsions:
REMARK  status: ('A' for Active; 'I' for Inactive)
REMARK    1  A    between atoms: C_1  and  C_2
REMARK    2  A    between atoms: C_2  and  O_4
REMARK    3  A    between atoms: O_4  and  C_5
REMARK    4  A    between atoms: C_6  and  C_7
REMARK    5  A    between atoms: C_13  and  C_14
REMARK    6  A    between atoms: C_23  and  C_24
REMARK    7  A    between atoms: C_24  and  C_25
REMARK                            x       y       z     vdW  Elec       q    Type
REMARK                         _______ _______ _______ _____ _____    ______ ____
ROOT
ATOM      1  C   UNL     1      -4.860  12.550  19.612  0.00  0.00    +0.000 A 
ATOM      2  C   UNL     1      -3.621  12.134  19.037  0.00  0.00    +0.000 A 
ATOM      3  C   UNL     1      -2.589  12.730  19.794  0.00  0.00    +0.000 A 
ATOM      4  N   UNL     1      -3.211  13.470  20.815  0.00  0.00    +0.000 N 
ATOM      5  C   UNL     1      -2.646  14.280  21.814  0.00  0.00    +0.000 A 
ATOM      6  C   UNL     1      -3.421  14.835  22.762  0.00  0.00    +0.000 A 
ATOM      7  C   UNL     1      -4.862  14.615  22.739  0.00  0.00    +0.000 A 
ATOM      8  C   UNL     1      -5.406  13.851  21.773  0.00  0.00    +0.000 A 
ATOM      9  C   UNL     1      -4.589  13.281  20.744  0.00  0.00    +0.000 A 
ENDROOT
BRANCH   2  10
ATOM     10  C   UNL     1      -3.436  11.256  17.868  0.00  0.00    +0.000 A 
ATOM     11  C   UNL     1      -4.168  11.482  16.692  0.00  0.00    +0.000 A 
ATOM     12  C   UNL     1      -3.957  10.699  15.551  0.00  0.00    +0.000 A 
ATOM     13  C   UNL     1      -2.988   9.700  15.557  0.00  0.00    +0.000 A 
ATOM     14  C   UNL     1      -2.269   9.446  16.721  0.00  0.00    +0.000 A 
ATOM     15  C   UNL     1      -2.522  10.192  17.877  0.00  0.00    +0.000 A 
ENDBRANCH   2  10
BRANCH   3  16
ATOM     16  C   UNL     1      -1.111  12.636  19.639  0.00  0.00    +0.000 A 
ATOM     17  C   UNL     1      -0.349  11.806  20.477  0.00  0.00    +0.000 A 
ATOM     18  C   UNL     1       1.050  11.830  20.445  0.00  0.00    +0.000 A 
ATOM     19  C   UNL     1       1.713  12.621  19.512  0.00  0.00    +0.000 A 
ATOM     20  C   UNL     1       0.978  13.407  18.632  0.00  0.00    +0.000 A 
ATOM     21  C   UNL     1      -0.418  13.442  18.721  0.00  0.00    +0.000 A 
ENDBRANCH   3  16
BRANCH   7  22
ATOM     22  C   UNL     1      -5.708  15.248  23.810  0.00  0.00    +0.000 C 
ATOM     23  C   UNL     1      -7.173  14.895  23.937  0.00  0.00    +0.000 C 
ATOM     24  O   UNL     1      -5.211  16.087  24.562  0.00  0.00    +0.000 OA
ENDBRANCH   7  22
BRANCH   1  25
ATOM     25  O   UNL     1      -6.097  12.152  19.232  0.00  0.00    +0.000 OA
BRANCH  25  27
ATOM     26  C   UNL     1      -6.785   9.938  18.919  0.00  0.00    +0.000 C 
ATOM     27  C   UNL     1      -6.665  11.088  19.880  0.00  0.00    +0.000 C 
ATOM     28  O   UNL     1      -7.015  11.026  21.048  0.00  0.00    +0.000 OA
ENDBRANCH  25  27
ENDBRANCH   1  25
TORSDOF 5
ENDMDL
MODEL 4
REMARK VINA RESULT:      -6.5      0.582      1.431
REMARK  Name = 
REMARK  7 active torsions:
REMARK  status: ('A' for Active; 'I' for Inactive)
REMARK    1  A    between atoms: C_1  and  C_2
REMARK    2  A    between atoms: C_2  and  O_4
REMARK    3  A    between atoms: O_4  and  C_5
REMARK    4  A    between atoms: C_6  and  C_7
REMARK    5  A    between atoms: C_13  and  C_14
REMARK    6  A    between atoms: C_23  and  C_24
REMARK    7  A    between atoms: C_24  and  C_25
REMARK                            x       y       z     vdW  Elec       q    Type
REMARK                         _______ _______ _______ _____ _____    ______ ____
ROOT
ATOM      1  C   UNL     1       2.382   5.222  19.782  0.00  0.00    +0.000 A 
ATOM      2  C   UNL     1       3.408   4.524  19.076  0.00  0.00    +0.000 A 
ATOM      3  C   UNL     1       3.911   5.404  18.093  0.00  0.00    +0.000 A 
ATOM      4  N   UNL     1       3.206   6.612  18.232  0.00  0.00    +0.000 N 
ATOM      5  C   UNL     1       3.290   7.797  17.482  0.00  0.00    +0.000 A 
ATOM      6  C   UNL     1       2.583   8.884  17.841  0.00  0.00    +0.000 A 
ATOM      7  C   UNL     1       1.704   8.824  19.002  0.00  0.00    +0.000 A 
ATOM      8  C   UNL     1       1.611   7.684  19.713  0.00  0.00    +0.000 A 
ATOM      9  C   UNL     1       2.340   6.516  19.319  0.00  0.00    +0.000 A 
ENDROOT
BRANCH   2  10
ATOM     10  C   UNL     1       3.862   3.142  19.309  0.00  0.00    +0.000 A 
ATOM     11  C   UNL     1       3.557   2.131  18.384  0.00  0.00    +0.000 A 
ATOM     12  C   UNL     1       4.037   0.827  18.557  0.00  0.00    +0.000 A 
ATOM     13  C   UNL     1       4.856   0.521  19.639  0.00  0.00    +0.000 A 
ATOM     14  C   UNL     1       5.151   1.505  20.579  0.00  0.00    +0.000 A 
ATOM     15  C   UNL     1       4.623   2.792  20.434  0.00  0.00    +0.000 A 
ENDBRANCH   2  10
BRANCH   3  16
ATOM     16  C   UNL     1       4.986   5.200  17.083  0.00  0.00    +0.000 A 
ATOM     17  C   UNL     1       6.241   5.814  17.230  0.00  0.00    +0.000 A 
ATOM     18  C   UNL     1       7.200   5.757  16.212  0.00  0.00    +0.000 A 
ATOM     19  C   UNL     1       6.957   5.009  15.065  0.00  0.00    +0.000 A 
ATOM     20  C   UNL     1       5.745   4.341  14.924  0.00  0.00    +0.000 A 
ATOM     21  C   UNL     1       4.757   4.467  15.907  0.00  0.00    +0.000 A 
ENDBRANCH   3  16
BRANCH   7  22
ATOM     22  C   UNL     1       0.923  10.052  19.383  0.00  0.00    +0.000 C 
ATOM     23  C   UNL     1       0.227  10.133  20.723  0.00  0.00    +0.000 C 
ATOM     24  O   UNL     1       0.819  10.981  18.580  0.00  0.00    +0.000 OA
ENDBRANCH   7  22
BRANCH   1  25
ATOM     25  O   UNL     1       1.686   4.764  20.849  0.00  0.00    +0.000 OA
BRANCH  25  27
ATOM     26  C   UNL     1       1.458   2.713  21.950  0.00  0.00    +0.000 C 
ATOM     27  C   UNL     1       1.081   3.539  20.752  0.00  0.00    +0.000 C 
ATOM     28  O   UNL     1       0.334   3.143  19.871  0.00  0.00    +0.000 OA
ENDBRANCH  25  27
ENDBRANCH   1  25
TORSDOF 5
ENDMDL
MODEL 5
REMARK VINA RESULT:      -6.4      3.040      6.177
REMARK  Name = 
REMARK  7 active torsions:
REMARK  status: ('A' for Active; 'I' for Inactive)
REMARK    1  A    between atoms: C_1  and  C_2
REMARK    2  A    between atoms: C_2  and  O_4
REMARK    3  A    between atoms: O_4  and  C_5
REMARK    4  A    between atoms: C_6  and  C_7
REMARK    5  A    between atoms: C_13  and  C_14
REMARK    6  A    between atoms: C_23  and  C_24
REMARK    7  A    between atoms: C_24  and  C_25
REMARK                            x       y       z     vdW  Elec       q    Type
REMARK                         _______ _______ _______ _____ _____    ______ ____
ROOT
ATOM      1  C   UNL     1       3.957   4.224  16.407  0.00  0.00    +0.000 A 
ATOM      2  C   UNL     1       4.411   5.159  17.388  0.00  0.00    +0.000 A 
ATOM      3  C   UNL     1       5.680   5.617  16.970  0.00  0.00    +0.000 A 
ATOM      4  N   UNL     1       5.960   4.979  15.750  0.00  0.00    +0.000 N 
ATOM      5  C   UNL     1       7.102   5.052  14.935  0.00  0.00    +0.000 A 
ATOM      6  C   UNL     1       7.134   4.425  13.746  0.00  0.00    +0.000 A 
ATOM      7  C   UNL     1       5.984   3.642  13.310  0.00  0.00    +0.000 A 
ATOM      8  C   UNL     1       4.895   3.558  14.097  0.00  0.00    +0.000 A 
ATOM      9  C   UNL     1       4.867   4.202  15.376  0.00  0.00    +0.000 A 
ENDROOT
BRANCH   2  10
ATOM     10  C   UNL     1       3.706   5.570  18.613  0.00  0.00    +0.000 A 
ATOM     11  C   UNL     1       2.997   6.781  18.649  0.00  0.00    +0.000 A 
ATOM     12  C   UNL     1       2.266   7.155  19.783  0.00  0.00    +0.000 A 
ATOM     13  C   UNL     1       2.208   6.311  20.888  0.00  0.00    +0.000 A 
ATOM     14  C   UNL     1       2.924   5.117  20.880  0.00  0.00    +0.000 A 
ATOM     15  C   UNL     1       3.698   4.773  19.768  0.00  0.00    +0.000 A 
ENDBRANCH   2  10
BRANCH   3  16
ATOM     16  C   UNL     1       6.602   6.596  17.609  0.00  0.00    +0.000 A 
ATOM     17  C   UNL     1       6.645   7.933  17.181  0.00  0.00    +0.000 A 
ATOM     18  C   UNL     1       7.615   8.819  17.664  0.00  0.00    +0.000 A 
ATOM     19  C   UNL     1       8.506   8.409  18.650  0.00  0.00    +0.000 A 
ATOM     20  C   UNL     1       8.444   7.107  19.133  0.00  0.00    +0.000 A 
ATOM     21  C   UNL     1       7.526   6.200  18.591  0.00  0.00    +0.000 A 
ENDBRANCH   3  16
BRANCH   7  22
ATOM     22  C   UNL     1       6.044   2.949  11.976  0.00  0.00    +0.000 C 
ATOM     23  C   UNL     1       4.778   2.687  11.191  0.00  0.00    +0.000 C 
ATOM     24  O   UNL     1       7.128   2.558  11.541  0.00  0.00    +0.000 OA
ENDBRANCH   7  22
BRANCH   1  25
ATOM     25  O   UNL     1       2.757   3.599  16.388  0.00  0.00    +0.000 OA
BRANCH  25  27
ATOM     26  C   UNL     1       1.196   3.166  18.076  0.00  0.00    +0.000 C 
ATOM     27  C   UNL     1       2.464   2.725  17.401  0.00  0.00    +0.000 C 
ATOM     28  O   UNL     1       3.086   1.726  17.727  0.00  0.00    +0.000 OA
ENDBRANCH  25  27
ENDBRANCH   1  25
TORSDOF 5
ENDMDL
MODEL 6
REMARK VINA RESULT:      -6.4      2.531      5.776
REMARK  Name = 
REMARK  7 active torsions:
REMARK  status: ('A' for Active; 'I' for Inactive)
REMARK    1  A    between atoms: C_1  and  C_2
REMARK    2  A    between atoms: C_2  and  O_4
REMARK    3  A    between atoms: O_4  and  C_5
REMARK    4  A    between atoms: C_6  and  C_7
REMARK    5  A    between atoms: C_13  and  C_14
REMARK    6  A    between atoms: C_23  and  C_24
REMARK    7  A    between atoms: C_24  and  C_25
REMARK                            x       y       z     vdW  Elec       q    Type
REMARK                         _______ _______ _______ _____ _____    ______ ____
ROOT
ATOM      1  C   UNL     1       4.266   3.653  17.653  0.00  0.00    +0.000 A 
ATOM      2  C   UNL     1       3.376   4.451  18.435  0.00  0.00    +0.000 A 
ATOM      3  C   UNL     1       3.487   5.779  17.968  0.00  0.00    +0.000 A 
ATOM      4  N   UNL     1       4.414   5.761  16.911  0.00  0.00    +0.000 N 
ATOM      5  C   UNL     1       4.913   6.816  16.130  0.00  0.00    +0.000 A 
ATOM      6  C   UNL     1       5.735   6.571  15.094  0.00  0.00    +0.000 A 
ATOM      7  C   UNL     1       6.133   5.200  14.796  0.00  0.00    +0.000 A 
ATOM      8  C   UNL     1       5.668   4.189  15.554  0.00  0.00    +0.000 A 
ATOM      9  C   UNL     1       4.814   4.448  16.674  0.00  0.00    +0.000 A 
ENDROOT
BRANCH   2  10
ATOM     10  C   UNL     1       2.506   3.994  19.532  0.00  0.00    +0.000 A 
ATOM     11  C   UNL     1       1.224   3.492  19.256  0.00  0.00    +0.000 A 
ATOM     12  C   UNL     1       0.411   2.991  20.279  0.00  0.00    +0.000 A 
ATOM     13  C   UNL     1       0.878   2.955  21.590  0.00  0.00    +0.000 A 
ATOM     14  C   UNL     1       2.137   3.469  21.886  0.00  0.00    +0.000 A 
ATOM     15  C   UNL     1       2.925   4.020  20.871  0.00  0.00    +0.000 A 
ENDBRANCH   2  10
BRANCH   3  16
ATOM     16  C   UNL     1       2.790   7.015  18.419  0.00  0.00    +0.000 A 
ATOM     17  C   UNL     1       2.390   7.172  19.756  0.00  0.00    +0.000 A 
ATOM     18  C   UNL     1       1.599   8.255  20.154  0.00  0.00    +0.000 A 
ATOM     19  C   UNL     1       1.265   9.249  19.241  0.00  0.00    +0.000 A 
ATOM     20  C   UNL     1       1.701   9.146  17.924  0.00  0.00    +0.000 A 
ATOM     21  C   UNL     1       2.423   8.022  17.510  0.00  0.00    +0.000 A 
ENDBRANCH   3  16
BRANCH   7  22
ATOM     22  C   UNL     1       7.054   4.951  13.633  0.00  0.00    +0.000 C 
ATOM     23  C   UNL     1       6.723   3.891  12.607  0.00  0.00    +0.000 C 
ATOM     24  O   UNL     1       8.104   5.588  13.541  0.00  0.00    +0.000 OA
ENDBRANCH   7  22
BRANCH   1  25
ATOM     25  O   UNL     1       4.419   2.310  17.730  0.00  0.00    +0.000 OA
BRANCH  25  27
ATOM     26  C   UNL     1       3.419   0.680  19.076  0.00  0.00    +0.000 C 
ATOM     27  C   UNL     1       4.485   1.734  18.970  0.00  0.00    +0.000 C 
ATOM     28  O   UNL     1       5.274   1.984  19.868  0.00  0.00    +0.000 OA
ENDBRANCH  25  27
ENDBRANCH   1  25
TORSDOF 5
ENDMDL
MODEL 7
REMARK VINA RESULT:      -6.4      8.766     12.266
REMARK  Name = 
REMARK  7 active torsions:
REMARK  status: ('A' for Active; 'I' for Inactive)
REMARK    1  A    between atoms: C_1  and  C_2
REMARK    2  A    between atoms: C_2  and  O_4
REMARK    3  A    between atoms: O_4  and  C_5
REMARK    4  A    between atoms: C_6  and  C_7
REMARK    5  A    between atoms: C_13  and  C_14
REMARK    6  A    between atoms: C_23  and  C_24
REMARK    7  A    between atoms: C_24  and  C_25
REMARK                            x       y       z     vdW  Elec       q    Type
REMARK                         _______ _______ _______ _____ _____    ______ ____
ROOT
ATOM      1  C   UNL     1      -5.554  12.296  20.054  0.00  0.00    +0.000 A 
ATOM      2  C   UNL     1      -5.181  13.145  21.141  0.00  0.00    +0.000 A 
ATOM      3  C   UNL     1      -3.781  13.316  21.075  0.00  0.00    +0.000 A 
ATOM      4  N   UNL     1      -3.337  12.596  19.952  0.00  0.00    +0.000 N 
ATOM      5  C   UNL     1      -2.036  12.405  19.460  0.00  0.00    +0.000 A 
ATOM      6  C   UNL     1      -1.832  11.748  18.304  0.00  0.00    +0.000 A 
ATOM      7  C   UNL     1      -2.969  11.209  17.568  0.00  0.00    +0.000 A 
ATOM      8  C   UNL     1      -4.217  11.379  18.047  0.00  0.00    +0.000 A 
ATOM      9  C   UNL     1      -4.436  12.052  19.291  0.00  0.00    +0.000 A 
ENDROOT
BRANCH   2  10
ATOM     10  C   UNL     1      -6.074  13.731  22.154  0.00  0.00    +0.000 A 
ATOM     11  C   UNL     1      -6.522  15.055  22.021  0.00  0.00    +0.000 A 
ATOM     12  C   UNL     1      -7.424  15.606  22.939  0.00  0.00    +0.000 A 
ATOM     13  C   UNL     1      -7.917  14.833  23.986  0.00  0.00    +0.000 A 
ATOM     14  C   UNL     1      -7.466  13.526  24.148  0.00  0.00    +0.000 A 
ATOM     15  C   UNL     1      -6.522  12.997  23.263  0.00  0.00    +0.000 A 
ENDBRANCH   2  10
BRANCH   3  16
ATOM     16  C   UNL     1      -2.869  14.100  21.952  0.00  0.00    +0.000 A 
ATOM     17  C   UNL     1      -2.281  13.517  23.087  0.00  0.00    +0.000 A 
ATOM     18  C   UNL     1      -1.552  14.285  24.002  0.00  0.00    +0.000 A 
ATOM     19  C   UNL     1      -1.322  15.635  23.754  0.00  0.00    +0.000 A 
ATOM     20  C   UNL     1      -1.843  16.221  22.605  0.00  0.00    +0.000 A 
ATOM     21  C   UNL     1      -2.640  15.469  21.734  0.00  0.00    +0.000 A 
ENDBRANCH   3  16
BRANCH   7  22
ATOM     22  C   UNL     1      -2.716  10.478  16.278  0.00  0.00    +0.000 C 
ATOM     23  C   UNL     1      -3.538  10.789  15.047  0.00  0.00    +0.000 C 
ATOM     24  O   UNL     1      -1.859   9.594  16.237  0.00  0.00    +0.000 OA
ENDBRANCH   7  22
BRANCH   1  25
ATOM     25  O   UNL     1      -6.813  11.934  19.712  0.00  0.00    +0.000 OA
BRANCH  25  27
ATOM     26  C   UNL     1      -7.917  10.538  21.230  0.00  0.00    +0.000 C 
ATOM     27  C   UNL     1      -7.193  10.634  19.916  0.00  0.00    +0.000 C 
ATOM     28  O   UNL     1      -7.016   9.680  19.175  0.00  0.00    +0.000 OA
ENDBRANCH  25  27
ENDBRANCH   1  25
TORSDOF 5
ENDMDL
MODEL 8
REMARK VINA RESULT:      -6.3      0.811      1.287
REMARK  Name = 
REMARK  7 active torsions:
REMARK  status: ('A' for Active; 'I' for Inactive)
REMARK    1  A    between atoms: C_1  and  C_2
REMARK    2  A    between atoms: C_2  and  O_4
REMARK    3  A    between atoms: O_4  and  C_5
REMARK    4  A    between atoms: C_6  and  C_7
REMARK    5  A    between atoms: C_13  and  C_14
REMARK    6  A    between atoms: C_23  and  C_24
REMARK    7  A    between atoms: C_24  and  C_25
REMARK                            x       y       z     vdW  Elec       q    Type
REMARK                         _______ _______ _______ _____ _____    ______ ____
ROOT
ATOM      1  C   UNL     1       2.524   5.178  19.983  0.00  0.00    +0.000 A 
ATOM      2  C   UNL     1       3.508   4.492  19.207  0.00  0.00    +0.000 A 
ATOM      3  C   UNL     1       3.911   5.369  18.177  0.00  0.00    +0.000 A 
ATOM      4  N   UNL     1       3.191   6.563  18.355  0.00  0.00    +0.000 N 
ATOM      5  C   UNL     1       3.188   7.738  17.586  0.00  0.00    +0.000 A 
ATOM      6  C   UNL     1       2.486   8.814  17.985  0.00  0.00    +0.000 A 
ATOM      7  C   UNL     1       1.702   8.752  19.213  0.00  0.00    +0.000 A 
ATOM      8  C   UNL     1       1.693   7.621  19.944  0.00  0.00    +0.000 A 
ATOM      9  C   UNL     1       2.416   6.464  19.508  0.00  0.00    +0.000 A 
ENDROOT
BRANCH   2  10
ATOM     10  C   UNL     1       4.011   3.125  19.422  0.00  0.00    +0.000 A 
ATOM     11  C   UNL     1       4.785   2.825  20.555  0.00  0.00    +0.000 A 
ATOM     12  C   UNL     1       5.215   1.518  20.808  0.00  0.00    +0.000 A 
ATOM     13  C   UNL     1       4.851   0.483  19.951  0.00  0.00    +0.000 A 
ATOM     14  C   UNL     1       4.105   0.765  18.811  0.00  0.00    +0.000 A 
ATOM     15  C   UNL     1       3.725   2.081  18.530  0.00  0.00    +0.000 A 
ENDBRANCH   2  10
BRANCH   3  16
ATOM     16  C   UNL     1       4.907   5.174  17.088  0.00  0.00    +0.000 A 
ATOM     17  C   UNL     1       6.200   5.714  17.186  0.00  0.00    +0.000 A 
ATOM     18  C   UNL     1       7.089   5.672  16.106  0.00  0.00    +0.000 A 
ATOM     19  C   UNL     1       6.734   5.009  14.936  0.00  0.00    +0.000 A 
ATOM     20  C   UNL     1       5.481   4.413  14.837  0.00  0.00    +0.000 A 
ATOM     21  C   UNL     1       4.565   4.528  15.888  0.00  0.00    +0.000 A 
ENDBRANCH   3  16
BRANCH   7  22
ATOM     22  C   UNL     1       0.926   9.968  19.638  0.00  0.00    +0.000 C 
ATOM     23  C   UNL     1      -0.099   9.874  20.746  0.00  0.00    +0.000 C 
ATOM     24  O   UNL     1       1.099  11.037  19.051  0.00  0.00    +0.000 OA
ENDBRANCH   7  22
BRANCH   1  25
ATOM     25  O   UNL     1       1.925   4.720  21.108  0.00  0.00    +0.000 OA
BRANCH  25  27
ATOM     26  C   UNL     1       0.488   3.360  19.861  0.00  0.00    +0.000 C 
ATOM     27  C   UNL     1       1.359   3.474  21.081  0.00  0.00    +0.000 C 
ATOM     28  O   UNL     1       1.519   2.564  21.879  0.00  0.00    +0.000 OA
ENDBRANCH  25  27
ENDBRANCH   1  25
TORSDOF 5
ENDMDL
MODEL 9
REMARK VINA RESULT:      -6.3      8.137     10.360
REMARK  Name = 
REMARK  7 active torsions:
REMARK  status: ('A' for Active; 'I' for Inactive)
REMARK    1  A    between atoms: C_1  and  C_2
REMARK    2  A    between atoms: C_2  and  O_4
REMARK    3  A    between atoms: O_4  and  C_5
REMARK    4  A    between atoms: C_6  and  C_7
REMARK    5  A    between atoms: C_13  and  C_14
REMARK    6  A    between atoms: C_23  and  C_24
REMARK    7  A    between atoms: C_24  and  C_25
REMARK                            x       y       z     vdW  Elec       q    Type
REMARK                         _______ _______ _______ _____ _____    ______ ____
ROOT
ATOM      1  C   UNL     1      -4.807  12.770  19.724  0.00  0.00    +0.000 A 
ATOM      2  C   UNL     1      -3.549  12.365  19.183  0.00  0.00    +0.000 A 
ATOM      3  C   UNL     1      -2.543  12.978  19.962  0.00  0.00    +0.000 A 
ATOM      4  N   UNL     1      -3.200  13.717  20.963  0.00  0.00    +0.000 N 
ATOM      5  C   UNL     1      -2.670  14.539  21.970  0.00  0.00    +0.000 A 
ATOM      6  C   UNL     1      -3.475  15.091  22.895  0.00  0.00    +0.000 A 
ATOM      7  C   UNL     1      -4.913  14.855  22.836  0.00  0.00    +0.000 A 
ATOM      8  C   UNL     1      -5.423  14.078  21.861  0.00  0.00    +0.000 A 
ATOM      9  C   UNL     1      -4.573  13.511  20.858  0.00  0.00    +0.000 A 
ENDROOT
BRANCH   2  10
ATOM     10  C   UNL     1      -3.324  11.483  18.026  0.00  0.00    +0.000 A 
ATOM     11  C   UNL     1      -2.358  10.466  18.088  0.00  0.00    +0.000 A 
ATOM     12  C   UNL     1      -2.178   9.577  17.022  0.00  0.00    +0.000 A 
ATOM     13  C   UNL     1      -2.982   9.670  15.890  0.00  0.00    +0.000 A 
ATOM     14  C   UNL     1      -3.929  10.686  15.800  0.00  0.00    +0.000 A 
ATOM     15  C   UNL     1      -4.068  11.607  16.843  0.00  0.00    +0.000 A 
ENDBRANCH   2  10
BRANCH   3  16
ATOM     16  C   UNL     1      -1.061  12.900  19.847  0.00  0.00    +0.000 A 
ATOM     17  C   UNL     1      -0.377  13.600  18.839  0.00  0.00    +0.000 A 
ATOM     18  C   UNL     1       0.992  13.410  18.625  0.00  0.00    +0.000 A 
ATOM     19  C   UNL     1       1.723  12.583  19.472  0.00  0.00    +0.000 A 
ATOM     20  C   UNL     1       1.079  11.926  20.515  0.00  0.00    +0.000 A 
ATOM     21  C   UNL     1      -0.305  12.055  20.676  0.00  0.00    +0.000 A 
ENDBRANCH   3  16
BRANCH   7  22
ATOM     22  C   UNL     1      -5.793  15.484  23.881  0.00  0.00    +0.000 C 
ATOM     23  C   UNL     1      -5.336  16.718  24.626  0.00  0.00    +0.000 C 
ATOM     24  O   UNL     1      -6.876  14.965  24.158  0.00  0.00    +0.000 OA
ENDBRANCH   7  22
BRANCH   1  25
ATOM     25  O   UNL     1      -6.029  12.356  19.314  0.00  0.00    +0.000 OA
BRANCH  25  27
ATOM     26  C   UNL     1      -6.751  10.187  18.819  0.00  0.00    +0.000 C 
ATOM     27  C   UNL     1      -6.558  11.229  19.885  0.00  0.00    +0.000 C 
ATOM     28  O   UNL     1      -6.826  11.044  21.061  0.00  0.00    +0.000 OA
ENDBRANCH  25  27
ENDBRANCH   1  25
TORSDOF 5
ENDMDL
