MODEL 1
REMARK VINA RESULT:      -9.3      0.000      0.000
REMARK  Name = 
REMARK  5 active torsions:
REMARK  status: ('A' for Active; 'I' for Inactive)
REMARK    1  A    between atoms: C_1  and  C_2
REMARK    2  A    between atoms: C_4  and  S_5
REMARK    3  A    between atoms: S_5  and  C_6
REMARK    4  A    between atoms: C_6  and  C_7
REMARK    5  A    between atoms: C_11  and  C_12
REMARK                            x       y       z     vdW  Elec       q    Type
REMARK                         _______ _______ _______ _____ _____    ______ ____
ROOT
ATOM      1  S   UNL     1       3.674   4.486  18.023  0.00  0.00    +0.000 S 
ENDROOT
BRANCH   1   5
ATOM      2  C   UNL     1       7.973   7.398  18.267  0.00  0.00    +0.000 C 
ATOM      3  C   UNL     1       7.096   6.478  17.469  0.00  0.00    +0.000 A 
ATOM      4  N   UNL     1       5.968   6.006  18.064  0.00  0.00    +0.000 NA
ATOM      5  C   UNL     1       5.168   5.163  17.365  0.00  0.00    +0.000 A 
ATOM      6  C   UNL     1       5.553   4.849  16.072  0.00  0.00    +0.000 A 
ATOM      7  O   UNL     1       4.925   4.044  15.168  0.00  0.00    +0.000 OA
ATOM      8  C   UNL     1       5.689   4.052  14.040  0.00  0.00    +0.000 A 
ATOM      9  C   UNL     1       5.395   3.351  12.873  0.00  0.00    +0.000 A 
ATOM     10  C   UNL     1       6.303   3.486  11.818  0.00  0.00    +0.000 A 
ATOM     11  C   UNL     1       7.441   4.285  11.943  0.00  0.00    +0.000 A 
ATOM     12  C   UNL     1       7.711   4.981  13.131  0.00  0.00    +0.000 A 
ATOM     13  C   UNL     1       6.810   4.860  14.206  0.00  0.00    +0.000 A 
ATOM     14  C   UNL     1       6.713   5.373  15.529  0.00  0.00    +0.000 A 
ATOM     15  N   UNL     1       7.524   6.208  16.217  0.00  0.00    +0.000 NA
ENDBRANCH   1   5
BRANCH   1  16
ATOM     16  C   UNL     1       3.641   5.140  19.726  0.00  0.00    +0.000 C 
BRANCH  16  17
ATOM     17  C   UNL     1       2.779   6.372  19.785  0.00  0.00    +0.000 A 
ATOM     18  N   UNL     1       2.621   7.290  18.848  0.00  0.00    +0.000 NA
ATOM     19  C   UNL     1       1.751   8.220  19.372  0.00  0.00    +0.000 A 
ATOM     20  C   UNL     1       1.250   9.407  18.810  0.00  0.00    +0.000 A 
ATOM     21  C   UNL     1       0.356  10.201  19.556  0.00  0.00    +0.000 A 
ATOM     22  C   UNL     1      -0.016   9.798  20.849  0.00  0.00    +0.000 A 
ATOM     23  C   UNL     1       0.475   8.620  21.427  0.00  0.00    +0.000 A 
ATOM     24  C   UNL     1       1.353   7.859  20.652  0.00  0.00    +0.000 A 
ATOM     25  N   UNL     1       2.011   6.680  20.888  0.00  0.00    +0.000 N 
ATOM     26  H   UNL     1       1.979   6.143  21.743  0.00  0.00    +0.000 HD
BRANCH  21  27
ATOM     27  C   UNL     1      -0.206  11.479  18.980  0.00  0.00    +0.000 C 
ATOM     28  F   UNL     1       0.743  12.357  18.553  0.00  0.00    +0.000 F 
ATOM     29  F   UNL     1      -1.012  11.252  17.904  0.00  0.00    +0.000 F 
ATOM     30  F   UNL     1      -0.971  12.164  19.876  0.00  0.00    +0.000 F 
ENDBRANCH  21  27
ENDBRANCH  16  17
ENDBRANCH   1  16
TORSDOF 4
ENDMDL
MODEL 2
REMARK VINA RESULT:      -9.2      0.821      1.575
REMARK  Name = 
REMARK  5 active torsions:
REMARK  status: ('A' for Active; 'I' for Inactive)
REMARK    1  A    between atoms: C_1  and  C_2
REMARK    2  A    between atoms: C_4  and  S_5
REMARK    3  A    between atoms: S_5  and  C_6
REMARK    4  A    between atoms: C_6  and  C_7
REMARK    5  A    between atoms: C_11  and  C_12
REMARK                            x       y       z     vdW  Elec       q    Type
REMARK                         _______ _______ _______ _____ _____    ______ ____
ROOT
ATOM      1  S   UNL     1       4.057   3.761  18.115  0.00  0.00    +0.000 S 
ENDROOT
BRANCH   1   5
ATOM      2  C   UNL     1       8.024   7.097  18.509  0.00  0.00    +0.000 C 
ATOM      3  C   UNL     1       7.214   6.171  17.650  0.00  0.00    +0.000 A 
ATOM      4  N   UNL     1       6.173   5.517  18.233  0.00  0.00    +0.000 NA
ATOM      5  C   UNL     1       5.436   4.666  17.479  0.00  0.00    +0.000 A 
ATOM      6  C   UNL     1       5.789   4.529  16.146  0.00  0.00    +0.000 A 
ATOM      7  O   UNL     1       5.209   3.755  15.185  0.00  0.00    +0.000 OA
ATOM      8  C   UNL     1       5.912   3.963  14.038  0.00  0.00    +0.000 A 
ATOM      9  C   UNL     1       5.639   3.355  12.814  0.00  0.00    +0.000 A 
ATOM     10  C   UNL     1       6.475   3.698  11.746  0.00  0.00    +0.000 A 
ATOM     11  C   UNL     1       7.525   4.603  11.913  0.00  0.00    +0.000 A 
ATOM     12  C   UNL     1       7.776   5.201  13.158  0.00  0.00    +0.000 A 
ATOM     13  C   UNL     1       6.946   4.870  14.247  0.00  0.00    +0.000 A 
ATOM     14  C   UNL     1       6.859   5.233  15.620  0.00  0.00    +0.000 A 
ATOM     15  N   UNL     1       7.607   6.079  16.362  0.00  0.00    +0.000 NA
ENDBRANCH   1   5
BRANCH   1  16
ATOM     16  C   UNL     1       3.789   4.520  19.754  0.00  0.00    +0.000 C 
BRANCH  16  17
ATOM     17  C   UNL     1       3.079   5.837  19.599  0.00  0.00    +0.000 A 
ATOM     18  N   UNL     1       2.349   6.470  20.501  0.00  0.00    +0.000 NA
ATOM     19  C   UNL     1       1.903   7.619  19.889  0.00  0.00    +0.000 A 
ATOM     20  C   UNL     1       1.081   8.646  20.383  0.00  0.00    +0.000 A 
ATOM     21  C   UNL     1       0.761   9.737  19.550  0.00  0.00    +0.000 A 
ATOM     22  C   UNL     1       1.264   9.779  18.239  0.00  0.00    +0.000 A 
ATOM     23  C   UNL     1       2.083   8.763  17.727  0.00  0.00    +0.000 A 
ATOM     24  C   UNL     1       2.379   7.703  18.588  0.00  0.00    +0.000 A 
ATOM     25  N   UNL     1       3.129   6.567  18.430  0.00  0.00    +0.000 N 
ATOM     26  H   UNL     1       3.606   6.283  17.587  0.00  0.00    +0.000 HD
BRANCH  21  27
ATOM     27  C   UNL     1      -0.113  10.861  20.052  0.00  0.00    +0.000 C 
ATOM     28  F   UNL     1      -1.342  10.909  19.468  0.00  0.00    +0.000 F 
ATOM     29  F   UNL     1      -0.343  10.781  21.393  0.00  0.00    +0.000 F 
ATOM     30  F   UNL     1       0.444  12.088  19.847  0.00  0.00    +0.000 F 
ENDBRANCH  21  27
ENDBRANCH  16  17
ENDBRANCH   1  16
TORSDOF 4
ENDMDL
MODEL 3
REMARK VINA RESULT:      -9.2      1.579      2.203
REMARK  Name = 
REMARK  5 active torsions:
REMARK  status: ('A' for Active; 'I' for Inactive)
REMARK    1  A    between atoms: C_1  and  C_2
REMARK    2  A    between atoms: C_4  and  S_5
REMARK    3  A    between atoms: S_5  and  C_6
REMARK    4  A    between atoms: C_6  and  C_7
REMARK    5  A    between atoms: C_11  and  C_12
REMARK                            x       y       z     vdW  Elec       q    Type
REMARK                         _______ _______ _______ _____ _____    ______ ____
ROOT
ATOM      1  S   UNL     1       4.937   3.718  18.734  0.00  0.00    +0.000 S 
ENDROOT
BRANCH   1   5
ATOM      2  C   UNL     1       8.119   7.803  18.275  0.00  0.00    +0.000 C 
ATOM      3  C   UNL     1       7.420   6.648  17.620  0.00  0.00    +0.000 A 
ATOM      4  N   UNL     1       6.628   5.864  18.400  0.00  0.00    +0.000 NA
ATOM      5  C   UNL     1       5.997   4.808  17.831  0.00  0.00    +0.000 A 
ATOM      6  C   UNL     1       6.193   4.606  16.475  0.00  0.00    +0.000 A 
ATOM      7  O   UNL     1       5.670   3.635  15.673  0.00  0.00    +0.000 OA
ATOM      8  C   UNL     1       6.156   3.858  14.420  0.00  0.00    +0.000 A 
ATOM      9  C   UNL     1       5.861   3.083  13.301  0.00  0.00    +0.000 A 
ATOM     10  C   UNL     1       6.457   3.472  12.097  0.00  0.00    +0.000 A 
ATOM     11  C   UNL     1       7.303   4.582  12.036  0.00  0.00    +0.000 A 
ATOM     12  C   UNL     1       7.581   5.345  13.180  0.00  0.00    +0.000 A 
ATOM     13  C   UNL     1       6.991   4.971  14.403  0.00  0.00    +0.000 A 
ATOM     14  C   UNL     1       7.010   5.451  15.742  0.00  0.00    +0.000 A 
ATOM     15  N   UNL     1       7.651   6.503  16.298  0.00  0.00    +0.000 NA
ENDBRANCH   1   5
BRANCH   1  16
ATOM     16  C   UNL     1       3.288   4.084  18.044  0.00  0.00    +0.000 C 
BRANCH  16  17
ATOM     17  C   UNL     1       2.712   5.303  18.712  0.00  0.00    +0.000 A 
ATOM     18  N   UNL     1       2.161   5.380  19.911  0.00  0.00    +0.000 NA
ATOM     19  C   UNL     1       1.777   6.693  20.069  0.00  0.00    +0.000 A 
ATOM     20  C   UNL     1       1.133   7.324  21.146  0.00  0.00    +0.000 A 
ATOM     21  C   UNL     1       0.843   8.701  21.068  0.00  0.00    +0.000 A 
ATOM     22  C   UNL     1       1.198   9.420  19.914  0.00  0.00    +0.000 A 
ATOM     23  C   UNL     1       1.839   8.807  18.828  0.00  0.00    +0.000 A 
ATOM     24  C   UNL     1       2.112   7.443  18.950  0.00  0.00    +0.000 A 
ATOM     25  N   UNL     1       2.711   6.542  18.108  0.00  0.00    +0.000 N 
ATOM     26  H   UNL     1       3.057   6.737  17.179  0.00  0.00    +0.000 HD
BRANCH  21  27
ATOM     27  C   UNL     1       0.158   9.411  22.211  0.00  0.00    +0.000 C 
ATOM     28  F   UNL     1      -0.282  10.662  21.900  0.00  0.00    +0.000 F 
ATOM     29  F   UNL     1      -0.935   8.734  22.662  0.00  0.00    +0.000 F 
ATOM     30  F   UNL     1       0.971   9.561  23.295  0.00  0.00    +0.000 F 
ENDBRANCH  21  27
ENDBRANCH  16  17
ENDBRANCH   1  16
TORSDOF 4
ENDMDL
MODEL 4
REMARK VINA RESULT:      -8.9      1.006      1.313
REMARK  Name = 
REMARK  5 active torsions:
REMARK  status: ('A' for Active; 'I' for Inactive)
REMARK    1  A    between atoms: C_1  and  C_2
REMARK    2  A    between atoms: C_4  and  S_5
REMARK    3  A    between atoms: S_5  and  C_6
REMARK    4  A    between atoms: C_6  and  C_7
REMARK    5  A    between atoms: C_11  and  C_12
REMARK                            x       y       z     vdW  Elec       q    Type
REMARK                         _______ _______ _______ _____ _____    ______ ____
ROOT
ATOM      1  S   UNL     1       4.760   3.849  18.688  0.00  0.00    +0.000 S 
ENDROOT
BRANCH   1   5
ATOM      2  C   UNL     1       8.116   7.797  18.264  0.00  0.00    +0.000 C 
ATOM      3  C   UNL     1       7.387   6.662  17.605  0.00  0.00    +0.000 A 
ATOM      4  N   UNL     1       6.544   5.922  18.373  0.00  0.00    +0.000 NA
ATOM      5  C   UNL     1       5.886   4.884  17.801  0.00  0.00    +0.000 A 
ATOM      6  C   UNL     1       6.109   4.656  16.453  0.00  0.00    +0.000 A 
ATOM      7  O   UNL     1       5.568   3.697  15.649  0.00  0.00    +0.000 OA
ATOM      8  C   UNL     1       6.095   3.883  14.407  0.00  0.00    +0.000 A 
ATOM      9  C   UNL     1       5.797   3.106  13.290  0.00  0.00    +0.000 A 
ATOM     10  C   UNL     1       6.440   3.454  12.098  0.00  0.00    +0.000 A 
ATOM     11  C   UNL     1       7.331   4.529  12.045  0.00  0.00    +0.000 A 
ATOM     12  C   UNL     1       7.611   5.295  13.187  0.00  0.00    +0.000 A 
ATOM     13  C   UNL     1       6.975   4.961  14.399  0.00  0.00    +0.000 A 
ATOM     14  C   UNL     1       6.978   5.457  15.732  0.00  0.00    +0.000 A 
ATOM     15  N   UNL     1       7.647   6.490  16.291  0.00  0.00    +0.000 NA
ENDBRANCH   1   5
BRANCH   1  16
ATOM     16  C   UNL     1       3.148   4.255  17.935  0.00  0.00    +0.000 C 
BRANCH  16  17
ATOM     17  C   UNL     1       2.661   5.582  18.451  0.00  0.00    +0.000 A 
ATOM     18  N   UNL     1       2.545   6.714  17.779  0.00  0.00    +0.000 NA
ATOM     19  C   UNL     1       2.073   7.642  18.679  0.00  0.00    +0.000 A 
ATOM     20  C   UNL     1       1.782   9.006  18.504  0.00  0.00    +0.000 A 
ATOM     21  C   UNL     1       1.301   9.756  19.596  0.00  0.00    +0.000 A 
ATOM     22  C   UNL     1       1.125   9.132  20.842  0.00  0.00    +0.000 A 
ATOM     23  C   UNL     1       1.413   7.775  21.037  0.00  0.00    +0.000 A 
ATOM     24  C   UNL     1       1.881   7.067  19.928  0.00  0.00    +0.000 A 
ATOM     25  N   UNL     1       2.253   5.759  19.756  0.00  0.00    +0.000 N 
ATOM     26  H   UNL     1       2.269   5.047  20.472  0.00  0.00    +0.000 HD
BRANCH  21  27
ATOM     27  C   UNL     1       0.972  11.222  19.439  0.00  0.00    +0.000 C 
ATOM     28  F   UNL     1      -0.353  11.474  19.256  0.00  0.00    +0.000 F 
ATOM     29  F   UNL     1       1.342  11.956  20.526  0.00  0.00    +0.000 F 
ATOM     30  F   UNL     1       1.610  11.790  18.377  0.00  0.00    +0.000 F 
ENDBRANCH  21  27
ENDBRANCH  16  17
ENDBRANCH   1  16
TORSDOF 4
ENDMDL
MODEL 5
REMARK VINA RESULT:      -8.9      5.196      6.922
REMARK  Name = 
REMARK  5 active torsions:
REMARK  status: ('A' for Active; 'I' for Inactive)
REMARK    1  A    between atoms: C_1  and  C_2
REMARK    2  A    between atoms: C_4  and  S_5
REMARK    3  A    between atoms: S_5  and  C_6
REMARK    4  A    between atoms: C_6  and  C_7
REMARK    5  A    between atoms: C_11  and  C_12
REMARK                            x       y       z     vdW  Elec       q    Type
REMARK                         _______ _______ _______ _____ _____    ______ ____
ROOT
ATOM      1  S   UNL     1       7.883   6.720  18.460  0.00  0.00    +0.000 S 
ENDROOT
BRANCH   1   5
ATOM      2  C   UNL     1       3.854   3.472  18.946  0.00  0.00    +0.000 C 
ATOM      3  C   UNL     1       4.892   4.096  18.061  0.00  0.00    +0.000 A 
ATOM      4  N   UNL     1       5.759   4.978  18.628  0.00  0.00    +0.000 NA
ATOM      5  C   UNL     1       6.697   5.563  17.844  0.00  0.00    +0.000 A 
ATOM      6  C   UNL     1       6.717   5.208  16.505  0.00  0.00    +0.000 A 
ATOM      7  O   UNL     1       7.557   5.640  15.521  0.00  0.00    +0.000 OA
ATOM      8  C   UNL     1       7.180   5.003  14.378  0.00  0.00    +0.000 A 
ATOM      9  C   UNL     1       7.788   5.168  13.136  0.00  0.00    +0.000 A 
ATOM     10  C   UNL     1       7.258   4.424  12.076  0.00  0.00    +0.000 A 
ATOM     11  C   UNL     1       6.174   3.565  12.269  0.00  0.00    +0.000 A 
ATOM     12  C   UNL     1       5.581   3.418  13.533  0.00  0.00    +0.000 A 
ATOM     13  C   UNL     1       6.099   4.157  14.614  0.00  0.00    +0.000 A 
ATOM     14  C   UNL     1       5.806   4.297  15.998  0.00  0.00    +0.000 A 
ATOM     15  N   UNL     1       4.861   3.712  16.767  0.00  0.00    +0.000 NA
ENDBRANCH   1   5
BRANCH   1  16
ATOM     16  C   UNL     1       7.597   8.193  17.421  0.00  0.00    +0.000 C 
BRANCH  16  17
ATOM     17  C   UNL     1       8.283   9.388  18.027  0.00  0.00    +0.000 A 
ATOM     18  N   UNL     1       8.348  10.614  17.537  0.00  0.00    +0.000 NA
ATOM     19  C   UNL     1       9.089  11.344  18.439  0.00  0.00    +0.000 A 
ATOM     20  C   UNL     1       9.475  12.694  18.409  0.00  0.00    +0.000 A 
ATOM     21  C   UNL     1      10.243  13.217  19.468  0.00  0.00    +0.000 A 
ATOM     22  C   UNL     1      10.614  12.381  20.535  0.00  0.00    +0.000 A 
ATOM     23  C   UNL     1      10.241  11.031  20.581  0.00  0.00    +0.000 A 
ATOM     24  C   UNL     1       9.476  10.555  19.514  0.00  0.00    +0.000 A 
ATOM     25  N   UNL     1       8.946   9.322  19.234  0.00  0.00    +0.000 N 
ATOM     26  H   UNL     1       9.055   8.488  19.793  0.00  0.00    +0.000 HD
BRANCH  21  27
ATOM     27  C   UNL     1      10.670  14.666  19.470  0.00  0.00    +0.000 C 
ATOM     28  F   UNL     1      11.588  14.971  20.429  0.00  0.00    +0.000 F 
ATOM     29  F   UNL     1      11.229  15.044  18.287  0.00  0.00    +0.000 F 
ATOM     30  F   UNL     1       9.625  15.518  19.672  0.00  0.00    +0.000 F 
ENDBRANCH  21  27
ENDBRANCH  16  17
ENDBRANCH   1  16
TORSDOF 4
ENDMDL
MODEL 6
REMARK VINA RESULT:      -8.9      1.117      1.231
REMARK  Name = 
REMARK  5 active torsions:
REMARK  status: ('A' for Active; 'I' for Inactive)
REMARK    1  A    between atoms: C_1  and  C_2
REMARK    2  A    between atoms: C_4  and  S_5
REMARK    3  A    between atoms: S_5  and  C_6
REMARK    4  A    between atoms: C_6  and  C_7
REMARK    5  A    between atoms: C_11  and  C_12
REMARK                            x       y       z     vdW  Elec       q    Type
REMARK                         _______ _______ _______ _____ _____    ______ ____
ROOT
ATOM      1  S   UNL     1       3.759   3.149  18.089  0.00  0.00    +0.000 S 
ENDROOT
BRANCH   1   5
ATOM      2  C   UNL     1       8.039   5.848  19.281  0.00  0.00    +0.000 C 
ATOM      3  C   UNL     1       7.181   5.213  18.226  0.00  0.00    +0.000 A 
ATOM      4  N   UNL     1       6.044   4.584  18.630  0.00  0.00    +0.000 NA
ATOM      5  C   UNL     1       5.262   3.993  17.695  0.00  0.00    +0.000 A 
ATOM      6  C   UNL     1       5.671   4.083  16.374  0.00  0.00    +0.000 A 
ATOM      7  O   UNL     1       5.063   3.589  15.258  0.00  0.00    +0.000 OA
ATOM      8  C   UNL     1       5.847   3.937  14.200  0.00  0.00    +0.000 A 
ATOM      9  C   UNL     1       5.577   3.621  12.870  0.00  0.00    +0.000 A 
ATOM     10  C   UNL     1       6.503   4.067  11.921  0.00  0.00    +0.000 A 
ATOM     11  C   UNL     1       7.635   4.791  12.303  0.00  0.00    +0.000 A 
ATOM     12  C   UNL     1       7.880   5.096  13.651  0.00  0.00    +0.000 A 
ATOM     13  C   UNL     1       6.961   4.656  14.622  0.00  0.00    +0.000 A 
ATOM     14  C   UNL     1       6.838   4.746  16.037  0.00  0.00    +0.000 A 
ATOM     15  N   UNL     1       7.632   5.333  16.959  0.00  0.00    +0.000 NA
ENDBRANCH   1   5
BRANCH   1  16
ATOM     16  C   UNL     1       3.420   3.692  19.799  0.00  0.00    +0.000 C 
BRANCH  16  17
ATOM     17  C   UNL     1       2.856   5.086  19.792  0.00  0.00    +0.000 A 
ATOM     18  N   UNL     1       2.964   5.994  18.838  0.00  0.00    +0.000 NA
ATOM     19  C   UNL     1       2.297   7.108  19.296  0.00  0.00    +0.000 A 
ATOM     20  C   UNL     1       2.111   8.363  18.693  0.00  0.00    +0.000 A 
ATOM     21  C   UNL     1       1.377   9.355  19.374  0.00  0.00    +0.000 A 
ATOM     22  C   UNL     1       0.848   9.077  20.645  0.00  0.00    +0.000 A 
ATOM     23  C   UNL     1       1.026   7.832  21.264  0.00  0.00    +0.000 A 
ATOM     24  C   UNL     1       1.755   6.876  20.553  0.00  0.00    +0.000 A 
ATOM     25  N   UNL     1       2.115   5.585  20.842  0.00  0.00    +0.000 N 
ATOM     26  H   UNL     1       1.912   5.090  21.698  0.00  0.00    +0.000 HD
BRANCH  21  27
ATOM     27  C   UNL     1       1.152  10.712  18.751  0.00  0.00    +0.000 C 
ATOM     28  F   UNL     1       2.034  11.019  17.760  0.00  0.00    +0.000 F 
ATOM     29  F   UNL     1      -0.086  10.829  18.193  0.00  0.00    +0.000 F 
ATOM     30  F   UNL     1       1.244  11.725  19.658  0.00  0.00    +0.000 F 
ENDBRANCH  21  27
ENDBRANCH  16  17
ENDBRANCH   1  16
TORSDOF 4
ENDMDL
MODEL 7
REMARK VINA RESULT:      -8.8      4.216      7.348
REMARK  Name = 
REMARK  5 active torsions:
REMARK  status: ('A' for Active; 'I' for Inactive)
REMARK    1  A    between atoms: C_1  and  C_2
REMARK    2  A    between atoms: C_4  and  S_5
REMARK    3  A    between atoms: S_5  and  C_6
REMARK    4  A    between atoms: C_6  and  C_7
REMARK    5  A    between atoms: C_11  and  C_12
REMARK                            x       y       z     vdW  Elec       q    Type
REMARK                         _______ _______ _______ _____ _____    ______ ____
ROOT
ATOM      1  S   UNL     1       5.975   6.092  16.497  0.00  0.00    +0.000 S 
ENDROOT
BRANCH   1   5
ATOM      2  C   UNL     1       2.071   9.238  17.874  0.00  0.00    +0.000 C 
ATOM      3  C   UNL     1       2.783   7.929  18.056  0.00  0.00    +0.000 A 
ATOM      4  N   UNL     1       3.883   7.695  17.290  0.00  0.00    +0.000 NA
ATOM      5  C   UNL     1       4.533   6.514  17.429  0.00  0.00    +0.000 A 
ATOM      6  C   UNL     1       4.036   5.622  18.364  0.00  0.00    +0.000 A 
ATOM      7  O   UNL     1       4.508   4.387  18.700  0.00  0.00    +0.000 OA
ATOM      8  C   UNL     1       3.682   3.903  19.668  0.00  0.00    +0.000 A 
ATOM      9  C   UNL     1       3.820   2.661  20.285  0.00  0.00    +0.000 A 
ATOM     10  C   UNL     1       2.871   2.340  21.262  0.00  0.00    +0.000 A 
ATOM     11  C   UNL     1       1.845   3.229  21.591  0.00  0.00    +0.000 A 
ATOM     12  C   UNL     1       1.732   4.474  20.953  0.00  0.00    +0.000 A 
ATOM     13  C   UNL     1       2.676   4.817  19.966  0.00  0.00    +0.000 A 
ATOM     14  C   UNL     1       2.914   5.931  19.114  0.00  0.00    +0.000 A 
ATOM     15  N   UNL     1       2.251   7.101  18.980  0.00  0.00    +0.000 NA
ENDBRANCH   1   5
BRANCH   1  16
ATOM     16  C   UNL     1       7.296   6.104  17.757  0.00  0.00    +0.000 C 
BRANCH  16  17
ATOM     17  C   UNL     1       7.775   7.511  17.983  0.00  0.00    +0.000 A 
ATOM     18  N   UNL     1       7.503   8.582  17.258  0.00  0.00    +0.000 NA
ATOM     19  C   UNL     1       8.177   9.625  17.852  0.00  0.00    +0.000 A 
ATOM     20  C   UNL     1       8.249  10.980  17.488  0.00  0.00    +0.000 A 
ATOM     21  C   UNL     1       9.017  11.866  18.270  0.00  0.00    +0.000 A 
ATOM     22  C   UNL     1       9.702  11.381  19.397  0.00  0.00    +0.000 A 
ATOM     23  C   UNL     1       9.645  10.033  19.774  0.00  0.00    +0.000 A 
ATOM     24  C   UNL     1       8.868   9.190  18.975  0.00  0.00    +0.000 A 
ATOM     25  N   UNL     1       8.591   7.849  19.042  0.00  0.00    +0.000 N 
ATOM     26  H   UNL     1       8.955   7.202  19.726  0.00  0.00    +0.000 HD
BRANCH  21  27
ATOM     27  C   UNL     1       9.110  13.330  17.911  0.00  0.00    +0.000 C 
ATOM     28  F   UNL     1      10.048  13.609  16.964  0.00  0.00    +0.000 F 
ATOM     29  F   UNL     1       7.935  13.820  17.424  0.00  0.00    +0.000 F 
ATOM     30  F   UNL     1       9.419  14.112  18.983  0.00  0.00    +0.000 F 
ENDBRANCH  21  27
ENDBRANCH  16  17
ENDBRANCH   1  16
TORSDOF 4
ENDMDL
MODEL 8
REMARK VINA RESULT:      -8.6      4.751      7.682
REMARK  Name = 
REMARK  5 active torsions:
REMARK  status: ('A' for Active; 'I' for Inactive)
REMARK    1  A    between atoms: C_1  and  C_2
REMARK    2  A    between atoms: C_4  and  S_5
REMARK    3  A    between atoms: S_5  and  C_6
REMARK    4  A    between atoms: C_6  and  C_7
REMARK    5  A    between atoms: C_11  and  C_12
REMARK                            x       y       z     vdW  Elec       q    Type
REMARK                         _______ _______ _______ _____ _____    ______ ____
ROOT
ATOM      1  S   UNL     1       7.369   6.736  18.568  0.00  0.00    +0.000 S 
ENDROOT
BRANCH   1   5
ATOM      2  C   UNL     1       6.161   3.783  14.464  0.00  0.00    +0.000 C 
ATOM      3  C   UNL     1       5.786   4.297  15.823  0.00  0.00    +0.000 A 
ATOM      4  N   UNL     1       6.649   5.151  16.436  0.00  0.00    +0.000 NA
ATOM      5  C   UNL     1       6.335   5.618  17.669  0.00  0.00    +0.000 A 
ATOM      6  C   UNL     1       5.136   5.199  18.221  0.00  0.00    +0.000 A 
ATOM      7  O   UNL     1       4.591   5.528  19.427  0.00  0.00    +0.000 OA
ATOM      8  C   UNL     1       3.404   4.866  19.514  0.00  0.00    +0.000 A 
ATOM      9  C   UNL     1       2.532   4.933  20.598  0.00  0.00    +0.000 A 
ATOM     10  C   UNL     1       1.357   4.181  20.501  0.00  0.00    +0.000 A 
ATOM     11  C   UNL     1       1.086   3.407  19.370  0.00  0.00    +0.000 A 
ATOM     12  C   UNL     1       1.984   3.360  18.293  0.00  0.00    +0.000 A 
ATOM     13  C   UNL     1       3.173   4.110  18.369  0.00  0.00    +0.000 A 
ATOM     14  C   UNL     1       4.303   4.332  17.535  0.00  0.00    +0.000 A 
ATOM     15  N   UNL     1       4.607   3.853  16.308  0.00  0.00    +0.000 NA
ENDBRANCH   1   5
BRANCH   1  16
ATOM     16  C   UNL     1       7.774   8.010  17.325  0.00  0.00    +0.000 C 
BRANCH  16  17
ATOM     17  C   UNL     1       8.340   9.226  18.005  0.00  0.00    +0.000 A 
ATOM     18  N   UNL     1       8.351  10.469  17.555  0.00  0.00    +0.000 NA
ATOM     19  C   UNL     1       8.985  11.217  18.521  0.00  0.00    +0.000 A 
ATOM     20  C   UNL     1       9.280  12.591  18.552  0.00  0.00    +0.000 A 
ATOM     21  C   UNL     1       9.946  13.129  19.671  0.00  0.00    +0.000 A 
ATOM     22  C   UNL     1      10.308  12.286  20.735  0.00  0.00    +0.000 A 
ATOM     23  C   UNL     1      10.025  10.913  20.720  0.00  0.00    +0.000 A 
ATOM     24  C   UNL     1       9.359  10.422  19.595  0.00  0.00    +0.000 A 
ATOM     25  N   UNL     1       8.932   9.166  19.248  0.00  0.00    +0.000 N 
ATOM     26  H   UNL     1       9.065   8.324  19.790  0.00  0.00    +0.000 HD
BRANCH  21  27
ATOM     27  C   UNL     1      10.272  14.602  19.740  0.00  0.00    +0.000 C 
ATOM     28  F   UNL     1      11.182  15.011  18.814  0.00  0.00    +0.000 F 
ATOM     29  F   UNL     1       9.173  15.387  19.551  0.00  0.00    +0.000 F 
ATOM     30  F   UNL     1      10.781  14.969  20.950  0.00  0.00    +0.000 F 
ENDBRANCH  21  27
ENDBRANCH  16  17
ENDBRANCH   1  16
TORSDOF 4
ENDMDL
MODEL 9
REMARK VINA RESULT:      -8.4      4.578      7.596
REMARK  Name = 
REMARK  5 active torsions:
REMARK  status: ('A' for Active; 'I' for Inactive)
REMARK    1  A    between atoms: C_1  and  C_2
REMARK    2  A    between atoms: C_4  and  S_5
REMARK    3  A    between atoms: S_5  and  C_6
REMARK    4  A    between atoms: C_6  and  C_7
REMARK    5  A    between atoms: C_11  and  C_12
REMARK                            x       y       z     vdW  Elec       q    Type
REMARK                         _______ _______ _______ _____ _____    ______ ____
ROOT
ATOM      1  S   UNL     1       5.808   5.909  16.311  0.00  0.00    +0.000 S 
ENDROOT
BRANCH   1   5
ATOM      2  C   UNL     1       2.154   9.262  17.870  0.00  0.00    +0.000 C 
ATOM      3  C   UNL     1       2.805   7.919  18.025  0.00  0.00    +0.000 A 
ATOM      4  N   UNL     1       3.848   7.624  17.202  0.00  0.00    +0.000 NA
ATOM      5  C   UNL     1       4.442   6.412  17.316  0.00  0.00    +0.000 A 
ATOM      6  C   UNL     1       3.951   5.551  18.284  0.00  0.00    +0.000 A 
ATOM      7  O   UNL     1       4.376   4.296  18.604  0.00  0.00    +0.000 OA
ATOM      8  C   UNL     1       3.581   3.861  19.621  0.00  0.00    +0.000 A 
ATOM      9  C   UNL     1       3.687   2.617  20.240  0.00  0.00    +0.000 A 
ATOM     10  C   UNL     1       2.778   2.352  21.269  0.00  0.00    +0.000 A 
ATOM     11  C   UNL     1       1.818   3.295  21.645  0.00  0.00    +0.000 A 
ATOM     12  C   UNL     1       1.736   4.540  21.004  0.00  0.00    +0.000 A 
ATOM     13  C   UNL     1       2.642   4.828  19.965  0.00  0.00    +0.000 A 
ATOM     14  C   UNL     1       2.890   5.923  19.091  0.00  0.00    +0.000 A 
ATOM     15  N   UNL     1       2.282   7.126  18.983  0.00  0.00    +0.000 NA
ENDBRANCH   1   5
BRANCH   1  16
ATOM     16  C   UNL     1       7.170   5.756  17.516  0.00  0.00    +0.000 C 
BRANCH  16  17
ATOM     17  C   UNL     1       7.699   7.119  17.867  0.00  0.00    +0.000 A 
ATOM     18  N   UNL     1       8.476   7.445  18.886  0.00  0.00    +0.000 NA
ATOM     19  C   UNL     1       8.678   8.803  18.790  0.00  0.00    +0.000 A 
ATOM     20  C   UNL     1       9.412   9.669  19.619  0.00  0.00    +0.000 A 
ATOM     21  C   UNL     1       9.470  11.041  19.305  0.00  0.00    +0.000 A 
ATOM     22  C   UNL     1       8.792  11.524  18.174  0.00  0.00    +0.000 A 
ATOM     23  C   UNL     1       8.052  10.676  17.337  0.00  0.00    +0.000 A 
ATOM     24  C   UNL     1       8.025   9.323  17.681  0.00  0.00    +0.000 A 
ATOM     25  N   UNL     1       7.419   8.235  17.107  0.00  0.00    +0.000 N 
ATOM     26  H   UNL     1       6.829   8.248  16.289  0.00  0.00    +0.000 HD
BRANCH  21  27
ATOM     27  C   UNL     1      10.256  11.998  20.171  0.00  0.00    +0.000 C 
ATOM     28  F   UNL     1       9.853  12.025  21.471  0.00  0.00    +0.000 F 
ATOM     29  F   UNL     1      11.585  11.698  20.200  0.00  0.00    +0.000 F 
ATOM     30  F   UNL     1      10.179  13.285  19.730  0.00  0.00    +0.000 F 
ENDBRANCH  21  27
ENDBRANCH  16  17
ENDBRANCH   1  16
TORSDOF 4
ENDMDL
