MODEL 1
REMARK VINA RESULT:      -6.6      0.000      0.000
REMARK  Name = 
REMARK  5 active torsions:
REMARK  status: ('A' for Active; 'I' for Inactive)
REMARK    1  A    between atoms: C_1  and  C_2
REMARK    2  A    between atoms: C_9  and  C_10
REMARK    3  A    between atoms: C_10  and  N_11
REMARK    4  A    between atoms: N_11  and  S_12
REMARK    5  A    between atoms: S_12  and  N_13
REMARK                            x       y       z     vdW  Elec       q    Type
REMARK                         _______ _______ _______ _____ _____    ______ ____
ROOT
ATOM      1  C   UNL     1       1.550   4.502  19.926  0.00  0.00    +0.000 C 
ATOM      2  C   UNL     1       2.730   5.146  19.261  0.00  0.00    +0.000 A 
ATOM      3  C   UNL     1       2.557   6.145  18.294  0.00  0.00    +0.000 A 
ATOM      4  C   UNL     1       3.663   6.769  17.711  0.00  0.00    +0.000 A 
ATOM      5  C   UNL     1       4.948   6.385  18.077  0.00  0.00    +0.000 A 
ATOM      6  C   UNL     1       5.127   5.339  18.986  0.00  0.00    +0.000 A 
ATOM      7  C   UNL     1       4.028   4.744  19.601  0.00  0.00    +0.000 A 
ATOM      8  O   UNL     1       6.355   4.812  19.289  0.00  0.00    +0.000 OA
ATOM      9  C   UNL     1       7.379   5.243  18.366  0.00  0.00    +0.000 C 
ATOM     10  C   UNL     1       7.240   6.739  18.104  0.00  0.00    +0.000 C 
ATOM     11  O   UNL     1       5.988   7.041  17.472  0.00  0.00    +0.000 OA
ENDROOT
BRANCH   9  12
ATOM     12  C   UNL     1       7.343   4.350  17.107  0.00  0.00    +0.000 C 
BRANCH  12  13
ATOM     13  N   UNL     1       7.615   5.014  15.821  0.00  0.00    +0.000 NA
ATOM     14  H   UNL     1       8.590   5.111  15.541  0.00  0.00    +0.000 HD
BRANCH  13  15
ATOM     15  S   UNL     1       6.567   4.904  14.541  0.00  0.00    +0.000 S 
ATOM     16  O   UNL     1       6.303   3.501  14.348  0.00  0.00    +0.000 OA
ATOM     17  O   UNL     1       5.535   5.890  14.668  0.00  0.00    +0.000 OA
BRANCH  15  18
ATOM     18  N   UNL     1       7.626   5.387  13.369  0.00  0.00    +0.000 NA
ATOM     19  H   UNL     1       8.211   4.621  13.047  0.00  0.00    +0.000 HD
ATOM     20  H   UNL     1       8.097   6.261  13.578  0.00  0.00    +0.000 HD
ENDBRANCH  15  18
ENDBRANCH  13  15
ENDBRANCH  12  13
ENDBRANCH   9  12
TORSDOF 4
ENDMDL
MODEL 2
REMARK VINA RESULT:      -6.6      0.950      1.140
REMARK  Name = 
REMARK  5 active torsions:
REMARK  status: ('A' for Active; 'I' for Inactive)
REMARK    1  A    between atoms: C_1  and  C_2
REMARK    2  A    between atoms: C_9  and  C_10
REMARK    3  A    between atoms: C_10  and  N_11
REMARK    4  A    between atoms: N_11  and  S_12
REMARK    5  A    between atoms: S_12  and  N_13
REMARK                            x       y       z     vdW  Elec       q    Type
REMARK                         _______ _______ _______ _____ _____    ______ ____
ROOT
ATOM      1  C   UNL     1       1.316   3.856  19.501  0.00  0.00    +0.000 C 
ATOM      2  C   UNL     1       2.504   4.616  18.992  0.00  0.00    +0.000 A 
ATOM      3  C   UNL     1       2.344   5.744  18.176  0.00  0.00    +0.000 A 
ATOM      4  C   UNL     1       3.456   6.470  17.741  0.00  0.00    +0.000 A 
ATOM      5  C   UNL     1       4.735   6.063  18.103  0.00  0.00    +0.000 A 
ATOM      6  C   UNL     1       4.904   4.897  18.855  0.00  0.00    +0.000 A 
ATOM      7  C   UNL     1       3.797   4.195  19.326  0.00  0.00    +0.000 A 
ATOM      8  O   UNL     1       6.133   4.356  19.131  0.00  0.00    +0.000 OA
ATOM      9  C   UNL     1       7.181   4.941  18.329  0.00  0.00    +0.000 C 
ATOM     10  C   UNL     1       7.013   6.456  18.284  0.00  0.00    +0.000 C 
ATOM     11  O   UNL     1       5.781   6.822  17.648  0.00  0.00    +0.000 OA
ENDROOT
BRANCH   9  12
ATOM     12  C   UNL     1       7.221   4.244  16.951  0.00  0.00    +0.000 C 
BRANCH  12  13
ATOM     13  N   UNL     1       7.606   5.080  15.801  0.00  0.00    +0.000 NA
ATOM     14  H   UNL     1       8.600   5.255  15.662  0.00  0.00    +0.000 HD
BRANCH  13  15
ATOM     15  S   UNL     1       6.728   5.091  14.395  0.00  0.00    +0.000 S 
ATOM     16  O   UNL     1       5.533   5.850  14.665  0.00  0.00    +0.000 OA
ATOM     17  O   UNL     1       7.591   5.349  13.281  0.00  0.00    +0.000 OA
BRANCH  15  18
ATOM     18  N   UNL     1       6.322   3.490  14.396  0.00  0.00    +0.000 NA
ATOM     19  H   UNL     1       6.945   2.941  14.982  0.00  0.00    +0.000 HD
ATOM     20  H   UNL     1       6.122   3.118  13.473  0.00  0.00    +0.000 HD
ENDBRANCH  15  18
ENDBRANCH  13  15
ENDBRANCH  12  13
ENDBRANCH   9  12
TORSDOF 4
ENDMDL
MODEL 3
REMARK VINA RESULT:      -6.5      1.577      1.770
REMARK  Name = 
REMARK  5 active torsions:
REMARK  status: ('A' for Active; 'I' for Inactive)
REMARK    1  A    between atoms: C_1  and  C_2
REMARK    2  A    between atoms: C_9  and  C_10
REMARK    3  A    between atoms: C_10  and  N_11
REMARK    4  A    between atoms: N_11  and  S_12
REMARK    5  A    between atoms: S_12  and  N_13
REMARK                            x       y       z     vdW  Elec       q    Type
REMARK                         _______ _______ _______ _____ _____    ______ ____
ROOT
ATOM      1  C   UNL     1       0.975   2.176  18.820  0.00  0.00    +0.000 C 
ATOM      2  C   UNL     1       2.011   3.237  18.589  0.00  0.00    +0.000 A 
ATOM      3  C   UNL     1       1.713   4.386  17.845  0.00  0.00    +0.000 A 
ATOM      4  C   UNL     1       2.672   5.388  17.671  0.00  0.00    +0.000 A 
ATOM      5  C   UNL     1       3.939   5.238  18.224  0.00  0.00    +0.000 A 
ATOM      6  C   UNL     1       4.265   4.061  18.903  0.00  0.00    +0.000 A 
ATOM      7  C   UNL     1       3.299   3.080  19.115  0.00  0.00    +0.000 A 
ATOM      8  O   UNL     1       5.528   3.780  19.352  0.00  0.00    +0.000 OA
ATOM      9  C   UNL     1       6.517   4.674  18.796  0.00  0.00    +0.000 C 
ATOM     10  C   UNL     1       5.999   6.107  18.837  0.00  0.00    +0.000 C 
ATOM     11  O   UNL     1       4.830   6.259  18.021  0.00  0.00    +0.000 OA
ENDROOT
BRANCH   9  12
ATOM     12  C   UNL     1       6.937   4.167  17.399  0.00  0.00    +0.000 C 
BRANCH  12  13
ATOM     13  N   UNL     1       7.152   5.192  16.363  0.00  0.00    +0.000 NA
ATOM     14  H   UNL     1       8.088   5.585  16.282  0.00  0.00    +0.000 HD
BRANCH  13  15
ATOM     15  S   UNL     1       6.311   5.182  14.935  0.00  0.00    +0.000 S 
ATOM     16  O   UNL     1       7.273   5.431  13.892  0.00  0.00    +0.000 OA
ATOM     17  O   UNL     1       5.393   4.082  14.915  0.00  0.00    +0.000 OA
BRANCH  15  18
ATOM     18  N   UNL     1       5.465   6.579  15.188  0.00  0.00    +0.000 NA
ATOM     19  H   UNL     1       6.075   7.351  15.440  0.00  0.00    +0.000 HD
ATOM     20  H   UNL     1       4.631   6.455  15.755  0.00  0.00    +0.000 HD
ENDBRANCH  15  18
ENDBRANCH  13  15
ENDBRANCH  12  13
ENDBRANCH   9  12
TORSDOF 4
ENDMDL
MODEL 4
REMARK VINA RESULT:      -6.4      0.762      1.330
REMARK  Name = 
REMARK  5 active torsions:
REMARK  status: ('A' for Active; 'I' for Inactive)
REMARK    1  A    between atoms: C_1  and  C_2
REMARK    2  A    between atoms: C_9  and  C_10
REMARK    3  A    between atoms: C_10  and  N_11
REMARK    4  A    between atoms: N_11  and  S_12
REMARK    5  A    between atoms: S_12  and  N_13
REMARK                            x       y       z     vdW  Elec       q    Type
REMARK                         _______ _______ _______ _____ _____    ______ ____
ROOT
ATOM      1  C   UNL     1       1.781   5.063  20.069  0.00  0.00    +0.000 C 
ATOM      2  C   UNL     1       2.974   5.589  19.328  0.00  0.00    +0.000 A 
ATOM      3  C   UNL     1       2.824   6.482  18.259  0.00  0.00    +0.000 A 
ATOM      4  C   UNL     1       3.944   6.999  17.602  0.00  0.00    +0.000 A 
ATOM      5  C   UNL     1       5.219   6.612  17.998  0.00  0.00    +0.000 A 
ATOM      6  C   UNL     1       5.373   5.666  19.014  0.00  0.00    +0.000 A 
ATOM      7  C   UNL     1       4.261   5.181  19.700  0.00  0.00    +0.000 A 
ATOM      8  O   UNL     1       6.586   5.132  19.363  0.00  0.00    +0.000 OA
ATOM      9  C   UNL     1       7.612   5.424  18.391  0.00  0.00    +0.000 C 
ATOM     10  C   UNL     1       7.521   6.886  17.968  0.00  0.00    +0.000 C 
ATOM     11  O   UNL     1       6.274   7.161  17.316  0.00  0.00    +0.000 OA
ENDROOT
BRANCH   9  12
ATOM     12  C   UNL     1       7.531   4.400  17.237  0.00  0.00    +0.000 C 
BRANCH  12  13
ATOM     13  N   UNL     1       7.458   4.950  15.873  0.00  0.00    +0.000 NA
ATOM     14  H   UNL     1       8.338   5.111  15.386  0.00  0.00    +0.000 HD
BRANCH  13  15
ATOM     15  S   UNL     1       6.192   4.608  14.859  0.00  0.00    +0.000 S 
ATOM     16  O   UNL     1       5.531   5.860  14.593  0.00  0.00    +0.000 OA
ATOM     17  O   UNL     1       6.619   3.707  13.830  0.00  0.00    +0.000 OA
BRANCH  15  18
ATOM     18  N   UNL     1       5.276   3.773  15.952  0.00  0.00    +0.000 NA
ATOM     19  H   UNL     1       5.053   4.336  16.768  0.00  0.00    +0.000 HD
ATOM     20  H   UNL     1       5.608   2.830  16.128  0.00  0.00    +0.000 HD
ENDBRANCH  15  18
ENDBRANCH  13  15
ENDBRANCH  12  13
ENDBRANCH   9  12
TORSDOF 4
ENDMDL
MODEL 5
REMARK VINA RESULT:      -6.4      1.673      2.256
REMARK  Name = 
REMARK  5 active torsions:
REMARK  status: ('A' for Active; 'I' for Inactive)
REMARK    1  A    between atoms: C_1  and  C_2
REMARK    2  A    between atoms: C_9  and  C_10
REMARK    3  A    between atoms: C_10  and  N_11
REMARK    4  A    between atoms: N_11  and  S_12
REMARK    5  A    between atoms: S_12  and  N_13
REMARK                            x       y       z     vdW  Elec       q    Type
REMARK                         _______ _______ _______ _____ _____    ______ ____
ROOT
ATOM      1  C   UNL     1       1.325   2.444  21.918  0.00  0.00    +0.000 C 
ATOM      2  C   UNL     1       2.017   3.378  20.969  0.00  0.00    +0.000 A 
ATOM      3  C   UNL     1       1.352   4.490  20.436  0.00  0.00    +0.000 A 
ATOM      4  C   UNL     1       2.018   5.376  19.586  0.00  0.00    +0.000 A 
ATOM      5  C   UNL     1       3.347   5.146  19.249  0.00  0.00    +0.000 A 
ATOM      6  C   UNL     1       3.994   4.000  19.718  0.00  0.00    +0.000 A 
ATOM      7  C   UNL     1       3.347   3.137  20.599  0.00  0.00    +0.000 A 
ATOM      8  O   UNL     1       5.252   3.633  19.319  0.00  0.00    +0.000 OA
ATOM      9  C   UNL     1       5.700   4.379  18.166  0.00  0.00    +0.000 C 
ATOM     10  C   UNL     1       5.361   5.855  18.344  0.00  0.00    +0.000 C 
ATOM     11  O   UNL     1       3.943   6.057  18.416  0.00  0.00    +0.000 OA
ENDROOT
BRANCH   9  12
ATOM     12  C   UNL     1       5.138   3.727  16.884  0.00  0.00    +0.000 C 
BRANCH  12  13
ATOM     13  N   UNL     1       6.090   3.520  15.779  0.00  0.00    +0.000 NA
ATOM     14  H   UNL     1       6.188   2.573  15.417  0.00  0.00    +0.000 HD
BRANCH  13  15
ATOM     15  S   UNL     1       6.385   4.695  14.648  0.00  0.00    +0.000 S 
ATOM     16  O   UNL     1       5.214   5.534  14.614  0.00  0.00    +0.000 OA
ATOM     17  O   UNL     1       7.715   5.204  14.806  0.00  0.00    +0.000 OA
BRANCH  15  18
ATOM     18  N   UNL     1       6.344   3.714  13.319  0.00  0.00    +0.000 NA
ATOM     19  H   UNL     1       7.159   3.844  12.726  0.00  0.00    +0.000 HD
ATOM     20  H   UNL     1       5.442   3.694  12.854  0.00  0.00    +0.000 HD
ENDBRANCH  15  18
ENDBRANCH  13  15
ENDBRANCH  12  13
ENDBRANCH   9  12
TORSDOF 4
ENDMDL
MODEL 6
REMARK VINA RESULT:      -6.4      2.643      4.276
REMARK  Name = 
REMARK  5 active torsions:
REMARK  status: ('A' for Active; 'I' for Inactive)
REMARK    1  A    between atoms: C_1  and  C_2
REMARK    2  A    between atoms: C_9  and  C_10
REMARK    3  A    between atoms: C_10  and  N_11
REMARK    4  A    between atoms: N_11  and  S_12
REMARK    5  A    between atoms: S_12  and  N_13
REMARK                            x       y       z     vdW  Elec       q    Type
REMARK                         _______ _______ _______ _____ _____    ______ ____
ROOT
ATOM      1  C   UNL     1       8.612   9.172  18.357  0.00  0.00    +0.000 C 
ATOM      2  C   UNL     1       7.950   7.844  18.136  0.00  0.00    +0.000 A 
ATOM      3  C   UNL     1       8.209   6.759  18.984  0.00  0.00    +0.000 A 
ATOM      4  C   UNL     1       7.556   5.538  18.795  0.00  0.00    +0.000 A 
ATOM      5  C   UNL     1       6.655   5.389  17.746  0.00  0.00    +0.000 A 
ATOM      6  C   UNL     1       6.449   6.444  16.854  0.00  0.00    +0.000 A 
ATOM      7  C   UNL     1       7.065   7.675  17.064  0.00  0.00    +0.000 A 
ATOM      8  O   UNL     1       5.687   6.328  15.720  0.00  0.00    +0.000 OA
ATOM      9  C   UNL     1       5.380   4.953  15.406  0.00  0.00    +0.000 C 
ATOM     10  C   UNL     1       4.969   4.213  16.674  0.00  0.00    +0.000 C 
ATOM     11  O   UNL     1       6.045   4.168  17.620  0.00  0.00    +0.000 OA
ENDROOT
BRANCH   9  12
ATOM     12  C   UNL     1       6.562   4.327  14.635  0.00  0.00    +0.000 C 
BRANCH  12  13
ATOM     13  N   UNL     1       6.242   3.206  13.734  0.00  0.00    +0.000 NA
ATOM     14  H   UNL     1       5.617   2.485  14.088  0.00  0.00    +0.000 HD
BRANCH  13  15
ATOM     15  S   UNL     1       6.165   3.401  12.090  0.00  0.00    +0.000 S 
ATOM     16  O   UNL     1       4.772   3.567  11.763  0.00  0.00    +0.000 OA
ATOM     17  O   UNL     1       7.190   4.302  11.655  0.00  0.00    +0.000 OA
BRANCH  15  18
ATOM     18  N   UNL     1       6.601   1.861  11.682  0.00  0.00    +0.000 NA
ATOM     19  H   UNL     1       7.575   1.805  11.396  0.00  0.00    +0.000 HD
ATOM     20  H   UNL     1       5.926   1.388  11.089  0.00  0.00    +0.000 HD
ENDBRANCH  15  18
ENDBRANCH  13  15
ENDBRANCH  12  13
ENDBRANCH   9  12
TORSDOF 4
ENDMDL
MODEL 7
REMARK VINA RESULT:      -6.4      2.923      4.180
REMARK  Name = 
REMARK  5 active torsions:
REMARK  status: ('A' for Active; 'I' for Inactive)
REMARK    1  A    between atoms: C_1  and  C_2
REMARK    2  A    between atoms: C_9  and  C_10
REMARK    3  A    between atoms: C_10  and  N_11
REMARK    4  A    between atoms: N_11  and  S_12
REMARK    5  A    between atoms: S_12  and  N_13
REMARK                            x       y       z     vdW  Elec       q    Type
REMARK                         _______ _______ _______ _____ _____    ______ ____
ROOT
ATOM      1  C   UNL     1       1.966   9.642  18.126  0.00  0.00    +0.000 C 
ATOM      2  C   UNL     1       2.128   8.267  18.704  0.00  0.00    +0.000 A 
ATOM      3  C   UNL     1       1.673   7.969  19.996  0.00  0.00    +0.000 A 
ATOM      4  C   UNL     1       1.791   6.675  20.509  0.00  0.00    +0.000 A 
ATOM      5  C   UNL     1       2.380   5.676  19.742  0.00  0.00    +0.000 A 
ATOM      6  C   UNL     1       2.901   5.984  18.483  0.00  0.00    +0.000 A 
ATOM      7  C   UNL     1       2.748   7.262  17.951  0.00  0.00    +0.000 A 
ATOM      8  O   UNL     1       3.618   5.092  17.729  0.00  0.00    +0.000 OA
ATOM      9  C   UNL     1       4.018   3.931  18.489  0.00  0.00    +0.000 C 
ATOM     10  C   UNL     1       2.849   3.441  19.337  0.00  0.00    +0.000 C 
ATOM     11  O   UNL     1       2.458   4.427  20.302  0.00  0.00    +0.000 OA
ENDROOT
BRANCH   9  12
ATOM     12  C   UNL     1       5.308   4.253  19.275  0.00  0.00    +0.000 C 
BRANCH  12  13
ATOM     13  N   UNL     1       5.994   5.510  18.930  0.00  0.00    +0.000 NA
ATOM     14  H   UNL     1       5.561   6.379  19.239  0.00  0.00    +0.000 HD
BRANCH  13  15
ATOM     15  S   UNL     1       7.644   5.600  18.803  0.00  0.00    +0.000 S 
ATOM     16  O   UNL     1       8.067   4.405  18.117  0.00  0.00    +0.000 OA
ATOM     17  O   UNL     1       8.033   6.919  18.401  0.00  0.00    +0.000 OA
BRANCH  15  18
ATOM     18  N   UNL     1       7.982   5.410  20.408  0.00  0.00    +0.000 NA
ATOM     19  H   UNL     1       8.973   5.528  20.604  0.00  0.00    +0.000 HD
ATOM     20  H   UNL     1       7.529   4.605  20.829  0.00  0.00    +0.000 HD
ENDBRANCH  15  18
ENDBRANCH  13  15
ENDBRANCH  12  13
ENDBRANCH   9  12
TORSDOF 4
ENDMDL
MODEL 8
REMARK VINA RESULT:      -6.4      1.973      3.080
REMARK  Name = 
REMARK  5 active torsions:
REMARK  status: ('A' for Active; 'I' for Inactive)
REMARK    1  A    between atoms: C_1  and  C_2
REMARK    2  A    between atoms: C_9  and  C_10
REMARK    3  A    between atoms: C_10  and  N_11
REMARK    4  A    between atoms: N_11  and  S_12
REMARK    5  A    between atoms: S_12  and  N_13
REMARK                            x       y       z     vdW  Elec       q    Type
REMARK                         _______ _______ _______ _____ _____    ______ ____
ROOT
ATOM      1  C   UNL     1       1.154   2.308  22.200  0.00  0.00    +0.000 C 
ATOM      2  C   UNL     1       1.581   3.005  20.943  0.00  0.00    +0.000 A 
ATOM      3  C   UNL     1       1.142   2.563  19.688  0.00  0.00    +0.000 A 
ATOM      4  C   UNL     1       1.513   3.244  18.525  0.00  0.00    +0.000 A 
ATOM      5  C   UNL     1       2.338   4.360  18.609  0.00  0.00    +0.000 A 
ATOM      6  C   UNL     1       2.838   4.762  19.850  0.00  0.00    +0.000 A 
ATOM      7  C   UNL     1       2.437   4.111  21.015  0.00  0.00    +0.000 A 
ATOM      8  O   UNL     1       3.764   5.761  19.997  0.00  0.00    +0.000 OA
ATOM      9  C   UNL     1       4.369   6.135  18.740  0.00  0.00    +0.000 C 
ATOM     10  C   UNL     1       3.296   6.248  17.663  0.00  0.00    +0.000 C 
ATOM     11  O   UNL     1       2.658   4.985  17.432  0.00  0.00    +0.000 OA
ENDROOT
BRANCH   9  12
ATOM     12  C   UNL     1       5.522   5.159  18.417  0.00  0.00    +0.000 C 
BRANCH  12  13
ATOM     13  N   UNL     1       5.606   4.675  17.028  0.00  0.00    +0.000 NA
ATOM     14  H   UNL     1       4.746   4.669  16.483  0.00  0.00    +0.000 HD
BRANCH  13  15
ATOM     15  S   UNL     1       6.971   4.881  16.111  0.00  0.00    +0.000 S 
ATOM     16  O   UNL     1       6.810   4.051  14.945  0.00  0.00    +0.000 OA
ATOM     17  O   UNL     1       7.314   6.271  16.048  0.00  0.00    +0.000 OA
BRANCH  15  18
ATOM     18  N   UNL     1       8.021   4.119  17.134  0.00  0.00    +0.000 NA
ATOM     19  H   UNL     1       8.794   4.721  17.402  0.00  0.00    +0.000 HD
ATOM     20  H   UNL     1       8.259   3.175  16.847  0.00  0.00    +0.000 HD
ENDBRANCH  15  18
ENDBRANCH  13  15
ENDBRANCH  12  13
ENDBRANCH   9  12
TORSDOF 4
ENDMDL
MODEL 9
REMARK VINA RESULT:      -6.4      2.062      3.129
REMARK  Name = 
REMARK  5 active torsions:
REMARK  status: ('A' for Active; 'I' for Inactive)
REMARK    1  A    between atoms: C_1  and  C_2
REMARK    2  A    between atoms: C_9  and  C_10
REMARK    3  A    between atoms: C_10  and  N_11
REMARK    4  A    between atoms: N_11  and  S_12
REMARK    5  A    between atoms: S_12  and  N_13
REMARK                            x       y       z     vdW  Elec       q    Type
REMARK                         _______ _______ _______ _____ _____    ______ ____
ROOT
ATOM      1  C   UNL     1       1.119   2.364  22.233  0.00  0.00    +0.000 C 
ATOM      2  C   UNL     1       1.585   2.998  20.955  0.00  0.00    +0.000 A 
ATOM      3  C   UNL     1       1.204   2.477  19.711  0.00  0.00    +0.000 A 
ATOM      4  C   UNL     1       1.609   3.099  18.527  0.00  0.00    +0.000 A 
ATOM      5  C   UNL     1       2.410   4.234  18.579  0.00  0.00    +0.000 A 
ATOM      6  C   UNL     1       2.853   4.715  19.814  0.00  0.00    +0.000 A 
ATOM      7  C   UNL     1       2.418   4.123  20.998  0.00  0.00    +0.000 A 
ATOM      8  O   UNL     1       3.755   5.739  19.940  0.00  0.00    +0.000 OA
ATOM      9  C   UNL     1       4.403   6.053  18.689  0.00  0.00    +0.000 C 
ATOM     10  C   UNL     1       3.372   6.085  17.566  0.00  0.00    +0.000 C 
ATOM     11  O   UNL     1       2.766   4.798  17.382  0.00  0.00    +0.000 OA
ENDROOT
BRANCH   9  12
ATOM     12  C   UNL     1       5.585   5.085  18.467  0.00  0.00    +0.000 C 
BRANCH  12  13
ATOM     13  N   UNL     1       5.767   4.569  17.099  0.00  0.00    +0.000 NA
ATOM     14  H   UNL     1       4.948   4.548  16.495  0.00  0.00    +0.000 HD
BRANCH  13  15
ATOM     15  S   UNL     1       7.193   4.756  16.276  0.00  0.00    +0.000 S 
ATOM     16  O   UNL     1       8.220   4.169  17.099  0.00  0.00    +0.000 OA
ATOM     17  O   UNL     1       7.008   4.429  14.894  0.00  0.00    +0.000 OA
BRANCH  15  18
ATOM     18  N   UNL     1       7.301   6.398  16.426  0.00  0.00    +0.000 NA
ATOM     19  H   UNL     1       8.006   6.790  15.808  0.00  0.00    +0.000 HD
ATOM     20  H   UNL     1       7.310   6.721  17.388  0.00  0.00    +0.000 HD
ENDBRANCH  15  18
ENDBRANCH  13  15
ENDBRANCH  12  13
ENDBRANCH   9  12
TORSDOF 4
ENDMDL
