MODEL 1
REMARK VINA RESULT:      -8.1      0.000      0.000
REMARK  Name = 
REMARK  4 active torsions:
REMARK  status: ('A' for Active; 'I' for Inactive)
REMARK    1  A    between atoms: C_2  and  C_3
REMARK    2  A    between atoms: N_7  and  S_8
REMARK    3  A    between atoms: S_8  and  N_11
REMARK    4  A    between atoms: C_23  and  C_24
REMARK                            x       y       z     vdW  Elec       q    Type
REMARK                         _______ _______ _______ _____ _____    ______ ____
ROOT
ATOM      1  O   UNL     1       2.568   8.782  17.192  0.00  0.00    +0.000 OA
ATOM      2  C   UNL     1       2.126   8.700  18.339  0.00  0.00    +0.000 C 
ATOM      3  N   UNL     1       1.065   9.498  18.788  0.00  0.00    +0.000 N 
ATOM      4  C   UNL     1       0.362  10.356  17.829  0.00  0.00    +0.000 C 
ATOM      5  C   UNL     1      -1.128  10.027  17.727  0.00  0.00    +0.000 C 
ATOM      6  C   UNL     1      -1.979  10.271  18.977  0.00  0.00    +0.000 C 
ATOM      7  N   UNL     1      -1.342  10.971  20.070  0.00  0.00    +0.000 N 
ATOM      8  N   UNL     1      -2.022  11.932  20.727  0.00  0.00    +0.000 NA
ATOM      9  C   UNL     1      -1.214  12.296  21.738  0.00  0.00    +0.000 A 
ATOM     10  C   UNL     1       0.010  11.589  21.665  0.00  0.00    +0.000 A 
ATOM     11  C   UNL     1      -0.120  10.704  20.618  0.00  0.00    +0.000 A 
ATOM     12  C   UNL     1       0.786   9.613  20.211  0.00  0.00    +0.000 C 
ENDROOT
BRANCH   9  13
ATOM     13  C   UNL     1      -1.600  13.267  22.762  0.00  0.00    +0.000 A 
ATOM     14  C   UNL     1      -2.829  13.135  23.433  0.00  0.00    +0.000 A 
ATOM     15  C   UNL     1      -3.195  14.035  24.438  0.00  0.00    +0.000 A 
ATOM     16  C   UNL     1      -2.332  15.071  24.769  0.00  0.00    +0.000 A 
ATOM     17  F   UNL     1      -2.675  15.925  25.742  0.00  0.00    +0.000 F 
ATOM     18  C   UNL     1      -1.121  15.235  24.103  0.00  0.00    +0.000 A 
ATOM     19  C   UNL     1      -0.758  14.335  23.096  0.00  0.00    +0.000 A 
ENDBRANCH   9  13
BRANCH   2  20
ATOM     20  C   UNL     1       2.632   7.596  19.281  0.00  0.00    +0.000 C 
ATOM     21  C   UNL     1       1.410   6.773  19.721  0.00  0.00    +0.000 C 
ATOM     22  C   UNL     1       1.822   5.532  20.498  0.00  0.00    +0.000 C 
ATOM     23  C   UNL     1       2.821   4.710  19.694  0.00  0.00    +0.000 C 
ATOM     24  N   UNL     1       4.036   5.545  19.471  0.00  0.00    +0.000 NA
ATOM     25  C   UNL     1       3.702   6.722  18.598  0.00  0.00    +0.000 C 
BRANCH  24  26
ATOM     26  S   UNL     1       5.410   4.634  19.021  0.00  0.00    +0.000 S 
ATOM     27  O   UNL     1       6.554   5.188  19.706  0.00  0.00    +0.000 OA
ATOM     28  O   UNL     1       5.084   3.229  19.101  0.00  0.00    +0.000 OA
BRANCH  26  29
ATOM     29  N   UNL     1       5.580   5.067  17.413  0.00  0.00    +0.000 NA
ATOM     30  C   UNL     1       4.898   4.270  16.383  0.00  0.00    +0.000 C 
ATOM     31  C   UNL     1       6.048   3.633  15.625  0.00  0.00    +0.000 C 
ATOM     32  C   UNL     1       7.109   4.721  15.614  0.00  0.00    +0.000 C 
ATOM     33  C   UNL     1       6.867   5.536  16.884  0.00  0.00    +0.000 C 
ENDBRANCH  26  29
ENDBRANCH  24  26
ENDBRANCH   2  20
TORSDOF 4
ENDMDL
MODEL 2
REMARK VINA RESULT:      -7.9      5.532     10.754
REMARK  Name = 
REMARK  4 active torsions:
REMARK  status: ('A' for Active; 'I' for Inactive)
REMARK    1  A    between atoms: C_2  and  C_3
REMARK    2  A    between atoms: N_7  and  S_8
REMARK    3  A    between atoms: S_8  and  N_11
REMARK    4  A    between atoms: C_23  and  C_24
REMARK                            x       y       z     vdW  Elec       q    Type
REMARK                         _______ _______ _______ _____ _____    ______ ____
ROOT
ATOM      1  O   UNL     1      -0.596  13.290  20.062  0.00  0.00    +0.000 OA
ATOM      2  C   UNL     1      -0.737  12.272  19.384  0.00  0.00    +0.000 C 
ATOM      3  N   UNL     1       0.017  11.113  19.615  0.00  0.00    +0.000 N 
ATOM      4  C   UNL     1       0.897  11.056  20.787  0.00  0.00    +0.000 C 
ATOM      5  C   UNL     1       0.538   9.915  21.739  0.00  0.00    +0.000 C 
ATOM      6  C   UNL     1       0.709   8.488  21.207  0.00  0.00    +0.000 C 
ATOM      7  N   UNL     1       1.378   8.347  19.933  0.00  0.00    +0.000 N 
ATOM      8  N   UNL     1       2.295   7.371  19.771  0.00  0.00    +0.000 NA
ATOM      9  C   UNL     1       2.635   7.430  18.472  0.00  0.00    +0.000 A 
ATOM     10  C   UNL     1       1.961   8.502  17.838  0.00  0.00    +0.000 A 
ATOM     11  C   UNL     1       1.117   9.038  18.785  0.00  0.00    +0.000 A 
ATOM     12  C   UNL     1       0.066  10.059  18.614  0.00  0.00    +0.000 C 
ENDROOT
BRANCH   9  13
ATOM     13  C   UNL     1       3.553   6.482  17.841  0.00  0.00    +0.000 A 
ATOM     14  C   UNL     1       3.416   5.102  18.076  0.00  0.00    +0.000 A 
ATOM     15  C   UNL     1       4.263   4.183  17.452  0.00  0.00    +0.000 A 
ATOM     16  C   UNL     1       5.253   4.645  16.596  0.00  0.00    +0.000 A 
ATOM     17  F   UNL     1       6.056   3.764  15.985  0.00  0.00    +0.000 F 
ATOM     18  C   UNL     1       5.423   6.006  16.365  0.00  0.00    +0.000 A 
ATOM     19  C   UNL     1       4.576   6.925  16.992  0.00  0.00    +0.000 A 
ENDBRANCH   9  13
BRANCH   2  20
ATOM     20  C   UNL     1      -1.866  12.188  18.345  0.00  0.00    +0.000 C 
ATOM     21  C   UNL     1      -1.471  11.108  17.325  0.00  0.00    +0.000 C 
ATOM     22  C   UNL     1      -2.611  10.803  16.365  0.00  0.00    +0.000 C 
ATOM     23  C   UNL     1      -3.874  10.443  17.136  0.00  0.00    +0.000 C 
ATOM     24  N   UNL     1      -4.263  11.621  17.962  0.00  0.00    +0.000 NA
ATOM     25  C   UNL     1      -3.221  11.883  19.014  0.00  0.00    +0.000 C 
BRANCH  24  26
ATOM     26  S   UNL     1      -5.884  11.563  18.501  0.00  0.00    +0.000 S 
ATOM     27  O   UNL     1      -6.713  12.163  17.482  0.00  0.00    +0.000 OA
ATOM     28  O   UNL     1      -6.155  10.243  19.021  0.00  0.00    +0.000 OA
BRANCH  26  29
ATOM     29  N   UNL     1      -5.849  12.655  19.770  0.00  0.00    +0.000 NA
ATOM     30  C   UNL     1      -6.301  12.220  21.099  0.00  0.00    +0.000 C 
ATOM     31  C   UNL     1      -7.555  13.046  21.321  0.00  0.00    +0.000 C 
ATOM     32  C   UNL     1      -7.214  14.385  20.686  0.00  0.00    +0.000 C 
ATOM     33  C   UNL     1      -6.220  14.062  19.571  0.00  0.00    +0.000 C 
ENDBRANCH  26  29
ENDBRANCH  24  26
ENDBRANCH   2  20
TORSDOF 4
ENDMDL
MODEL 3
REMARK VINA RESULT:      -7.8      5.024     10.445
REMARK  Name = 
REMARK  4 active torsions:
REMARK  status: ('A' for Active; 'I' for Inactive)
REMARK    1  A    between atoms: C_2  and  C_3
REMARK    2  A    between atoms: N_7  and  S_8
REMARK    3  A    between atoms: S_8  and  N_11
REMARK    4  A    between atoms: C_23  and  C_24
REMARK                            x       y       z     vdW  Elec       q    Type
REMARK                         _______ _______ _______ _____ _____    ______ ____
ROOT
ATOM      1  O   UNL     1       1.428   8.687  22.201  0.00  0.00    +0.000 OA
ATOM      2  C   UNL     1       1.448   8.717  20.971  0.00  0.00    +0.000 C 
ATOM      3  N   UNL     1       1.904   7.635  20.206  0.00  0.00    +0.000 N 
ATOM      4  C   UNL     1       2.233   6.374  20.878  0.00  0.00    +0.000 C 
ATOM      5  C   UNL     1       1.391   5.201  20.375  0.00  0.00    +0.000 C 
ATOM      6  C   UNL     1       1.588   4.783  18.914  0.00  0.00    +0.000 C 
ATOM      7  N   UNL     1       2.687   5.401  18.205  0.00  0.00    +0.000 N 
ATOM      8  N   UNL     1       3.469   4.646  17.407  0.00  0.00    +0.000 NA
ATOM      9  C   UNL     1       4.301   5.520  16.815  0.00  0.00    +0.000 A 
ATOM     10  C   UNL     1       4.068   6.827  17.303  0.00  0.00    +0.000 A 
ATOM     11  C   UNL     1       2.987   6.732  18.152  0.00  0.00    +0.000 A 
ATOM     12  C   UNL     1       2.220   7.814  18.797  0.00  0.00    +0.000 C 
ENDROOT
BRANCH   9  13
ATOM     13  C   UNL     1       5.275   5.131  15.793  0.00  0.00    +0.000 A 
ATOM     14  C   UNL     1       4.869   4.367  14.685  0.00  0.00    +0.000 A 
ATOM     15  C   UNL     1       5.780   4.019  13.685  0.00  0.00    +0.000 A 
ATOM     16  C   UNL     1       7.101   4.432  13.795  0.00  0.00    +0.000 A 
ATOM     17  F   UNL     1       7.972   4.112  12.830  0.00  0.00    +0.000 F 
ATOM     18  C   UNL     1       7.531   5.169  14.894  0.00  0.00    +0.000 A 
ATOM     19  C   UNL     1       6.618   5.514  15.896  0.00  0.00    +0.000 A 
ENDBRANCH   9  13
BRANCH   2  20
ATOM     20  C   UNL     1       0.822   9.904  20.219  0.00  0.00    +0.000 C 
ATOM     21  C   UNL     1      -0.689   9.640  20.125  0.00  0.00    +0.000 C 
ATOM     22  C   UNL     1      -1.434  10.848  19.576  0.00  0.00    +0.000 C 
ATOM     23  C   UNL     1      -1.107  12.091  20.393  0.00  0.00    +0.000 C 
ATOM     24  N   UNL     1       0.356  12.352  20.275  0.00  0.00    +0.000 NA
ATOM     25  C   UNL     1       1.134  11.239  20.922  0.00  0.00    +0.000 C 
BRANCH  24  26
ATOM     26  S   UNL     1       0.798  13.942  20.719  0.00  0.00    +0.000 S 
ATOM     27  O   UNL     1      -0.390  14.623  21.174  0.00  0.00    +0.000 OA
ATOM     28  O   UNL     1       1.997  13.885  21.523  0.00  0.00    +0.000 OA
BRANCH  26  29
ATOM     29  N   UNL     1       1.171  14.608  19.228  0.00  0.00    +0.000 NA
ATOM     30  C   UNL     1       1.937  13.810  18.261  0.00  0.00    +0.000 C 
ATOM     31  C   UNL     1       3.252  14.562  18.161  0.00  0.00    +0.000 C 
ATOM     32  C   UNL     1       2.833  16.020  18.260  0.00  0.00    +0.000 C 
ATOM     33  C   UNL     1       1.559  16.019  19.103  0.00  0.00    +0.000 C 
ENDBRANCH  26  29
ENDBRANCH  24  26
ENDBRANCH   2  20
TORSDOF 4
ENDMDL
MODEL 4
REMARK VINA RESULT:      -7.7      5.471     10.789
REMARK  Name = 
REMARK  4 active torsions:
REMARK  status: ('A' for Active; 'I' for Inactive)
REMARK    1  A    between atoms: C_2  and  C_3
REMARK    2  A    between atoms: N_7  and  S_8
REMARK    3  A    between atoms: S_8  and  N_11
REMARK    4  A    between atoms: C_23  and  C_24
REMARK                            x       y       z     vdW  Elec       q    Type
REMARK                         _______ _______ _______ _____ _____    ______ ____
ROOT
ATOM      1  O   UNL     1      -0.566  12.557  20.356  0.00  0.00    +0.000 OA
ATOM      2  C   UNL     1      -0.549  11.631  19.545  0.00  0.00    +0.000 C 
ATOM      3  N   UNL     1       0.277  10.510  19.710  0.00  0.00    +0.000 N 
ATOM      4  C   UNL     1       1.037  10.362  20.956  0.00  0.00    +0.000 C 
ATOM      5  C   UNL     1       0.686   9.080  21.712  0.00  0.00    +0.000 C 
ATOM      6  C   UNL     1       1.034   7.754  21.028  0.00  0.00    +0.000 C 
ATOM      7  N   UNL     1       1.837   7.834  19.828  0.00  0.00    +0.000 N 
ATOM      8  N   UNL     1       2.847   6.960  19.647  0.00  0.00    +0.000 NA
ATOM      9  C   UNL     1       3.308   7.217  18.411  0.00  0.00    +0.000 A 
ATOM     10  C   UNL     1       2.610   8.310  17.846  0.00  0.00    +0.000 A 
ATOM     11  C   UNL     1       1.632   8.651  18.753  0.00  0.00    +0.000 A 
ATOM     12  C   UNL     1       0.518   9.606  18.597  0.00  0.00    +0.000 C 
ENDROOT
BRANCH   9  13
ATOM     13  C   UNL     1       4.365   6.432  17.771  0.00  0.00    +0.000 A 
ATOM     14  C   UNL     1       4.645   6.607  16.404  0.00  0.00    +0.000 A 
ATOM     15  C   UNL     1       5.675   5.889  15.789  0.00  0.00    +0.000 A 
ATOM     16  C   UNL     1       6.421   4.992  16.541  0.00  0.00    +0.000 A 
ATOM     17  F   UNL     1       7.418   4.316  15.956  0.00  0.00    +0.000 F 
ATOM     18  C   UNL     1       6.147   4.785  17.889  0.00  0.00    +0.000 A 
ATOM     19  C   UNL     1       5.115   5.502  18.503  0.00  0.00    +0.000 A 
ENDBRANCH   9  13
BRANCH   2  20
ATOM     20  C   UNL     1      -1.557  11.603  18.385  0.00  0.00    +0.000 C 
ATOM     21  C   UNL     1      -1.368  10.269  17.645  0.00  0.00    +0.000 C 
ATOM     22  C   UNL     1      -2.452  10.051  16.600  0.00  0.00    +0.000 C 
ATOM     23  C   UNL     1      -3.832  10.178  17.233  0.00  0.00    +0.000 C 
ATOM     24  N   UNL     1      -3.972  11.562  17.767  0.00  0.00    +0.000 NA
ATOM     25  C   UNL     1      -3.001  11.782  18.894  0.00  0.00    +0.000 C 
BRANCH  24  26
ATOM     26  S   UNL     1      -5.593  12.012  18.066  0.00  0.00    +0.000 S 
ATOM     27  O   UNL     1      -5.920  13.108  17.186  0.00  0.00    +0.000 OA
ATOM     28  O   UNL     1      -6.404  10.818  18.126  0.00  0.00    +0.000 OA
BRANCH  26  29
ATOM     29  N   UNL     1      -5.474  12.671  19.601  0.00  0.00    +0.000 NA
ATOM     30  C   UNL     1      -6.020  11.924  20.743  0.00  0.00    +0.000 C 
ATOM     31  C   UNL     1      -7.176  12.794  21.201  0.00  0.00    +0.000 C 
ATOM     32  C   UNL     1      -6.660  14.208  20.989  0.00  0.00    +0.000 C 
ATOM     33  C   UNL     1      -5.672  14.109  19.827  0.00  0.00    +0.000 C 
ENDBRANCH  26  29
ENDBRANCH  24  26
ENDBRANCH   2  20
TORSDOF 4
ENDMDL
MODEL 5
REMARK VINA RESULT:      -7.6      5.603     10.965
REMARK  Name = 
REMARK  4 active torsions:
REMARK  status: ('A' for Active; 'I' for Inactive)
REMARK    1  A    between atoms: C_2  and  C_3
REMARK    2  A    between atoms: N_7  and  S_8
REMARK    3  A    between atoms: S_8  and  N_11
REMARK    4  A    between atoms: C_23  and  C_24
REMARK                            x       y       z     vdW  Elec       q    Type
REMARK                         _______ _______ _______ _____ _____    ______ ____
ROOT
ATOM      1  O   UNL     1      -0.582  13.397  19.862  0.00  0.00    +0.000 OA
ATOM      2  C   UNL     1      -0.758  12.328  19.277  0.00  0.00    +0.000 C 
ATOM      3  N   UNL     1       0.043  11.204  19.520  0.00  0.00    +0.000 N 
ATOM      4  C   UNL     1       1.028  11.251  20.606  0.00  0.00    +0.000 C 
ATOM      5  C   UNL     1       0.787  10.178  21.668  0.00  0.00    +0.000 C 
ATOM      6  C   UNL     1       0.945   8.719  21.228  0.00  0.00    +0.000 C 
ATOM      7  N   UNL     1       1.498   8.495  19.911  0.00  0.00    +0.000 N 
ATOM      8  N   UNL     1       2.421   7.527  19.735  0.00  0.00    +0.000 NA
ATOM      9  C   UNL     1       2.638   7.495  18.409  0.00  0.00    +0.000 A 
ATOM     10  C   UNL     1       1.882   8.503  17.764  0.00  0.00    +0.000 A 
ATOM     11  C   UNL     1       1.115   9.093  18.744  0.00  0.00    +0.000 A 
ATOM     12  C   UNL     1       0.027  10.079  18.599  0.00  0.00    +0.000 C 
ENDROOT
BRANCH   9  13
ATOM     13  C   UNL     1       3.519   6.519  17.765  0.00  0.00    +0.000 A 
ATOM     14  C   UNL     1       3.169   5.157  17.747  0.00  0.00    +0.000 A 
ATOM     15  C   UNL     1       3.983   4.220  17.105  0.00  0.00    +0.000 A 
ATOM     16  C   UNL     1       5.150   4.645  16.486  0.00  0.00    +0.000 A 
ATOM     17  F   UNL     1       5.924   3.749  15.858  0.00  0.00    +0.000 F 
ATOM     18  C   UNL     1       5.529   5.983  16.511  0.00  0.00    +0.000 A 
ATOM     19  C   UNL     1       4.714   6.920  17.156  0.00  0.00    +0.000 A 
ENDBRANCH   9  13
BRANCH   2  20
ATOM     20  C   UNL     1      -1.976  12.145  18.357  0.00  0.00    +0.000 C 
ATOM     21  C   UNL     1      -1.772  10.832  17.583  0.00  0.00    +0.000 C 
ATOM     22  C   UNL     1      -3.014  10.453  16.790  0.00  0.00    +0.000 C 
ATOM     23  C   UNL     1      -4.234  10.412  17.701  0.00  0.00    +0.000 C 
ATOM     24  N   UNL     1      -4.439  11.777  18.263  0.00  0.00    +0.000 NA
ATOM     25  C   UNL     1      -3.290  12.145  19.161  0.00  0.00    +0.000 C 
BRANCH  24  26
ATOM     26  S   UNL     1      -6.006  12.018  18.902  0.00  0.00    +0.000 S 
ATOM     27  O   UNL     1      -6.952  11.401  18.003  0.00  0.00    +0.000 OA
ATOM     28  O   UNL     1      -5.986  11.709  20.313  0.00  0.00    +0.000 OA
BRANCH  26  29
ATOM     29  N   UNL     1      -6.192  13.670  18.706  0.00  0.00    +0.000 NA
ATOM     30  C   UNL     1      -6.434  14.507  19.889  0.00  0.00    +0.000 C 
ATOM     31  C   UNL     1      -7.849  15.012  19.668  0.00  0.00    +0.000 C 
ATOM     32  C   UNL     1      -7.916  15.229  18.165  0.00  0.00    +0.000 C 
ATOM     33  C   UNL     1      -6.937  14.220  17.565  0.00  0.00    +0.000 C 
ENDBRANCH  26  29
ENDBRANCH  24  26
ENDBRANCH   2  20
TORSDOF 4
ENDMDL
MODEL 6
REMARK VINA RESULT:      -7.5      5.180     10.954
REMARK  Name = 
REMARK  4 active torsions:
REMARK  status: ('A' for Active; 'I' for Inactive)
REMARK    1  A    between atoms: C_2  and  C_3
REMARK    2  A    between atoms: N_7  and  S_8
REMARK    3  A    between atoms: S_8  and  N_11
REMARK    4  A    between atoms: C_23  and  C_24
REMARK                            x       y       z     vdW  Elec       q    Type
REMARK                         _______ _______ _______ _____ _____    ______ ____
ROOT
ATOM      1  O   UNL     1      -2.263  11.793  19.285  0.00  0.00    +0.000 OA
ATOM      2  C   UNL     1      -1.392  11.355  20.037  0.00  0.00    +0.000 C 
ATOM      3  N   UNL     1      -0.437  10.423  19.609  0.00  0.00    +0.000 N 
ATOM      4  C   UNL     1      -0.378  10.063  18.188  0.00  0.00    +0.000 C 
ATOM      5  C   UNL     1       0.978  10.378  17.556  0.00  0.00    +0.000 C 
ATOM      6  C   UNL     1       2.186   9.595  18.079  0.00  0.00    +0.000 C 
ATOM      7  N   UNL     1       1.907   8.496  18.977  0.00  0.00    +0.000 N 
ATOM      8  N   UNL     1       2.572   7.332  18.826  0.00  0.00    +0.000 NA
ATOM      9  C   UNL     1       2.181   6.575  19.865  0.00  0.00    +0.000 A 
ATOM     10  C   UNL     1       1.212   7.262  20.634  0.00  0.00    +0.000 A 
ATOM     11  C   UNL     1       1.097   8.515  20.075  0.00  0.00    +0.000 A 
ATOM     12  C   UNL     1       0.359   9.689  20.581  0.00  0.00    +0.000 C 
ENDROOT
BRANCH   9  13
ATOM     13  C   UNL     1       2.729   5.246  20.137  0.00  0.00    +0.000 A 
ATOM     14  C   UNL     1       3.886   4.808  19.468  0.00  0.00    +0.000 A 
ATOM     15  C   UNL     1       4.440   3.556  19.745  0.00  0.00    +0.000 A 
ATOM     16  C   UNL     1       3.834   2.738  20.688  0.00  0.00    +0.000 A 
ATOM     17  F   UNL     1       4.373   1.543  20.965  0.00  0.00    +0.000 F 
ATOM     18  C   UNL     1       2.676   3.139  21.346  0.00  0.00    +0.000 A 
ATOM     19  C   UNL     1       2.121   4.392  21.066  0.00  0.00    +0.000 A 
ENDBRANCH   9  13
BRANCH   2  20
ATOM     20  C   UNL     1      -1.229  11.939  21.450  0.00  0.00    +0.000 C 
ATOM     21  C   UNL     1      -0.305  13.163  21.335  0.00  0.00    +0.000 C 
ATOM     22  C   UNL     1      -0.237  13.936  22.643  0.00  0.00    +0.000 C 
ATOM     23  C   UNL     1      -1.637  14.303  23.117  0.00  0.00    +0.000 C 
ATOM     24  N   UNL     1      -2.390  13.040  23.361  0.00  0.00    +0.000 NA
ATOM     25  C   UNL     1      -2.593  12.301  22.068  0.00  0.00    +0.000 C 
BRANCH  24  26
ATOM     26  S   UNL     1      -3.777  13.256  24.336  0.00  0.00    +0.000 S 
ATOM     27  O   UNL     1      -4.306  11.950  24.651  0.00  0.00    +0.000 OA
ATOM     28  O   UNL     1      -3.476  14.222  25.367  0.00  0.00    +0.000 OA
BRANCH  26  29
ATOM     29  N   UNL     1      -4.846  13.936  23.241  0.00  0.00    +0.000 NA
ATOM     30  C   UNL     1      -5.206  15.354  23.383  0.00  0.00    +0.000 C 
ATOM     31  C   UNL     1      -6.679  15.299  23.746  0.00  0.00    +0.000 C 
ATOM     32  C   UNL     1      -7.203  14.133  22.923  0.00  0.00    +0.000 C 
ATOM     33  C   UNL     1      -6.013  13.189  22.755  0.00  0.00    +0.000 C 
ENDBRANCH  26  29
ENDBRANCH  24  26
ENDBRANCH   2  20
TORSDOF 4
ENDMDL
MODEL 7
REMARK VINA RESULT:      -7.5      5.949      9.589
REMARK  Name = 
REMARK  4 active torsions:
REMARK  status: ('A' for Active; 'I' for Inactive)
REMARK    1  A    between atoms: C_2  and  C_3
REMARK    2  A    between atoms: N_7  and  S_8
REMARK    3  A    between atoms: S_8  and  N_11
REMARK    4  A    between atoms: C_23  and  C_24
REMARK                            x       y       z     vdW  Elec       q    Type
REMARK                         _______ _______ _______ _____ _____    ______ ____
ROOT
ATOM      1  O   UNL     1      -0.332  14.140  20.888  0.00  0.00    +0.000 OA
ATOM      2  C   UNL     1       0.380  13.760  19.958  0.00  0.00    +0.000 C 
ATOM      3  N   UNL     1       0.333  12.446  19.472  0.00  0.00    +0.000 N 
ATOM      4  C   UNL     1      -0.692  11.532  19.985  0.00  0.00    +0.000 C 
ATOM      5  C   UNL     1      -1.613  11.003  18.885  0.00  0.00    +0.000 C 
ATOM      6  C   UNL     1      -0.974  10.114  17.813  0.00  0.00    +0.000 C 
ATOM      7  N   UNL     1       0.389   9.694  18.047  0.00  0.00    +0.000 N 
ATOM      8  N   UNL     1       0.744   8.419  17.792  0.00  0.00    +0.000 NA
ATOM      9  C   UNL     1       2.072   8.383  17.993  0.00  0.00    +0.000 A 
ATOM     10  C   UNL     1       2.533   9.644  18.441  0.00  0.00    +0.000 A 
ATOM     11  C   UNL     1       1.443  10.484  18.412  0.00  0.00    +0.000 A 
ATOM     12  C   UNL     1       1.395  11.944  18.613  0.00  0.00    +0.000 C 
ENDROOT
BRANCH   9  13
ATOM     13  C   UNL     1       2.888   7.193  17.744  0.00  0.00    +0.000 A 
ATOM     14  C   UNL     1       2.395   5.918  18.072  0.00  0.00    +0.000 A 
ATOM     15  C   UNL     1       3.149   4.771  17.806  0.00  0.00    +0.000 A 
ATOM     16  C   UNL     1       4.399   4.901  17.217  0.00  0.00    +0.000 A 
ATOM     17  F   UNL     1       5.115   3.802  16.949  0.00  0.00    +0.000 F 
ATOM     18  C   UNL     1       4.917   6.154  16.905  0.00  0.00    +0.000 A 
ATOM     19  C   UNL     1       4.163   7.301  17.174  0.00  0.00    +0.000 A 
ENDBRANCH   9  13
BRANCH   2  20
ATOM     20  C   UNL     1       1.247  14.770  19.190  0.00  0.00    +0.000 C 
ATOM     21  C   UNL     1       0.374  16.004  18.910  0.00  0.00    +0.000 C 
ATOM     22  C   UNL     1       1.192  17.148  18.329  0.00  0.00    +0.000 C 
ATOM     23  C   UNL     1       2.379  17.464  19.231  0.00  0.00    +0.000 C 
ATOM     24  N   UNL     1       3.247  16.254  19.294  0.00  0.00    +0.000 NA
ATOM     25  C   UNL     1       2.521  15.130  19.979  0.00  0.00    +0.000 C 
BRANCH  24  26
ATOM     26  S   UNL     1       4.829  16.585  19.852  0.00  0.00    +0.000 S 
ATOM     27  O   UNL     1       5.372  17.648  19.041  0.00  0.00    +0.000 OA
ATOM     28  O   UNL     1       4.806  16.665  21.294  0.00  0.00    +0.000 OA
BRANCH  26  29
ATOM     29  N   UNL     1       5.638  15.193  19.392  0.00  0.00    +0.000 NA
ATOM     30  C   UNL     1       6.928  14.877  20.021  0.00  0.00    +0.000 C 
ATOM     31  C   UNL     1       7.911  15.009  18.873  0.00  0.00    +0.000 C 
ATOM     32  C   UNL     1       7.136  14.473  17.680  0.00  0.00    +0.000 C 
ATOM     33  C   UNL     1       5.667  14.760  17.989  0.00  0.00    +0.000 C 
ENDBRANCH  26  29
ENDBRANCH  24  26
ENDBRANCH   2  20
TORSDOF 4
ENDMDL
MODEL 8
REMARK VINA RESULT:      -7.5      4.684     10.982
REMARK  Name = 
REMARK  4 active torsions:
REMARK  status: ('A' for Active; 'I' for Inactive)
REMARK    1  A    between atoms: C_2  and  C_3
REMARK    2  A    between atoms: N_7  and  S_8
REMARK    3  A    between atoms: S_8  and  N_11
REMARK    4  A    between atoms: C_23  and  C_24
REMARK                            x       y       z     vdW  Elec       q    Type
REMARK                         _______ _______ _______ _____ _____    ______ ____
ROOT
ATOM      1  O   UNL     1       1.403   8.794  22.235  0.00  0.00    +0.000 OA
ATOM      2  C   UNL     1       1.425   8.819  21.005  0.00  0.00    +0.000 C 
ATOM      3  N   UNL     1       1.882   7.734  20.245  0.00  0.00    +0.000 N 
ATOM      4  C   UNL     1       2.210   6.475  20.923  0.00  0.00    +0.000 C 
ATOM      5  C   UNL     1       1.370   5.300  20.423  0.00  0.00    +0.000 C 
ATOM      6  C   UNL     1       1.570   4.876  18.964  0.00  0.00    +0.000 C 
ATOM      7  N   UNL     1       2.669   5.491  18.255  0.00  0.00    +0.000 N 
ATOM      8  N   UNL     1       3.453   4.733  17.461  0.00  0.00    +0.000 NA
ATOM      9  C   UNL     1       4.286   5.604  16.867  0.00  0.00    +0.000 A 
ATOM     10  C   UNL     1       4.052   6.914  17.350  0.00  0.00    +0.000 A 
ATOM     11  C   UNL     1       2.970   6.822  18.197  0.00  0.00    +0.000 A 
ATOM     12  C   UNL     1       2.201   7.907  18.836  0.00  0.00    +0.000 C 
ENDROOT
BRANCH   9  13
ATOM     13  C   UNL     1       5.262   5.212  15.849  0.00  0.00    +0.000 A 
ATOM     14  C   UNL     1       4.858   4.440  14.745  0.00  0.00    +0.000 A 
ATOM     15  C   UNL     1       5.772   4.088  13.747  0.00  0.00    +0.000 A 
ATOM     16  C   UNL     1       7.091   4.504  13.857  0.00  0.00    +0.000 A 
ATOM     17  F   UNL     1       7.964   4.180  12.895  0.00  0.00    +0.000 F 
ATOM     18  C   UNL     1       7.519   5.248  14.952  0.00  0.00    +0.000 A 
ATOM     19  C   UNL     1       6.604   5.598  15.951  0.00  0.00    +0.000 A 
ENDBRANCH   9  13
BRANCH   2  20
ATOM     20  C   UNL     1       0.801  10.002  20.247  0.00  0.00    +0.000 C 
ATOM     21  C   UNL     1      -0.630   9.594  19.860  0.00  0.00    +0.000 C 
ATOM     22  C   UNL     1      -1.407  10.767  19.280  0.00  0.00    +0.000 C 
ATOM     23  C   UNL     1      -1.376  11.950  20.239  0.00  0.00    +0.000 C 
ATOM     24  N   UNL     1       0.043  12.371  20.409  0.00  0.00    +0.000 NA
ATOM     25  C   UNL     1       0.826  11.287  21.097  0.00  0.00    +0.000 C 
BRANCH  24  26
ATOM     26  S   UNL     1       0.210  13.948  21.048  0.00  0.00    +0.000 S 
ATOM     27  O   UNL     1       1.327  13.940  21.963  0.00  0.00    +0.000 OA
ATOM     28  O   UNL     1       0.121  14.901  19.967  0.00  0.00    +0.000 OA
BRANCH  26  29
ATOM     29  N   UNL     1      -1.164  14.065  21.997  0.00  0.00    +0.000 NA
ATOM     30  C   UNL     1      -1.976  15.288  21.929  0.00  0.00    +0.000 C 
ATOM     31  C   UNL     1      -1.800  15.894  23.310  0.00  0.00    +0.000 C 
ATOM     32  C   UNL     1      -1.758  14.680  24.225  0.00  0.00    +0.000 C 
ATOM     33  C   UNL     1      -1.184  13.550  23.373  0.00  0.00    +0.000 C 
ENDBRANCH  26  29
ENDBRANCH  24  26
ENDBRANCH   2  20
TORSDOF 4
ENDMDL
MODEL 9
REMARK VINA RESULT:      -7.4      0.828      1.395
REMARK  Name = 
REMARK  4 active torsions:
REMARK  status: ('A' for Active; 'I' for Inactive)
REMARK    1  A    between atoms: C_2  and  C_3
REMARK    2  A    between atoms: N_7  and  S_8
REMARK    3  A    between atoms: S_8  and  N_11
REMARK    4  A    between atoms: C_23  and  C_24
REMARK                            x       y       z     vdW  Elec       q    Type
REMARK                         _______ _______ _______ _____ _____    ______ ____
ROOT
ATOM      1  O   UNL     1       2.445   8.814  17.283  0.00  0.00    +0.000 OA
ATOM      2  C   UNL     1       1.965   8.704  18.412  0.00  0.00    +0.000 C 
ATOM      3  N   UNL     1       0.930   9.532  18.865  0.00  0.00    +0.000 N 
ATOM      4  C   UNL     1       0.297  10.463  17.926  0.00  0.00    +0.000 C 
ATOM      5  C   UNL     1      -1.203  10.211  17.766  0.00  0.00    +0.000 C 
ATOM      6  C   UNL     1      -2.080  10.441  19.001  0.00  0.00    +0.000 C 
ATOM      7  N   UNL     1      -1.444  11.063  20.141  0.00  0.00    +0.000 N 
ATOM      8  N   UNL     1      -2.098  12.026  20.821  0.00  0.00    +0.000 NA
ATOM      9  C   UNL     1      -1.306  12.306  21.870  0.00  0.00    +0.000 A 
ATOM     10  C   UNL     1      -0.115  11.546  21.800  0.00  0.00    +0.000 A 
ATOM     11  C   UNL     1      -0.254  10.713  20.712  0.00  0.00    +0.000 A 
ATOM     12  C   UNL     1       0.612   9.599  20.284  0.00  0.00    +0.000 C 
ENDROOT
BRANCH   9  13
ATOM     13  C   UNL     1      -1.678  13.250  22.925  0.00  0.00    +0.000 A 
ATOM     14  C   UNL     1      -0.820  14.315  23.254  0.00  0.00    +0.000 A 
ATOM     15  C   UNL     1      -1.179  15.244  24.234  0.00  0.00    +0.000 A 
ATOM     16  C   UNL     1      -2.395  15.105  24.890  0.00  0.00    +0.000 A 
ATOM     17  F   UNL     1      -2.747  16.003  25.819  0.00  0.00    +0.000 F 
ATOM     18  C   UNL     1      -3.249  14.047  24.597  0.00  0.00    +0.000 A 
ATOM     19  C   UNL     1      -2.888  13.116  23.618  0.00  0.00    +0.000 A 
ENDBRANCH   9  13
BRANCH   2  20
ATOM     20  C   UNL     1       2.390   7.537  19.318  0.00  0.00    +0.000 C 
ATOM     21  C   UNL     1       1.114   6.972  19.964  0.00  0.00    +0.000 C 
ATOM     22  C   UNL     1       1.397   5.686  20.726  0.00  0.00    +0.000 C 
ATOM     23  C   UNL     1       2.092   4.675  19.824  0.00  0.00    +0.000 C 
ATOM     24  N   UNL     1       3.394   5.257  19.393  0.00  0.00    +0.000 NA
ATOM     25  C   UNL     1       3.161   6.464  18.526  0.00  0.00    +0.000 C 
BRANCH  24  26
ATOM     26  S   UNL     1       4.490   4.092  18.789  0.00  0.00    +0.000 S 
ATOM     27  O   UNL     1       5.007   3.346  19.911  0.00  0.00    +0.000 OA
ATOM     28  O   UNL     1       3.891   3.436  17.651  0.00  0.00    +0.000 OA
BRANCH  26  29
ATOM     29  N   UNL     1       5.747   5.065  18.263  0.00  0.00    +0.000 NA
ATOM     30  C   UNL     1       6.482   4.685  17.048  0.00  0.00    +0.000 C 
ATOM     31  C   UNL     1       7.867   4.353  17.574  0.00  0.00    +0.000 C 
ATOM     32  C   UNL     1       8.076   5.370  18.685  0.00  0.00    +0.000 C 
ATOM     33  C   UNL     1       6.678   5.685  19.215  0.00  0.00    +0.000 C 
ENDBRANCH  26  29
ENDBRANCH  24  26
ENDBRANCH   2  20
TORSDOF 4
ENDMDL
