MODEL 1
REMARK VINA RESULT:      -7.3      0.000      0.000
REMARK  Name = 
REMARK  11 active torsions:
REMARK  status: ('A' for Active; 'I' for Inactive)
REMARK    1  A    between atoms: C_1  and  C_2
REMARK    2  A    between atoms: C_2  and  C_4
REMARK    3  A    between atoms: C_5  and  O_6
REMARK    4  A    between atoms: C_7  and  C_8
REMARK    5  A    between atoms: C_9  and  O_10
REMARK    6  A    between atoms: C_19  and  C_20
REMARK    7  A    between atoms: C_19  and  N_21
REMARK    8  A    between atoms: N_21  and  C_22
REMARK    9  A    between atoms: C_22  and  C_23
REMARK   10  A    between atoms: C_23  and  C_26
REMARK   11  A    between atoms: C_31  and  C_32
REMARK                            x       y       z     vdW  Elec       q    Type
REMARK                         _______ _______ _______ _____ _____    ______ ____
ROOT
ATOM      1  C   UNL     1       1.008   9.269  21.237  0.00  0.00    +0.000 A 
ATOM      2  C   UNL     1       0.655  10.411  20.507  0.00  0.00    +0.000 A 
ATOM      3  C   UNL     1       0.580  10.380  19.091  0.00  0.00    +0.000 A 
ATOM      4  C   UNL     1       0.390  11.679  18.339  0.00  0.00    +0.000 C 
ATOM      5  C   UNL     1       0.875   9.173  18.412  0.00  0.00    +0.000 A 
ATOM      6  C   UNL     1       1.347   8.057  19.101  0.00  0.00    +0.000 A 
ATOM      7  C   UNL     1       1.407   8.153  20.517  0.00  0.00    +0.000 A 
ATOM      8  O   UNL     1       2.159   7.147  21.069  0.00  0.00    +0.000 OA
ATOM      9  C   UNL     1       2.683   6.371  20.042  0.00  0.00    +0.000 C 
ATOM     10  C   UNL     1       3.096   5.140  20.319  0.00  0.00    +0.000 C 
ATOM     11  C   UNL     1       3.474   4.188  19.254  0.00  0.00    +0.000 C 
ATOM     12  O   UNL     1       3.837   3.028  19.514  0.00  0.00    +0.000 OA
ATOM     13  C   UNL     1       3.468   4.825  17.908  0.00  0.00    +0.000 C 
ATOM     14  C   UNL     1       4.672   4.766  17.259  0.00  0.00    +0.000 C 
ATOM     15  C   UNL     1       5.123   5.659  16.112  0.00  0.00    +0.000 C 
ATOM     16  C   UNL     1       2.258   5.784  17.753  0.00  0.00    +0.000 C 
ATOM     17  O   UNL     1       1.279   5.464  17.110  0.00  0.00    +0.000 OA
ATOM     18  C   UNL     1       2.389   7.013  18.652  0.00  0.00    +0.000 C 
ATOM     19  C   UNL     1       3.450   7.858  17.926  0.00  0.00    +0.000 C 
ENDROOT
BRANCH   1  21
ATOM     20  C   UNL     1      -0.140   9.456  23.552  0.00  0.00    +0.000 C 
ATOM     21  C   UNL     1       1.117   9.357  22.718  0.00  0.00    +0.000 C 
ATOM     22  O   UNL     1       2.238   9.434  23.228  0.00  0.00    +0.000 OA
ENDBRANCH   1  21
BRANCH   2  23
ATOM     23  O   UNL     1       0.448  11.619  21.120  0.00  0.00    +0.000 OA
ATOM     24  H   UNL     1       0.377  12.313  20.425  0.00  0.00    +0.000 HD
ENDBRANCH   2  23
BRANCH   5  25
ATOM     25  O   UNL     1       0.878   9.117  17.045  0.00  0.00    +0.000 OA
ATOM     26  H   UNL     1      -0.030   9.163  16.708  0.00  0.00    +0.000 HD
ENDBRANCH   5  25
BRANCH  14  27
ATOM     27  N   UNL     1       5.782   4.003  17.683  0.00  0.00    +0.000 N 
ATOM     28  H   UNL     1       5.827   3.083  17.235  0.00  0.00    +0.000 HD
BRANCH  27  29
ATOM     29  C   UNL     1       7.144   4.597  17.609  0.00  0.00    +0.000 C 
BRANCH  29  30
ATOM     30  C   UNL     1       7.441   5.560  18.766  0.00  0.00    +0.000 C 
ATOM     31  F   UNL     1       6.430   5.518  19.677  0.00  0.00    +0.000 F 
ATOM     32  F   UNL     1       8.570   5.160  19.414  0.00  0.00    +0.000 F 
BRANCH  30  33
ATOM     33  C   UNL     1       7.619   6.974  18.232  0.00  0.00    +0.000 C 
ATOM     34  F   UNL     1       8.676   7.589  18.828  0.00  0.00    +0.000 F 
ATOM     35  F   UNL     1       7.880   6.967  16.899  0.00  0.00    +0.000 F 
ENDBRANCH  30  33
ENDBRANCH  29  30
ENDBRANCH  27  29
ENDBRANCH  14  27
TORSDOF 7
ENDMDL
MODEL 2
REMARK VINA RESULT:      -7.2      3.781      6.027
REMARK  Name = 
REMARK  11 active torsions:
REMARK  status: ('A' for Active; 'I' for Inactive)
REMARK    1  A    between atoms: C_1  and  C_2
REMARK    2  A    between atoms: C_2  and  C_4
REMARK    3  A    between atoms: C_5  and  O_6
REMARK    4  A    between atoms: C_7  and  C_8
REMARK    5  A    between atoms: C_9  and  O_10
REMARK    6  A    between atoms: C_19  and  C_20
REMARK    7  A    between atoms: C_19  and  N_21
REMARK    8  A    between atoms: N_21  and  C_22
REMARK    9  A    between atoms: C_22  and  C_23
REMARK   10  A    between atoms: C_23  and  C_26
REMARK   11  A    between atoms: C_31  and  C_32
REMARK                            x       y       z     vdW  Elec       q    Type
REMARK                         _______ _______ _______ _____ _____    ______ ____
ROOT
ATOM      1  C   UNL     1      -0.508  15.093  21.875  0.00  0.00    +0.000 A 
ATOM      2  C   UNL     1      -0.397  16.065  20.872  0.00  0.00    +0.000 A 
ATOM      3  C   UNL     1      -0.455  15.710  19.501  0.00  0.00    +0.000 A 
ATOM      4  C   UNL     1      -0.135  16.759  18.458  0.00  0.00    +0.000 C 
ATOM      5  C   UNL     1      -0.622  14.349  19.147  0.00  0.00    +0.000 A 
ATOM      6  C   UNL     1      -0.612  13.348  20.117  0.00  0.00    +0.000 A 
ATOM      7  C   UNL     1      -0.542  13.767  21.473  0.00  0.00    +0.000 A 
ATOM      8  O   UNL     1      -0.229  12.730  22.315  0.00  0.00    +0.000 OA
ATOM      9  C   UNL     1      -0.017  11.588  21.552  0.00  0.00    +0.000 C 
ATOM     10  C   UNL     1      -0.098  10.401  22.142  0.00  0.00    +0.000 C 
ATOM     11  C   UNL     1      -0.086   9.143  21.367  0.00  0.00    +0.000 C 
ATOM     12  O   UNL     1      -0.186   8.034  21.920  0.00  0.00    +0.000 OA
ATOM     13  C   UNL     1       0.168   9.383  19.919  0.00  0.00    +0.000 C 
ATOM     14  C   UNL     1       1.273   8.736  19.434  0.00  0.00    +0.000 C 
ATOM     15  C   UNL     1       2.042   9.093  18.169  0.00  0.00    +0.000 C 
ATOM     16  C   UNL     1      -0.594  10.640  19.423  0.00  0.00    +0.000 C 
ATOM     17  O   UNL     1      -1.611  10.542  18.767  0.00  0.00    +0.000 OA
ATOM     18  C   UNL     1      -0.028  11.923  20.029  0.00  0.00    +0.000 C 
ATOM     19  C   UNL     1       1.283  12.123  19.250  0.00  0.00    +0.000 C 
ENDROOT
BRANCH   1  21
ATOM     20  C   UNL     1      -1.581  15.317  24.222  0.00  0.00    +0.000 C 
ATOM     21  C   UNL     1      -0.397  15.503  23.301  0.00  0.00    +0.000 C 
ATOM     22  O   UNL     1       0.634  16.066  23.679  0.00  0.00    +0.000 OA
ENDBRANCH   1  21
BRANCH   2  23
ATOM     23  O   UNL     1      -0.147  17.379  21.170  0.00  0.00    +0.000 OA
ATOM     24  H   UNL     1      -1.006  17.855  21.221  0.00  0.00    +0.000 HD
ENDBRANCH   2  23
BRANCH   5  25
ATOM     25  O   UNL     1      -0.618  13.957  17.837  0.00  0.00    +0.000 OA
ATOM     26  H   UNL     1       0.259  13.626  17.590  0.00  0.00    +0.000 HD
ENDBRANCH   5  25
BRANCH  14  27
ATOM     27  N   UNL     1       2.011   7.759  20.136  0.00  0.00    +0.000 N 
ATOM     28  H   UNL     1       1.507   7.388  20.947  0.00  0.00    +0.000 HD
BRANCH  27  29
ATOM     29  C   UNL     1       2.570   6.597  19.394  0.00  0.00    +0.000 C 
BRANCH  29  30
ATOM     30  C   UNL     1       2.158   5.248  19.997  0.00  0.00    +0.000 C 
ATOM     31  F   UNL     1       3.155   4.770  20.791  0.00  0.00    +0.000 F 
ATOM     32  F   UNL     1       1.068   5.419  20.795  0.00  0.00    +0.000 F 
BRANCH  30  33
ATOM     33  C   UNL     1       1.839   4.258  18.886  0.00  0.00    +0.000 C 
ATOM     34  F   UNL     1       0.706   3.560  19.167  0.00  0.00    +0.000 F 
ATOM     35  F   UNL     1       1.616   4.896  17.708  0.00  0.00    +0.000 F 
ENDBRANCH  30  33
ENDBRANCH  29  30
ENDBRANCH  27  29
ENDBRANCH  14  27
TORSDOF 7
ENDMDL
MODEL 3
REMARK VINA RESULT:      -7.0      3.755      6.049
REMARK  Name = 
REMARK  11 active torsions:
REMARK  status: ('A' for Active; 'I' for Inactive)
REMARK    1  A    between atoms: C_1  and  C_2
REMARK    2  A    between atoms: C_2  and  C_4
REMARK    3  A    between atoms: C_5  and  O_6
REMARK    4  A    between atoms: C_7  and  C_8
REMARK    5  A    between atoms: C_9  and  O_10
REMARK    6  A    between atoms: C_19  and  C_20
REMARK    7  A    between atoms: C_19  and  N_21
REMARK    8  A    between atoms: N_21  and  C_22
REMARK    9  A    between atoms: C_22  and  C_23
REMARK   10  A    between atoms: C_23  and  C_26
REMARK   11  A    between atoms: C_31  and  C_32
REMARK                            x       y       z     vdW  Elec       q    Type
REMARK                         _______ _______ _______ _____ _____    ______ ____
ROOT
ATOM      1  C   UNL     1      -0.478  15.150  22.006  0.00  0.00    +0.000 A 
ATOM      2  C   UNL     1      -0.377  16.170  21.051  0.00  0.00    +0.000 A 
ATOM      3  C   UNL     1      -0.458  15.884  19.665  0.00  0.00    +0.000 A 
ATOM      4  C   UNL     1      -0.148  16.982  18.671  0.00  0.00    +0.000 C 
ATOM      5  C   UNL     1      -0.638  14.544  19.246  0.00  0.00    +0.000 A 
ATOM      6  C   UNL     1      -0.619  13.495  20.165  0.00  0.00    +0.000 A 
ATOM      7  C   UNL     1      -0.526  13.845  21.539  0.00  0.00    +0.000 A 
ATOM      8  O   UNL     1      -0.207  12.767  22.323  0.00  0.00    +0.000 OA
ATOM      9  C   UNL     1      -0.013  11.663  21.502  0.00  0.00    +0.000 C 
ATOM     10  C   UNL     1      -0.092  10.449  22.033  0.00  0.00    +0.000 C 
ATOM     11  C   UNL     1      -0.098   9.231  21.196  0.00  0.00    +0.000 C 
ATOM     12  O   UNL     1      -0.197   8.096  21.694  0.00  0.00    +0.000 OA
ATOM     13  C   UNL     1       0.135   9.541  19.758  0.00  0.00    +0.000 C 
ATOM     14  C   UNL     1       1.229   8.914  19.224  0.00  0.00    +0.000 C 
ATOM     15  C   UNL     1       1.981   9.330  17.968  0.00  0.00    +0.000 C 
ATOM     16  C   UNL     1      -0.627  10.825  19.337  0.00  0.00    +0.000 C 
ATOM     17  O   UNL     1      -1.654  10.765  18.692  0.00  0.00    +0.000 OA
ATOM     18  C   UNL     1      -0.044  12.074  19.998  0.00  0.00    +0.000 C 
ATOM     19  C   UNL     1       1.256  12.306  19.209  0.00  0.00    +0.000 C 
ENDROOT
BRANCH   1  21
ATOM     20  C   UNL     1      -1.518  15.270  24.376  0.00  0.00    +0.000 C 
ATOM     21  C   UNL     1      -0.343  15.487  23.448  0.00  0.00    +0.000 C 
ATOM     22  O   UNL     1       0.698  16.019  23.840  0.00  0.00    +0.000 OA
ENDBRANCH   1  21
BRANCH   2  23
ATOM     23  O   UNL     1      -0.115  17.466  21.411  0.00  0.00    +0.000 OA
ATOM     24  H   UNL     1      -0.560  18.064  20.768  0.00  0.00    +0.000 HD
ENDBRANCH   2  23
BRANCH   5  25
ATOM     25  O   UNL     1      -0.656  14.217  17.918  0.00  0.00    +0.000 OA
ATOM     26  H   UNL     1      -1.560  14.284  17.571  0.00  0.00    +0.000 HD
ENDBRANCH   5  25
BRANCH  14  27
ATOM     27  N   UNL     1       1.972   7.900  19.865  0.00  0.00    +0.000 N 
ATOM     28  H   UNL     1       1.403   7.332  20.500  0.00  0.00    +0.000 HD
BRANCH  27  29
ATOM     29  C   UNL     1       2.785   6.963  19.044  0.00  0.00    +0.000 C 
BRANCH  29  30
ATOM     30  C   UNL     1       2.485   5.489  19.344  0.00  0.00    +0.000 C 
ATOM     31  F   UNL     1       1.731   4.955  18.343  0.00  0.00    +0.000 F 
ATOM     32  F   UNL     1       3.650   4.784  19.377  0.00  0.00    +0.000 F 
BRANCH  30  33
ATOM     33  C   UNL     1       1.763   5.367  20.678  0.00  0.00    +0.000 C 
ATOM     34  F   UNL     1       0.545   4.784  20.521  0.00  0.00    +0.000 F 
ATOM     35  F   UNL     1       2.457   4.581  21.542  0.00  0.00    +0.000 F 
ENDBRANCH  30  33
ENDBRANCH  29  30
ENDBRANCH  27  29
ENDBRANCH  14  27
TORSDOF 7
ENDMDL
MODEL 4
REMARK VINA RESULT:      -6.8      4.200      7.089
REMARK  Name = 
REMARK  11 active torsions:
REMARK  status: ('A' for Active; 'I' for Inactive)
REMARK    1  A    between atoms: C_1  and  C_2
REMARK    2  A    between atoms: C_2  and  C_4
REMARK    3  A    between atoms: C_5  and  O_6
REMARK    4  A    between atoms: C_7  and  C_8
REMARK    5  A    between atoms: C_9  and  O_10
REMARK    6  A    between atoms: C_19  and  C_20
REMARK    7  A    between atoms: C_19  and  N_21
REMARK    8  A    between atoms: N_21  and  C_22
REMARK    9  A    between atoms: C_22  and  C_23
REMARK   10  A    between atoms: C_23  and  C_26
REMARK   11  A    between atoms: C_31  and  C_32
REMARK                            x       y       z     vdW  Elec       q    Type
REMARK                         _______ _______ _______ _____ _____    ______ ____
ROOT
ATOM      1  C   UNL     1      -4.077  13.762  21.243  0.00  0.00    +0.000 A 
ATOM      2  C   UNL     1      -4.152  14.306  22.532  0.00  0.00    +0.000 A 
ATOM      3  C   UNL     1      -3.020  14.325  23.385  0.00  0.00    +0.000 A 
ATOM      4  C   UNL     1      -3.197  14.740  24.829  0.00  0.00    +0.000 C 
ATOM      5  C   UNL     1      -1.799  13.777  22.922  0.00  0.00    +0.000 A 
ATOM      6  C   UNL     1      -1.725  13.119  21.695  0.00  0.00    +0.000 A 
ATOM      7  C   UNL     1      -2.895  13.128  20.890  0.00  0.00    +0.000 A 
ATOM      8  O   UNL     1      -2.824  12.213  19.870  0.00  0.00    +0.000 OA
ATOM      9  C   UNL     1      -1.629  11.513  19.986  0.00  0.00    +0.000 C 
ATOM     10  C   UNL     1      -1.155  10.877  18.922  0.00  0.00    +0.000 C 
ATOM     11  C   UNL     1       0.198  10.283  18.907  0.00  0.00    +0.000 C 
ATOM     12  O   UNL     1       0.649   9.709  17.901  0.00  0.00    +0.000 OA
ATOM     13  C   UNL     1       0.859  10.368  20.239  0.00  0.00    +0.000 C 
ATOM     14  C   UNL     1       1.221   9.154  20.758  0.00  0.00    +0.000 C 
ATOM     15  C   UNL     1       1.502   8.848  22.223  0.00  0.00    +0.000 C 
ATOM     16  C   UNL     1       0.575  11.736  20.913  0.00  0.00    +0.000 C 
ATOM     17  O   UNL     1       1.416  12.611  20.942  0.00  0.00    +0.000 OA
ATOM     18  C   UNL     1      -0.894  11.878  21.312  0.00  0.00    +0.000 C 
ATOM     19  C   UNL     1      -1.002  10.980  22.556  0.00  0.00    +0.000 C 
ENDROOT
BRANCH   1  21
ATOM     20  C   UNL     1      -6.054  12.421  20.241  0.00  0.00    +0.000 C 
ATOM     21  C   UNL     1      -5.300  13.722  20.398  0.00  0.00    +0.000 C 
ATOM     22  O   UNL     1      -5.624  14.735  19.772  0.00  0.00    +0.000 OA
ENDBRANCH   1  21
BRANCH   2  23
ATOM     23  O   UNL     1      -5.335  14.766  23.049  0.00  0.00    +0.000 OA
ATOM     24  H   UNL     1      -6.059  14.175  22.743  0.00  0.00    +0.000 HD
ENDBRANCH   2  23
BRANCH   5  25
ATOM     25  O   UNL     1      -0.701  13.717  23.736  0.00  0.00    +0.000 OA
ATOM     26  H   UNL     1       0.104  13.617  23.204  0.00  0.00    +0.000 HD
ENDBRANCH   5  25
BRANCH  14  27
ATOM     27  N   UNL     1       1.190   7.931  20.053  0.00  0.00    +0.000 N 
ATOM     28  H   UNL     1       0.569   7.958  19.239  0.00  0.00    +0.000 HD
BRANCH  27  29
ATOM     29  C   UNL     1       2.469   7.313  19.612  0.00  0.00    +0.000 C 
BRANCH  29  30
ATOM     30  C   UNL     1       2.388   5.785  19.501  0.00  0.00    +0.000 C 
ATOM     31  F   UNL     1       1.851   5.433  18.301  0.00  0.00    +0.000 F 
ATOM     32  F   UNL     1       3.643   5.257  19.540  0.00  0.00    +0.000 F 
BRANCH  30  33
ATOM     33  C   UNL     1       1.553   5.225  20.644  0.00  0.00    +0.000 C 
ATOM     34  F   UNL     1       0.809   4.165  20.229  0.00  0.00    +0.000 F 
ATOM     35  F   UNL     1       2.341   4.770  21.652  0.00  0.00    +0.000 F 
ENDBRANCH  30  33
ENDBRANCH  29  30
ENDBRANCH  27  29
ENDBRANCH  14  27
TORSDOF 7
ENDMDL
MODEL 5
REMARK VINA RESULT:      -6.7      3.835      6.594
REMARK  Name = 
REMARK  11 active torsions:
REMARK  status: ('A' for Active; 'I' for Inactive)
REMARK    1  A    between atoms: C_1  and  C_2
REMARK    2  A    between atoms: C_2  and  C_4
REMARK    3  A    between atoms: C_5  and  O_6
REMARK    4  A    between atoms: C_7  and  C_8
REMARK    5  A    between atoms: C_9  and  O_10
REMARK    6  A    between atoms: C_19  and  C_20
REMARK    7  A    between atoms: C_19  and  N_21
REMARK    8  A    between atoms: N_21  and  C_22
REMARK    9  A    between atoms: C_22  and  C_23
REMARK   10  A    between atoms: C_23  and  C_26
REMARK   11  A    between atoms: C_31  and  C_32
REMARK                            x       y       z     vdW  Elec       q    Type
REMARK                         _______ _______ _______ _____ _____    ______ ____
ROOT
ATOM      1  C   UNL     1      -4.050  12.632  20.448  0.00  0.00    +0.000 A 
ATOM      2  C   UNL     1      -4.377  12.941  21.775  0.00  0.00    +0.000 A 
ATOM      3  C   UNL     1      -3.396  12.897  22.798  0.00  0.00    +0.000 A 
ATOM      4  C   UNL     1      -3.834  13.045  24.238  0.00  0.00    +0.000 C 
ATOM      5  C   UNL     1      -2.070  12.528  22.466  0.00  0.00    +0.000 A 
ATOM      6  C   UNL     1      -1.744  12.097  21.181  0.00  0.00    +0.000 A 
ATOM      7  C   UNL     1      -2.771  12.157  20.203  0.00  0.00    +0.000 A 
ATOM      8  O   UNL     1      -2.452  11.438  19.079  0.00  0.00    +0.000 OA
ATOM      9  C   UNL     1      -1.225  10.818  19.283  0.00  0.00    +0.000 C 
ATOM     10  C   UNL     1      -0.532  10.410  18.226  0.00  0.00    +0.000 C 
ATOM     11  C   UNL     1       0.860   9.930  18.346  0.00  0.00    +0.000 C 
ATOM     12  O   UNL     1       1.516   9.571  17.353  0.00  0.00    +0.000 OA
ATOM     13  C   UNL     1       1.297   9.834  19.767  0.00  0.00    +0.000 C 
ATOM     14  C   UNL     1       1.696   8.580  20.143  0.00  0.00    +0.000 C 
ATOM     15  C   UNL     1       1.778   8.050  21.568  0.00  0.00    +0.000 C 
ATOM     16  C   UNL     1       0.777  11.042  20.590  0.00  0.00    +0.000 C 
ATOM     17  O   UNL     1       1.511  11.959  20.897  0.00  0.00    +0.000 OA
ATOM     18  C   UNL     1      -0.742  11.005  20.753  0.00  0.00    +0.000 C 
ATOM     19  C   UNL     1      -0.949   9.901  21.805  0.00  0.00    +0.000 C 
ENDROOT
BRANCH   1  21
ATOM     20  C   UNL     1      -5.438  11.378  18.655  0.00  0.00    +0.000 C 
ATOM     21  C   UNL     1      -5.119  12.647  19.413  0.00  0.00    +0.000 C 
ATOM     22  O   UNL     1      -5.663  13.719  19.135  0.00  0.00    +0.000 OA
ENDBRANCH   1  21
BRANCH   2  23
ATOM     23  O   UNL     1      -5.665  13.217  22.151  0.00  0.00    +0.000 OA
ATOM     24  H   UNL     1      -5.770  14.193  22.212  0.00  0.00    +0.000 HD
ENDBRANCH   2  23
BRANCH   5  25
ATOM     25  O   UNL     1      -1.110  12.411  23.434  0.00  0.00    +0.000 OA
ATOM     26  H   UNL     1      -1.097  11.506  23.783  0.00  0.00    +0.000 HD
ENDBRANCH   5  25
BRANCH  14  27
ATOM     27  N   UNL     1       1.897   7.497  19.260  0.00  0.00    +0.000 N 
ATOM     28  H   UNL     1       2.079   7.798  18.298  0.00  0.00    +0.000 HD
BRANCH  27  29
ATOM     29  C   UNL     1       2.909   6.460  19.597  0.00  0.00    +0.000 C 
BRANCH  29  30
ATOM     30  C   UNL     1       2.396   5.031  19.383  0.00  0.00    +0.000 C 
ATOM     31  F   UNL     1       1.612   4.979  18.271  0.00  0.00    +0.000 F 
ATOM     32  F   UNL     1       3.449   4.196  19.159  0.00  0.00    +0.000 F 
BRANCH  30  33
ATOM     33  C   UNL     1       1.617   4.569  20.607  0.00  0.00    +0.000 C 
ATOM     34  F   UNL     1       0.377   4.132  20.258  0.00  0.00    +0.000 F 
ATOM     35  F   UNL     1       2.235   3.526  21.218  0.00  0.00    +0.000 F 
ENDBRANCH  30  33
ENDBRANCH  29  30
ENDBRANCH  27  29
ENDBRANCH  14  27
TORSDOF 7
ENDMDL
MODEL 6
REMARK VINA RESULT:      -6.7      4.340      7.163
REMARK  Name = 
REMARK  11 active torsions:
REMARK  status: ('A' for Active; 'I' for Inactive)
REMARK    1  A    between atoms: C_1  and  C_2
REMARK    2  A    between atoms: C_2  and  C_4
REMARK    3  A    between atoms: C_5  and  O_6
REMARK    4  A    between atoms: C_7  and  C_8
REMARK    5  A    between atoms: C_9  and  O_10
REMARK    6  A    between atoms: C_19  and  C_20
REMARK    7  A    between atoms: C_19  and  N_21
REMARK    8  A    between atoms: N_21  and  C_22
REMARK    9  A    between atoms: C_22  and  C_23
REMARK   10  A    between atoms: C_23  and  C_26
REMARK   11  A    between atoms: C_31  and  C_32
REMARK                            x       y       z     vdW  Elec       q    Type
REMARK                         _______ _______ _______ _____ _____    ______ ____
ROOT
ATOM      1  C   UNL     1      -4.178  13.858  21.457  0.00  0.00    +0.000 A 
ATOM      2  C   UNL     1      -4.213  14.429  22.736  0.00  0.00    +0.000 A 
ATOM      3  C   UNL     1      -3.054  14.466  23.552  0.00  0.00    +0.000 A 
ATOM      4  C   UNL     1      -3.187  14.910  24.992  0.00  0.00    +0.000 C 
ATOM      5  C   UNL     1      -1.848  13.909  23.062  0.00  0.00    +0.000 A 
ATOM      6  C   UNL     1      -1.813  13.226  21.846  0.00  0.00    +0.000 A 
ATOM      7  C   UNL     1      -3.008  13.218  21.079  0.00  0.00    +0.000 A 
ATOM      8  O   UNL     1      -2.967  12.282  20.076  0.00  0.00    +0.000 OA
ATOM      9  C   UNL     1      -1.769  11.585  20.169  0.00  0.00    +0.000 C 
ATOM     10  C   UNL     1      -1.328  10.928  19.103  0.00  0.00    +0.000 C 
ATOM     11  C   UNL     1       0.025  10.335  19.057  0.00  0.00    +0.000 C 
ATOM     12  O   UNL     1       0.444   9.741  18.049  0.00  0.00    +0.000 OA
ATOM     13  C   UNL     1       0.727  10.447  20.366  0.00  0.00    +0.000 C 
ATOM     14  C   UNL     1       1.107   9.245  20.898  0.00  0.00    +0.000 C 
ATOM     15  C   UNL     1       1.435   8.969  22.359  0.00  0.00    +0.000 C 
ATOM     16  C   UNL     1       0.463  11.829  21.020  0.00  0.00    +0.000 C 
ATOM     17  O   UNL     1       1.304  12.705  21.005  0.00  0.00    +0.000 OA
ATOM     18  C   UNL     1      -0.992  11.979  21.462  0.00  0.00    +0.000 C 
ATOM     19  C   UNL     1      -1.060  11.105  22.727  0.00  0.00    +0.000 C 
ENDROOT
BRANCH   1  21
ATOM     20  C   UNL     1      -6.336  12.598  20.773  0.00  0.00    +0.000 C 
ATOM     21  C   UNL     1      -5.427  13.801  20.651  0.00  0.00    +0.000 C 
ATOM     22  O   UNL     1      -5.651  14.699  19.835  0.00  0.00    +0.000 OA
ENDBRANCH   1  21
BRANCH   2  23
ATOM     23  O   UNL     1      -5.380  14.898  23.280  0.00  0.00    +0.000 OA
ATOM     24  H   UNL     1      -6.086  14.842  22.598  0.00  0.00    +0.000 HD
ENDBRANCH   2  23
BRANCH   5  25
ATOM     25  O   UNL     1      -0.725  13.866  23.841  0.00  0.00    +0.000 OA
ATOM     26  H   UNL     1      -0.042  13.328  23.412  0.00  0.00    +0.000 HD
ENDBRANCH   5  25
BRANCH  14  27
ATOM     27  N   UNL     1       1.056   8.008  20.219  0.00  0.00    +0.000 N 
ATOM     28  H   UNL     1       0.422   8.023  19.414  0.00  0.00    +0.000 HD
BRANCH  27  29
ATOM     29  C   UNL     1       2.323   7.370  19.771  0.00  0.00    +0.000 C 
BRANCH  29  30
ATOM     30  C   UNL     1       2.286   5.839  19.862  0.00  0.00    +0.000 C 
ATOM     31  F   UNL     1       3.409   5.382  20.482  0.00  0.00    +0.000 F 
ATOM     32  F   UNL     1       1.229   5.453  20.630  0.00  0.00    +0.000 F 
BRANCH  30  33
ATOM     33  C   UNL     1       2.163   5.239  18.469  0.00  0.00    +0.000 C 
ATOM     34  F   UNL     1       1.188   4.292  18.431  0.00  0.00    +0.000 F 
ATOM     35  F   UNL     1       1.818   6.182  17.555  0.00  0.00    +0.000 F 
ENDBRANCH  30  33
ENDBRANCH  29  30
ENDBRANCH  27  29
ENDBRANCH  14  27
TORSDOF 7
ENDMDL
MODEL 7
REMARK VINA RESULT:      -6.7      7.599      9.555
REMARK  Name = 
REMARK  11 active torsions:
REMARK  status: ('A' for Active; 'I' for Inactive)
REMARK    1  A    between atoms: C_1  and  C_2
REMARK    2  A    between atoms: C_2  and  C_4
REMARK    3  A    between atoms: C_5  and  O_6
REMARK    4  A    between atoms: C_7  and  C_8
REMARK    5  A    between atoms: C_9  and  O_10
REMARK    6  A    between atoms: C_19  and  C_20
REMARK    7  A    between atoms: C_19  and  N_21
REMARK    8  A    between atoms: N_21  and  C_22
REMARK    9  A    between atoms: C_22  and  C_23
REMARK   10  A    between atoms: C_23  and  C_26
REMARK   11  A    between atoms: C_31  and  C_32
REMARK                            x       y       z     vdW  Elec       q    Type
REMARK                         _______ _______ _______ _____ _____    ______ ____
ROOT
ATOM      1  C   UNL     1      -4.398  11.734  18.285  0.00  0.00    +0.000 A 
ATOM      2  C   UNL     1      -4.160  11.015  17.105  0.00  0.00    +0.000 A 
ATOM      3  C   UNL     1      -2.896  10.426  16.851  0.00  0.00    +0.000 A 
ATOM      4  C   UNL     1      -2.626   9.833  15.486  0.00  0.00    +0.000 C 
ATOM      5  C   UNL     1      -1.860  10.575  17.805  0.00  0.00    +0.000 A 
ATOM      6  C   UNL     1      -2.029  11.386  18.927  0.00  0.00    +0.000 A 
ATOM      7  C   UNL     1      -3.315  11.955  19.122  0.00  0.00    +0.000 A 
ATOM      8  O   UNL     1      -3.295  12.961  20.055  0.00  0.00    +0.000 OA
ATOM      9  C   UNL     1      -1.985  13.147  20.479  0.00  0.00    +0.000 C 
ATOM     10  C   UNL     1      -1.768  13.762  21.635  0.00  0.00    +0.000 C 
ATOM     11  C   UNL     1      -0.425  13.819  22.247  0.00  0.00    +0.000 C 
ATOM     12  O   UNL     1      -0.229  14.375  23.342  0.00  0.00    +0.000 OA
ATOM     13  C   UNL     1       0.620  13.247  21.354  0.00  0.00    +0.000 C 
ATOM     14  C   UNL     1       1.623  14.124  21.038  0.00  0.00    +0.000 C 
ATOM     15  C   UNL     1       2.570  14.019  19.851  0.00  0.00    +0.000 C 
ATOM     16  C   UNL     1       0.102  11.970  20.640  0.00  0.00    +0.000 C 
ATOM     17  O   UNL     1       0.445  10.863  21.002  0.00  0.00    +0.000 OA
ATOM     18  C   UNL     1      -0.996  12.293  19.628  0.00  0.00    +0.000 C 
ATOM     19  C   UNL     1      -0.214  12.912  18.457  0.00  0.00    +0.000 C 
ENDROOT
BRANCH   1  21
ATOM     20  C   UNL     1      -6.588  11.935  19.654  0.00  0.00    +0.000 C 
ATOM     21  C   UNL     1      -5.724  12.373  18.492  0.00  0.00    +0.000 C 
ATOM     22  O   UNL     1      -6.128  13.189  17.660  0.00  0.00    +0.000 OA
ENDBRANCH   1  21
BRANCH   2  23
ATOM     23  O   UNL     1      -5.106  10.922  16.119  0.00  0.00    +0.000 OA
ATOM     24  H   UNL     1      -4.730  11.297  15.290  0.00  0.00    +0.000 HD
ENDBRANCH   2  23
BRANCH   5  25
ATOM     25  O   UNL     1      -0.608  10.078  17.569  0.00  0.00    +0.000 OA
ATOM     26  H   UNL     1      -0.446  10.024  16.614  0.00  0.00    +0.000 HD
ENDBRANCH   5  25
BRANCH  14  27
ATOM     27  N   UNL     1       1.811  15.387  21.640  0.00  0.00    +0.000 N 
ATOM     28  H   UNL     1       2.577  15.392  22.320  0.00  0.00    +0.000 HD
BRANCH  27  29
ATOM     29  C   UNL     1       1.979  16.587  20.777  0.00  0.00    +0.000 C 
BRANCH  29  30
ATOM     30  C   UNL     1       0.645  17.245  20.401  0.00  0.00    +0.000 C 
ATOM     31  F   UNL     1      -0.296  16.960  21.342  0.00  0.00    +0.000 F 
ATOM     32  F   UNL     1       0.791  18.599  20.389  0.00  0.00    +0.000 F 
BRANCH  30  33
ATOM     33  C   UNL     1       0.194  16.758  19.031  0.00  0.00    +0.000 C 
ATOM     34  F   UNL     1      -0.900  15.955  19.136  0.00  0.00    +0.000 F 
ATOM     35  F   UNL     1      -0.167  17.797  18.234  0.00  0.00    +0.000 F 
ENDBRANCH  30  33
ENDBRANCH  29  30
ENDBRANCH  27  29
ENDBRANCH  14  27
TORSDOF 7
ENDMDL
MODEL 8
REMARK VINA RESULT:      -6.7      4.060      6.730
REMARK  Name = 
REMARK  11 active torsions:
REMARK  status: ('A' for Active; 'I' for Inactive)
REMARK    1  A    between atoms: C_1  and  C_2
REMARK    2  A    between atoms: C_2  and  C_4
REMARK    3  A    between atoms: C_5  and  O_6
REMARK    4  A    between atoms: C_7  and  C_8
REMARK    5  A    between atoms: C_9  and  O_10
REMARK    6  A    between atoms: C_19  and  C_20
REMARK    7  A    between atoms: C_19  and  N_21
REMARK    8  A    between atoms: N_21  and  C_22
REMARK    9  A    between atoms: C_22  and  C_23
REMARK   10  A    between atoms: C_23  and  C_26
REMARK   11  A    between atoms: C_31  and  C_32
REMARK                            x       y       z     vdW  Elec       q    Type
REMARK                         _______ _______ _______ _____ _____    ______ ____
ROOT
ATOM      1  C   UNL     1      -4.492  12.191  19.118  0.00  0.00    +0.000 A 
ATOM      2  C   UNL     1      -4.944  12.877  20.254  0.00  0.00    +0.000 A 
ATOM      3  C   UNL     1      -4.041  13.295  21.263  0.00  0.00    +0.000 A 
ATOM      4  C   UNL     1      -4.595  13.853  22.556  0.00  0.00    +0.000 C 
ATOM      5  C   UNL     1      -2.662  13.005  21.118  0.00  0.00    +0.000 A 
ATOM      6  C   UNL     1      -2.200  12.219  20.063  0.00  0.00    +0.000 A 
ATOM      7  C   UNL     1      -3.155  11.825  19.089  0.00  0.00    +0.000 A 
ATOM      8  O   UNL     1      -2.681  10.821  18.282  0.00  0.00    +0.000 OA
ATOM      9  C   UNL     1      -1.413  10.461  18.722  0.00  0.00    +0.000 C 
ATOM     10  C   UNL     1      -0.606   9.818  17.886  0.00  0.00    +0.000 C 
ATOM     11  C   UNL     1       0.817   9.581  18.206  0.00  0.00    +0.000 C 
ATOM     12  O   UNL     1       1.576   8.999  17.412  0.00  0.00    +0.000 OA
ATOM     13  C   UNL     1       1.158  10.013  19.589  0.00  0.00    +0.000 C 
ATOM     14  C   UNL     1       1.660   9.012  20.377  0.00  0.00    +0.000 C 
ATOM     15  C   UNL     1       1.695   8.996  21.899  0.00  0.00    +0.000 C 
ATOM     16  C   UNL     1       0.454  11.350  19.942  0.00  0.00    +0.000 C 
ATOM     17  O   UNL     1       1.063  12.401  19.947  0.00  0.00    +0.000 OA
ATOM     18  C   UNL     1      -1.060  11.181  20.059  0.00  0.00    +0.000 C 
ATOM     19  C   UNL     1      -1.223  10.468  21.413  0.00  0.00    +0.000 C 
ENDROOT
BRANCH   1  21
ATOM     20  C   UNL     1      -5.740  12.583  16.882  0.00  0.00    +0.000 C 
ATOM     21  C   UNL     1      -5.479  11.732  18.105  0.00  0.00    +0.000 C 
ATOM     22  O   UNL     1      -6.126  10.706  18.327  0.00  0.00    +0.000 OA
ENDBRANCH   1  21
BRANCH   2  23
ATOM     23  O   UNL     1      -6.278  13.099  20.474  0.00  0.00    +0.000 OA
ATOM     24  H   UNL     1      -6.694  12.251  20.749  0.00  0.00    +0.000 HD
ENDBRANCH   2  23
BRANCH   5  25
ATOM     25  O   UNL     1      -1.767  13.333  22.099  0.00  0.00    +0.000 OA
ATOM     26  H   UNL     1      -2.158  13.177  22.972  0.00  0.00    +0.000 HD
ENDBRANCH   5  25
BRANCH  14  27
ATOM     27  N   UNL     1       2.038   7.733  19.916  0.00  0.00    +0.000 N 
ATOM     28  H   UNL     1       3.051   7.582  19.951  0.00  0.00    +0.000 HD
BRANCH  27  29
ATOM     29  C   UNL     1       1.391   6.528  20.500  0.00  0.00    +0.000 C 
BRANCH  29  30
ATOM     30  C   UNL     1       2.281   5.280  20.436  0.00  0.00    +0.000 C 
ATOM     31  F   UNL     1       3.508   5.609  19.946  0.00  0.00    +0.000 F 
ATOM     32  F   UNL     1       2.478   4.795  21.693  0.00  0.00    +0.000 F 
BRANCH  30  33
ATOM     33  C   UNL     1       1.626   4.218  19.564  0.00  0.00    +0.000 C 
ATOM     34  F   UNL     1       0.375   3.926  20.012  0.00  0.00    +0.000 F 
ATOM     35  F   UNL     1       1.486   4.650  18.284  0.00  0.00    +0.000 F 
ENDBRANCH  30  33
ENDBRANCH  29  30
ENDBRANCH  27  29
ENDBRANCH  14  27
TORSDOF 7
ENDMDL
MODEL 9
REMARK VINA RESULT:      -6.7      3.441      5.617
REMARK  Name = 
REMARK  11 active torsions:
REMARK  status: ('A' for Active; 'I' for Inactive)
REMARK    1  A    between atoms: C_1  and  C_2
REMARK    2  A    between atoms: C_2  and  C_4
REMARK    3  A    between atoms: C_5  and  O_6
REMARK    4  A    between atoms: C_7  and  C_8
REMARK    5  A    between atoms: C_9  and  O_10
REMARK    6  A    between atoms: C_19  and  C_20
REMARK    7  A    between atoms: C_19  and  N_21
REMARK    8  A    between atoms: N_21  and  C_22
REMARK    9  A    between atoms: C_22  and  C_23
REMARK   10  A    between atoms: C_23  and  C_26
REMARK   11  A    between atoms: C_31  and  C_32
REMARK                            x       y       z     vdW  Elec       q    Type
REMARK                         _______ _______ _______ _____ _____    ______ ____
ROOT
ATOM      1  C   UNL     1      -0.398  14.954  21.672  0.00  0.00    +0.000 A 
ATOM      2  C   UNL     1      -0.326  15.876  20.620  0.00  0.00    +0.000 A 
ATOM      3  C   UNL     1      -0.411  15.453  19.270  0.00  0.00    +0.000 A 
ATOM      4  C   UNL     1      -0.132  16.453  18.170  0.00  0.00    +0.000 C 
ATOM      5  C   UNL     1      -0.566  14.074  18.988  0.00  0.00    +0.000 A 
ATOM      6  C   UNL     1      -0.517  13.122  20.006  0.00  0.00    +0.000 A 
ATOM      7  C   UNL     1      -0.422  13.608  21.337  0.00  0.00    +0.000 A 
ATOM      8  O   UNL     1      -0.074  12.619  22.221  0.00  0.00    +0.000 OA
ATOM      9  C   UNL     1       0.137  11.444  21.511  0.00  0.00    +0.000 C 
ATOM     10  C   UNL     1       0.088  10.287  22.161  0.00  0.00    +0.000 C 
ATOM     11  C   UNL     1       0.101   8.993  21.448  0.00  0.00    +0.000 C 
ATOM     12  O   UNL     1       0.030   7.911  22.057  0.00  0.00    +0.000 OA
ATOM     13  C   UNL     1       0.317   9.163  19.985  0.00  0.00    +0.000 C 
ATOM     14  C   UNL     1       1.419   8.509  19.505  0.00  0.00    +0.000 C 
ATOM     15  C   UNL     1       2.154   8.813  18.206  0.00  0.00    +0.000 C 
ATOM     16  C   UNL     1      -0.476  10.384  19.446  0.00  0.00    +0.000 C 
ATOM     17  O   UNL     1      -1.506  10.239  18.820  0.00  0.00    +0.000 OA
ATOM     18  C   UNL     1       0.086  11.703  19.974  0.00  0.00    +0.000 C 
ATOM     19  C   UNL     1       1.375  11.882  19.154  0.00  0.00    +0.000 C 
ENDROOT
BRANCH   1  21
ATOM     20  C   UNL     1      -1.445  15.352  24.008  0.00  0.00    +0.000 C 
ATOM     21  C   UNL     1      -0.260  15.435  23.073  0.00  0.00    +0.000 C 
ATOM     22  O   UNL     1       0.796  15.972  23.416  0.00  0.00    +0.000 OA
ENDBRANCH   1  21
BRANCH   2  23
ATOM     23  O   UNL     1      -0.089  17.206  20.847  0.00  0.00    +0.000 OA
ATOM     24  H   UNL     1       0.066  17.335  21.810  0.00  0.00    +0.000 HD
ENDBRANCH   2  23
BRANCH   5  25
ATOM     25  O   UNL     1      -0.587  13.617  17.699  0.00  0.00    +0.000 OA
ATOM     26  H   UNL     1      -0.750  14.352  17.088  0.00  0.00    +0.000 HD
ENDBRANCH   5  25
BRANCH  14  27
ATOM     27  N   UNL     1       2.189   7.578  20.236  0.00  0.00    +0.000 N 
ATOM     28  H   UNL     1       2.220   7.789  21.238  0.00  0.00    +0.000 HD
BRANCH  27  29
ATOM     29  C   UNL     1       1.897   6.126  20.099  0.00  0.00    +0.000 C 
BRANCH  29  30
ATOM     30  C   UNL     1       2.993   5.364  19.343  0.00  0.00    +0.000 C 
ATOM     31  F   UNL     1       4.163   6.059  19.394  0.00  0.00    +0.000 F 
ATOM     32  F   UNL     1       3.221   4.168  19.953  0.00  0.00    +0.000 F 
BRANCH  30  33
ATOM     33  C   UNL     1       2.568   5.139  17.899  0.00  0.00    +0.000 C 
ATOM     34  F   UNL     1       3.651   4.989  17.091  0.00  0.00    +0.000 F 
ATOM     35  F   UNL     1       1.834   4.004  17.774  0.00  0.00    +0.000 F 
ENDBRANCH  30  33
ENDBRANCH  29  30
ENDBRANCH  27  29
ENDBRANCH  14  27
TORSDOF 7
ENDMDL
